MODEL 1
REMARK VINA RESULT:      -7.8      0.000      0.000
REMARK  8 active torsions:
REMARK  status: ('A' for Active; 'I' for Inactive)
REMARK    1  A    between atoms: C_7  and  C_8 
REMARK       I    between atoms: C_8  and  N_9 
REMARK    2  A    between atoms: N_9  and  C_10 
REMARK    3  A    between atoms: C_13  and  C_14 
REMARK       I    between atoms: C_14  and  N_15 
REMARK    4  A    between atoms: N_15  and  C_16 
REMARK    5  A    between atoms: C_16  and  C_17 
REMARK    6  A    between atoms: C_17  and  C_18 
REMARK    7  A    between atoms: C_20  and  O_21 
REMARK    8  A    between atoms: C_23  and  O_24 
ROOT
HETATM    1  C   UNL     1      42.872 -10.923   6.888  1.00  0.00     0.035 A 
HETATM    2  C   UNL     1      42.300 -10.284   5.787  1.00  0.00     0.030 A 
HETATM    3  C   UNL     1      42.270 -10.909   4.535  1.00  0.00     0.019 A 
HETATM    4  C   UNL     1      42.813 -12.187   4.375  1.00  0.00     0.032 A 
HETATM    5  C   UNL     1      43.431 -12.813   5.462  1.00  0.00     0.019 A 
HETATM    6  C   UNL     1      43.456 -12.184   6.711  1.00  0.00     0.030 A 
ENDROOT
BRANCH   4   7
HETATM    7  C   UNL     1      42.733 -12.920   3.083  1.00  0.00     0.251 C 
HETATM    8  N   UNL     1      41.459 -13.180   2.617  1.00  0.00    -0.357 N 
HETATM    9  H   UNL     1      40.698 -13.094   3.280  1.00  0.00     0.162 HD
HETATM   10  O   UNL     1      43.752 -13.306   2.524  1.00  0.00    -0.268 OA
BRANCH   8  11
HETATM   11  C   UNL     1      41.256 -14.098   1.512  1.00  0.00     0.127 C 
BRANCH  11  12
HETATM   12  C   UNL     1      40.700 -15.453   1.961  1.00  0.00     0.058 C 
BRANCH  12  13
HETATM   13  C   UNL     1      41.664 -16.291   2.775  1.00  0.00    -0.054 A 
HETATM   14  C   UNL     1      41.639 -16.272   4.177  1.00  0.00     0.046 A 
HETATM   15  C   UNL     1      42.535 -17.050   4.924  1.00  0.00     0.102 A 
HETATM   16  C   UNL     1      43.492 -17.841   4.260  1.00  0.00     0.101 A 
HETATM   17  C   UNL     1      43.522 -17.855   2.863  1.00  0.00     0.040 A 
HETATM   18  C   UNL     1      42.617 -17.086   2.128  1.00  0.00     0.010 A 
BRANCH  15  19
HETATM   19  O   UNL     1      42.566 -17.094   6.296  1.00  0.00    -0.353 OA
HETATM   20  C   UNL     1      41.966 -16.019   7.005  1.00  0.00     0.210 C 
ENDBRANCH  15  19
BRANCH  16  21
HETATM   21  O   UNL     1      44.338 -18.568   5.061  1.00  0.00    -0.353 OA
HETATM   22  C   UNL     1      44.260 -19.985   4.982  1.00  0.00     0.210 C 
ENDBRANCH  16  21
ENDBRANCH  12  13
ENDBRANCH  11  12
ENDBRANCH   8  11
ENDBRANCH   4   7
BRANCH   1  23
HETATM   23  N   UNL     1      42.881 -10.391   8.192  1.00  0.00    -0.322 N 
HETATM   24  C   UNL     1      43.882  -9.666   8.814  1.00  0.00     0.265 C 
HETATM   25  O   UNL     1      44.988  -9.440   8.336  1.00  0.00    -0.267 OA
HETATM   26  H   UNL     1      42.042 -10.529   8.746  1.00  0.00     0.169 HD
BRANCH  24  27
HETATM   27  C   UNL     1      43.488  -9.145  10.195  1.00  0.00     0.097 C 
HETATM   28  C   UNL     1      43.216  -7.831  10.399  1.00  0.00     0.064 C 
HETATM   29  C   UNL     1      43.192  -6.798   9.301  1.00  0.00     0.078 C 
HETATM   30  O   UNL     1      42.881  -7.257  11.616  1.00  0.00    -0.353 OA
HETATM   31  C   UNL     1      43.199  -7.999  12.791  1.00  0.00     0.185 C 
HETATM   32  C   UNL     1      42.574  -9.377  12.757  1.00  0.00     0.106 C 
HETATM   33  S   UNL     1      43.400 -10.344  11.471  1.00  0.00    -0.120 SA
ENDBRANCH  24  27
ENDBRANCH   1  23
TORSDOF 8
ENDMDL
MODEL 2
REMARK VINA RESULT:      -7.7      3.770     10.084
REMARK  8 active torsions:
REMARK  status: ('A' for Active; 'I' for Inactive)
REMARK    1  A    between atoms: C_7  and  C_8 
REMARK       I    between atoms: C_8  and  N_9 
REMARK    2  A    between atoms: N_9  and  C_10 
REMARK    3  A    between atoms: C_13  and  C_14 
REMARK       I    between atoms: C_14  and  N_15 
REMARK    4  A    between atoms: N_15  and  C_16 
REMARK    5  A    between atoms: C_16  and  C_17 
REMARK    6  A    between atoms: C_17  and  C_18 
REMARK    7  A    between atoms: C_20  and  O_21 
REMARK    8  A    between atoms: C_23  and  O_24 
ROOT
HETATM    1  C   UNL     1      42.482 -13.021   3.200  1.00  0.00     0.035 A 
HETATM    2  C   UNL     1      42.420 -13.783   4.368  1.00  0.00     0.030 A 
HETATM    3  C   UNL     1      43.133 -13.399   5.510  1.00  0.00     0.019 A 
HETATM    4  C   UNL     1      43.914 -12.240   5.492  1.00  0.00     0.032 A 
HETATM    5  C   UNL     1      44.020 -11.499   4.311  1.00  0.00     0.019 A 
HETATM    6  C   UNL     1      43.304 -11.887   3.174  1.00  0.00     0.030 A 
ENDROOT
BRANCH   4   7
HETATM    7  C   UNL     1      44.626 -11.751   6.705  1.00  0.00     0.251 C 
HETATM    8  N   UNL     1      45.707 -10.924   6.475  1.00  0.00    -0.357 N 
HETATM    9  H   UNL     1      46.091 -10.915   5.537  1.00  0.00     0.162 HD
HETATM   10  O   UNL     1      44.284 -12.128   7.819  1.00  0.00    -0.268 OA
BRANCH   8  11
HETATM   11  C   UNL     1      46.621 -10.595   7.553  1.00  0.00     0.127 C 
BRANCH  11  12
HETATM   12  C   UNL     1      46.419  -9.174   8.087  1.00  0.00     0.058 C 
BRANCH  12  13
HETATM   13  C   UNL     1      45.268  -9.024   9.061  1.00  0.00    -0.054 A 
HETATM   14  C   UNL     1      44.230  -8.111   8.824  1.00  0.00     0.046 A 
HETATM   15  C   UNL     1      43.167  -7.978   9.730  1.00  0.00     0.102 A 
HETATM   16  C   UNL     1      43.154  -8.751  10.907  1.00  0.00     0.101 A 
HETATM   17  C   UNL     1      44.193  -9.656  11.146  1.00  0.00     0.040 A 
HETATM   18  C   UNL     1      45.239  -9.790  10.231  1.00  0.00     0.010 A 
BRANCH  15  19
HETATM   19  O   UNL     1      42.112  -7.116   9.565  1.00  0.00    -0.353 OA
HETATM   20  C   UNL     1      42.389  -5.723   9.575  1.00  0.00     0.210 C 
ENDBRANCH  15  19
BRANCH  16  21
HETATM   21  O   UNL     1      42.085  -8.558  11.746  1.00  0.00    -0.353 OA
HETATM   22  C   UNL     1      41.684  -9.652  12.559  1.00  0.00     0.210 C 
ENDBRANCH  16  21
ENDBRANCH  12  13
ENDBRANCH  11  12
ENDBRANCH   8  11
ENDBRANCH   4   7
BRANCH   1  23
HETATM   23  N   UNL     1      41.743 -13.303   2.036  1.00  0.00    -0.322 N 
HETATM   24  C   UNL     1      40.402 -13.060   1.792  1.00  0.00     0.265 C 
HETATM   25  O   UNL     1      39.606 -12.623   2.615  1.00  0.00    -0.267 OA
HETATM   26  H   UNL     1      42.252 -13.715   1.261  1.00  0.00     0.169 HD
BRANCH  24  27
HETATM   27  C   UNL     1      39.973 -13.388   0.364  1.00  0.00     0.097 C 
HETATM   28  C   UNL     1      39.770 -14.670  -0.032  1.00  0.00     0.064 C 
HETATM   29  C   UNL     1      39.860 -15.859   0.891  1.00  0.00     0.078 C 
HETATM   30  O   UNL     1      39.409 -15.072  -1.310  1.00  0.00    -0.353 OA
HETATM   31  C   UNL     1      39.626 -14.138  -2.366  1.00  0.00     0.185 C 
HETATM   32  C   UNL     1      38.923 -12.827  -2.093  1.00  0.00     0.106 C 
HETATM   33  S   UNL     1      39.753 -12.016  -0.705  1.00  0.00    -0.120 SA
ENDBRANCH  24  27
ENDBRANCH   1  23
TORSDOF 8
ENDMDL
MODEL 3
REMARK VINA RESULT:      -7.6      1.454      1.745
REMARK  8 active torsions:
REMARK  status: ('A' for Active; 'I' for Inactive)
REMARK    1  A    between atoms: C_7  and  C_8 
REMARK       I    between atoms: C_8  and  N_9 
REMARK    2  A    between atoms: N_9  and  C_10 
REMARK    3  A    between atoms: C_13  and  C_14 
REMARK       I    between atoms: C_14  and  N_15 
REMARK    4  A    between atoms: N_15  and  C_16 
REMARK    5  A    between atoms: C_16  and  C_17 
REMARK    6  A    between atoms: C_17  and  C_18 
REMARK    7  A    between atoms: C_20  and  O_21 
REMARK    8  A    between atoms: C_23  and  O_24 
ROOT
HETATM    1  C   UNL     1      42.610 -10.231   7.233  1.00  0.00     0.035 A 
HETATM    2  C   UNL     1      41.806  -9.740   6.204  1.00  0.00     0.030 A 
HETATM    3  C   UNL     1      41.876 -10.290   4.918  1.00  0.00     0.019 A 
HETATM    4  C   UNL     1      42.753 -11.346   4.654  1.00  0.00     0.032 A 
HETATM    5  C   UNL     1      43.596 -11.810   5.668  1.00  0.00     0.019 A 
HETATM    6  C   UNL     1      43.521 -11.258   6.950  1.00  0.00     0.030 A 
ENDROOT
BRANCH   4   7
HETATM    7  C   UNL     1      42.804 -12.013   3.324  1.00  0.00     0.251 C 
HETATM    8  N   UNL     1      42.860 -13.393   3.347  1.00  0.00    -0.357 N 
HETATM    9  H   UNL     1      43.118 -13.831   4.223  1.00  0.00     0.162 HD
HETATM   10  O   UNL     1      42.851 -11.347   2.297  1.00  0.00    -0.268 OA
BRANCH   8  11
HETATM   11  C   UNL     1      43.165 -14.133   2.136  1.00  0.00     0.127 C 
BRANCH  11  12
HETATM   12  C   UNL     1      42.371 -15.439   2.025  1.00  0.00     0.058 C 
BRANCH  12  13
HETATM   13  C   UNL     1      42.961 -16.602   2.794  1.00  0.00    -0.054 A 
HETATM   14  C   UNL     1      43.293 -16.482   4.153  1.00  0.00     0.046 A 
HETATM   15  C   UNL     1      43.839 -17.564   4.859  1.00  0.00     0.102 A 
HETATM   16  C   UNL     1      44.084 -18.779   4.192  1.00  0.00     0.101 A 
HETATM   17  C   UNL     1      43.761 -18.897   2.837  1.00  0.00     0.040 A 
HETATM   18  C   UNL     1      43.205 -17.818   2.146  1.00  0.00     0.010 A 
BRANCH  15  19
HETATM   19  O   UNL     1      44.179 -17.528   6.189  1.00  0.00    -0.353 OA
HETATM   20  C   UNL     1      43.473 -16.625   7.027  1.00  0.00     0.210 C 
ENDBRANCH  15  19
BRANCH  16  21
HETATM   21  O   UNL     1      44.626 -19.787   4.950  1.00  0.00    -0.353 OA
HETATM   22  C   UNL     1      43.809 -20.918   5.219  1.00  0.00     0.210 C 
ENDBRANCH  16  21
ENDBRANCH  12  13
ENDBRANCH  11  12
ENDBRANCH   8  11
ENDBRANCH   4   7
BRANCH   1  23
HETATM   23  N   UNL     1      42.551  -9.778   8.565  1.00  0.00    -0.322 N 
HETATM   24  C   UNL     1      43.507  -9.070   9.272  1.00  0.00     0.265 C 
HETATM   25  O   UNL     1      44.627  -8.794   8.857  1.00  0.00    -0.267 OA
HETATM   26  H   UNL     1      41.693  -9.966   9.073  1.00  0.00     0.169 HD
BRANCH  24  27
HETATM   27  C   UNL     1      43.042  -8.640  10.662  1.00  0.00     0.097 C 
HETATM   28  C   UNL     1      43.132  -9.480  11.724  1.00  0.00     0.064 C 
HETATM   29  C   UNL     1      43.759 -10.850  11.661  1.00  0.00     0.078 C 
HETATM   30  O   UNL     1      42.712  -9.195  13.015  1.00  0.00    -0.353 OA
HETATM   31  C   UNL     1      41.795  -8.115  13.173  1.00  0.00     0.185 C 
HETATM   32  C   UNL     1      42.349  -6.834  12.588  1.00  0.00     0.106 C 
HETATM   33  S   UNL     1      42.409  -7.010  10.789  1.00  0.00    -0.120 SA
ENDBRANCH  24  27
ENDBRANCH   1  23
TORSDOF 8
ENDMDL
MODEL 4
REMARK VINA RESULT:      -7.5      3.309      5.449
REMARK  8 active torsions:
REMARK  status: ('A' for Active; 'I' for Inactive)
REMARK    1  A    between atoms: C_7  and  C_8 
REMARK       I    between atoms: C_8  and  N_9 
REMARK    2  A    between atoms: N_9  and  C_10 
REMARK    3  A    between atoms: C_13  and  C_14 
REMARK       I    between atoms: C_14  and  N_15 
REMARK    4  A    between atoms: N_15  and  C_16 
REMARK    5  A    between atoms: C_16  and  C_17 
REMARK    6  A    between atoms: C_17  and  C_18 
REMARK    7  A    between atoms: C_20  and  O_21 
REMARK    8  A    between atoms: C_23  and  O_24 
ROOT
HETATM    1  C   UNL     1      41.958  -8.271  11.805  1.00  0.00     0.035 A 
HETATM    2  C   UNL     1      41.425  -8.508  10.537  1.00  0.00     0.030 A 
HETATM    3  C   UNL     1      42.129  -9.271   9.597  1.00  0.00     0.019 A 
HETATM    4  C   UNL     1      43.377  -9.809   9.924  1.00  0.00     0.032 A 
HETATM    5  C   UNL     1      43.938  -9.535  11.175  1.00  0.00     0.019 A 
HETATM    6  C   UNL     1      43.230  -8.774  12.110  1.00  0.00     0.030 A 
ENDROOT
BRANCH   4   7
HETATM    7  C   UNL     1      44.124 -10.691   8.986  1.00  0.00     0.251 C 
HETATM    8  N   UNL     1      43.373 -11.276   7.986  1.00  0.00    -0.357 N 
HETATM    9  H   UNL     1      42.367 -11.280   8.105  1.00  0.00     0.162 HD
HETATM   10  O   UNL     1      45.317 -10.909   9.156  1.00  0.00    -0.268 OA
BRANCH   8  11
HETATM   11  C   UNL     1      43.934 -12.342   7.176  1.00  0.00     0.127 C 
BRANCH  11  12
HETATM   12  C   UNL     1      42.879 -13.061   6.331  1.00  0.00     0.058 C 
BRANCH  12  13
HETATM   13  C   UNL     1      43.295 -14.431   5.835  1.00  0.00    -0.054 A 
HETATM   14  C   UNL     1      42.876 -14.910   4.585  1.00  0.00     0.046 A 
HETATM   15  C   UNL     1      43.265 -16.179   4.132  1.00  0.00     0.102 A 
HETATM   16  C   UNL     1      44.066 -16.996   4.953  1.00  0.00     0.101 A 
HETATM   17  C   UNL     1      44.478 -16.522   6.202  1.00  0.00     0.040 A 
HETATM   18  C   UNL     1      44.095 -15.251   6.638  1.00  0.00     0.010 A 
BRANCH  15  19
HETATM   19  O   UNL     1      42.905 -16.713   2.919  1.00  0.00    -0.353 OA
HETATM   20  C   UNL     1      43.365 -16.057   1.746  1.00  0.00     0.210 C 
ENDBRANCH  15  19
BRANCH  16  21
HETATM   21  O   UNL     1      44.398 -18.226   4.443  1.00  0.00    -0.353 OA
HETATM   22  C   UNL     1      44.027 -19.372   5.198  1.00  0.00     0.210 C 
ENDBRANCH  16  21
ENDBRANCH  12  13
ENDBRANCH  11  12
ENDBRANCH   8  11
ENDBRANCH   4   7
BRANCH   1  23
HETATM   23  N   UNL     1      41.284  -7.572  12.825  1.00  0.00    -0.322 N 
HETATM   24  C   UNL     1      40.688  -6.326  12.759  1.00  0.00     0.265 C 
HETATM   25  O   UNL     1      40.729  -5.576  11.789  1.00  0.00    -0.267 OA
HETATM   26  H   UNL     1      41.198  -8.043  13.720  1.00  0.00     0.169 HD
BRANCH  24  27
HETATM   27  C   UNL     1      39.941  -5.939  14.034  1.00  0.00     0.097 C 
HETATM   28  C   UNL     1      38.605  -6.143  14.155  1.00  0.00     0.064 C 
HETATM   29  C   UNL     1      37.762  -6.829  13.110  1.00  0.00     0.078 C 
HETATM   30  O   UNL     1      37.833  -5.801  15.256  1.00  0.00    -0.353 OA
HETATM   31  C   UNL     1      38.385  -4.846  16.160  1.00  0.00     0.185 C 
HETATM   32  C   UNL     1      39.734  -5.295  16.679  1.00  0.00     0.106 C 
HETATM   33  S   UNL     1      40.917  -5.239  15.312  1.00  0.00    -0.120 SA
ENDBRANCH  24  27
ENDBRANCH   1  23
TORSDOF 8
ENDMDL
MODEL 5
REMARK VINA RESULT:      -7.2      3.383      6.279
REMARK  8 active torsions:
REMARK  status: ('A' for Active; 'I' for Inactive)
REMARK    1  A    between atoms: C_7  and  C_8 
REMARK       I    between atoms: C_8  and  N_9 
REMARK    2  A    between atoms: N_9  and  C_10 
REMARK    3  A    between atoms: C_13  and  C_14 
REMARK       I    between atoms: C_14  and  N_15 
REMARK    4  A    between atoms: N_15  and  C_16 
REMARK    5  A    between atoms: C_16  and  C_17 
REMARK    6  A    between atoms: C_17  and  C_18 
REMARK    7  A    between atoms: C_20  and  O_21 
REMARK    8  A    between atoms: C_23  and  O_24 
ROOT
HETATM    1  C   UNL     1      42.553  -7.819  12.016  1.00  0.00     0.035 A 
HETATM    2  C   UNL     1      43.341  -8.966  12.111  1.00  0.00     0.030 A 
HETATM    3  C   UNL     1      44.114  -9.394  11.024  1.00  0.00     0.019 A 
HETATM    4  C   UNL     1      44.107  -8.668   9.829  1.00  0.00     0.032 A 
HETATM    5  C   UNL     1      43.282  -7.546   9.711  1.00  0.00     0.019 A 
HETATM    6  C   UNL     1      42.513  -7.123  10.800  1.00  0.00     0.030 A 
ENDROOT
BRANCH   4   7
HETATM    7  C   UNL     1      44.972  -9.041   8.677  1.00  0.00     0.251 C 
HETATM    8  N   UNL     1      44.892 -10.357   8.267  1.00  0.00    -0.357 N 
HETATM    9  H   UNL     1      44.470 -11.017   8.910  1.00  0.00     0.162 HD
HETATM   10  O   UNL     1      45.739  -8.222   8.186  1.00  0.00    -0.268 OA
BRANCH   8  11
HETATM   11  C   UNL     1      45.862 -10.894   7.331  1.00  0.00     0.127 C 
BRANCH  11  12
HETATM   12  C   UNL     1      45.235 -11.294   5.992  1.00  0.00     0.058 C 
BRANCH  12  13
HETATM   13  C   UNL     1      44.029 -12.203   6.109  1.00  0.00    -0.054 A 
HETATM   14  C   UNL     1      42.763 -11.793   5.662  1.00  0.00     0.046 A 
HETATM   15  C   UNL     1      41.651 -12.639   5.773  1.00  0.00     0.102 A 
HETATM   16  C   UNL     1      41.798 -13.909   6.365  1.00  0.00     0.101 A 
HETATM   17  C   UNL     1      43.057 -14.315   6.817  1.00  0.00     0.040 A 
HETATM   18  C   UNL     1      44.161 -13.469   6.690  1.00  0.00     0.010 A 
BRANCH  15  19
HETATM   19  O   UNL     1      40.385 -12.315   5.351  1.00  0.00    -0.353 OA
HETATM   20  C   UNL     1      39.777 -11.162   5.914  1.00  0.00     0.210 C 
ENDBRANCH  15  19
BRANCH  16  21
HETATM   21  O   UNL     1      40.661 -14.675   6.444  1.00  0.00    -0.353 OA
HETATM   22  C   UNL     1      40.737 -16.011   5.967  1.00  0.00     0.210 C 
ENDBRANCH  16  21
ENDBRANCH  12  13
ENDBRANCH  11  12
ENDBRANCH   8  11
ENDBRANCH   4   7
BRANCH   1  23
HETATM   23  N   UNL     1      41.802  -7.288  13.082  1.00  0.00    -0.322 N 
HETATM   24  C   UNL     1      40.714  -7.849  13.726  1.00  0.00     0.265 C 
HETATM   25  O   UNL     1      40.166  -8.896  13.399  1.00  0.00    -0.267 OA
HETATM   26  H   UNL     1      42.103  -6.390  13.449  1.00  0.00     0.169 HD
BRANCH  24  27
HETATM   27  C   UNL     1      40.230  -7.036  14.925  1.00  0.00     0.097 C 
HETATM   28  C   UNL     1      39.174  -6.191  14.821  1.00  0.00     0.064 C 
HETATM   29  C   UNL     1      38.342  -6.036  13.572  1.00  0.00     0.078 C 
HETATM   30  O   UNL     1      38.678  -5.390  15.839  1.00  0.00    -0.353 OA
HETATM   31  C   UNL     1      39.540  -5.149  16.949  1.00  0.00     0.185 C 
HETATM   32  C   UNL     1      39.999  -6.445  17.580  1.00  0.00     0.106 C 
HETATM   33  S   UNL     1      41.110  -7.279  16.422  1.00  0.00    -0.120 SA
ENDBRANCH  24  27
ENDBRANCH   1  23
TORSDOF 8
ENDMDL
MODEL 6
REMARK VINA RESULT:      -7.1      3.527     10.783
REMARK  8 active torsions:
REMARK  status: ('A' for Active; 'I' for Inactive)
REMARK    1  A    between atoms: C_7  and  C_8 
REMARK       I    between atoms: C_8  and  N_9 
REMARK    2  A    between atoms: N_9  and  C_10 
REMARK    3  A    between atoms: C_13  and  C_14 
REMARK       I    between atoms: C_14  and  N_15 
REMARK    4  A    between atoms: N_15  and  C_16 
REMARK    5  A    between atoms: C_16  and  C_17 
REMARK    6  A    between atoms: C_17  and  C_18 
REMARK    7  A    between atoms: C_20  and  O_21 
REMARK    8  A    between atoms: C_23  and  O_24 
ROOT
HETATM    1  C   UNL     1      42.612 -12.629   4.594  1.00  0.00     0.035 A 
HETATM    2  C   UNL     1      43.021 -13.514   5.592  1.00  0.00     0.030 A 
HETATM    3  C   UNL     1      43.625 -13.039   6.764  1.00  0.00     0.019 A 
HETATM    4  C   UNL     1      43.819 -11.666   6.946  1.00  0.00     0.032 A 
HETATM    5  C   UNL     1      43.456 -10.779   5.929  1.00  0.00     0.019 A 
HETATM    6  C   UNL     1      42.852 -11.259   4.762  1.00  0.00     0.030 A 
ENDROOT
BRANCH   4   7
HETATM    7  C   UNL     1      44.383 -11.112   8.207  1.00  0.00     0.251 C 
HETATM    8  N   UNL     1      43.472 -10.543   9.073  1.00  0.00    -0.357 N 
HETATM    9  H   UNL     1      42.559 -10.312   8.699  1.00  0.00     0.162 HD
HETATM   10  O   UNL     1      45.592 -11.124   8.403  1.00  0.00    -0.268 OA
BRANCH   8  11
HETATM   11  C   UNL     1      43.928  -9.753  10.203  1.00  0.00     0.127 C 
BRANCH  11  12
HETATM   12  C   UNL     1      43.303 -10.199  11.528  1.00  0.00     0.058 C 
BRANCH  12  13
HETATM   13  C   UNL     1      42.581  -9.103  12.284  1.00  0.00    -0.054 A 
HETATM   14  C   UNL     1      41.187  -8.962  12.207  1.00  0.00     0.046 A 
HETATM   15  C   UNL     1      40.525  -7.945  12.910  1.00  0.00     0.102 A 
HETATM   16  C   UNL     1      41.271  -7.034  13.682  1.00  0.00     0.101 A 
HETATM   17  C   UNL     1      42.660  -7.169  13.754  1.00  0.00     0.040 A 
HETATM   18  C   UNL     1      43.308  -8.194  13.060  1.00  0.00     0.010 A 
BRANCH  15  19
HETATM   19  O   UNL     1      39.166  -7.749  12.893  1.00  0.00    -0.353 OA
HETATM   20  C   UNL     1      38.576  -7.321  11.674  1.00  0.00     0.210 C 
ENDBRANCH  15  19
BRANCH  16  21
HETATM   21  O   UNL     1      40.552  -6.063  14.334  1.00  0.00    -0.353 OA
HETATM   22  C   UNL     1      41.282  -5.052  15.015  1.00  0.00     0.210 C 
ENDBRANCH  16  21
ENDBRANCH  12  13
ENDBRANCH  11  12
ENDBRANCH   8  11
ENDBRANCH   4   7
BRANCH   1  23
HETATM   23  N   UNL     1      41.939 -13.022   3.421  1.00  0.00    -0.322 N 
HETATM   24  C   UNL     1      40.576 -13.156   3.220  1.00  0.00     0.265 C 
HETATM   25  O   UNL     1      39.721 -13.030   4.090  1.00  0.00    -0.267 OA
HETATM   26  H   UNL     1      42.513 -13.209   2.606  1.00  0.00     0.169 HD
BRANCH  24  27
HETATM   27  C   UNL     1      40.203 -13.484   1.776  1.00  0.00     0.097 C 
HETATM   28  C   UNL     1      40.136 -14.768   1.341  1.00  0.00     0.064 C 
HETATM   29  C   UNL     1      40.333 -15.968   2.232  1.00  0.00     0.078 C 
HETATM   30  O   UNL     1      39.836 -15.166   0.047  1.00  0.00    -0.353 OA
HETATM   31  C   UNL     1      39.972 -14.184  -0.979  1.00  0.00     0.185 C 
HETATM   32  C   UNL     1      39.136 -12.959  -0.681  1.00  0.00     0.106 C 
HETATM   33  S   UNL     1      39.859 -12.109   0.742  1.00  0.00    -0.120 SA
ENDBRANCH  24  27
ENDBRANCH   1  23
TORSDOF 8
ENDMDL
MODEL 7
REMARK VINA RESULT:      -7.0      4.180      9.020
REMARK  8 active torsions:
REMARK  status: ('A' for Active; 'I' for Inactive)
REMARK    1  A    between atoms: C_7  and  C_8 
REMARK       I    between atoms: C_8  and  N_9 
REMARK    2  A    between atoms: N_9  and  C_10 
REMARK    3  A    between atoms: C_13  and  C_14 
REMARK       I    between atoms: C_14  and  N_15 
REMARK    4  A    between atoms: N_15  and  C_16 
REMARK    5  A    between atoms: C_16  and  C_17 
REMARK    6  A    between atoms: C_17  and  C_18 
REMARK    7  A    between atoms: C_20  and  O_21 
REMARK    8  A    between atoms: C_23  and  O_24 
ROOT
HETATM    1  C   UNL     1      40.918 -14.073   0.808  1.00  0.00     0.035 A 
HETATM    2  C   UNL     1      40.375 -15.330   1.077  1.00  0.00     0.030 A 
HETATM    3  C   UNL     1      40.924 -16.147   2.073  1.00  0.00     0.019 A 
HETATM    4  C   UNL     1      42.024 -15.707   2.814  1.00  0.00     0.032 A 
HETATM    5  C   UNL     1      42.603 -14.470   2.517  1.00  0.00     0.019 A 
HETATM    6  C   UNL     1      42.050 -13.657   1.522  1.00  0.00     0.030 A 
ENDROOT
BRANCH   4   7
HETATM    7  C   UNL     1      42.590 -16.508   3.934  1.00  0.00     0.251 C 
HETATM    8  N   UNL     1      41.867 -16.490   5.110  1.00  0.00    -0.357 N 
HETATM    9  H   UNL     1      41.173 -15.758   5.216  1.00  0.00     0.162 HD
HETATM   10  O   UNL     1      43.662 -17.086   3.804  1.00  0.00    -0.268 OA
BRANCH   8  11
HETATM   11  C   UNL     1      42.443 -17.019   6.333  1.00  0.00     0.127 C 
BRANCH  11  12
HETATM   12  C   UNL     1      42.778 -15.925   7.351  1.00  0.00     0.058 C 
BRANCH  12  13
HETATM   13  C   UNL     1      42.729 -14.515   6.800  1.00  0.00    -0.054 A 
HETATM   14  C   UNL     1      43.896 -13.750   6.656  1.00  0.00     0.046 A 
HETATM   15  C   UNL     1      43.844 -12.445   6.145  1.00  0.00     0.102 A 
HETATM   16  C   UNL     1      42.600 -11.883   5.798  1.00  0.00     0.101 A 
HETATM   17  C   UNL     1      41.436 -12.642   5.949  1.00  0.00     0.040 A 
HETATM   18  C   UNL     1      41.502 -13.946   6.446  1.00  0.00     0.010 A 
BRANCH  15  19
HETATM   19  O   UNL     1      44.940 -11.639   5.964  1.00  0.00    -0.353 OA
HETATM   20  C   UNL     1      45.642 -11.210   7.122  1.00  0.00     0.210 C 
ENDBRANCH  15  19
BRANCH  16  21
HETATM   21  O   UNL     1      42.631 -10.599   5.313  1.00  0.00    -0.353 OA
HETATM   22  C   UNL     1      42.234 -10.398   3.963  1.00  0.00     0.210 C 
ENDBRANCH  16  21
ENDBRANCH  12  13
ENDBRANCH  11  12
ENDBRANCH   8  11
ENDBRANCH   4   7
BRANCH   1  23
HETATM   23  N   UNL     1      40.384 -13.167  -0.128  1.00  0.00    -0.322 N 
HETATM   24  C   UNL     1      39.378 -12.236   0.060  1.00  0.00     0.265 C 
HETATM   25  O   UNL     1      38.717 -12.111   1.085  1.00  0.00    -0.267 OA
HETATM   26  H   UNL     1      40.797 -13.171  -1.055  1.00  0.00     0.169 HD
BRANCH  24  27
HETATM   27  C   UNL     1      39.145 -11.337  -1.153  1.00  0.00     0.097 C 
HETATM   28  C   UNL     1      38.321 -11.718  -2.163  1.00  0.00     0.064 C 
HETATM   29  C   UNL     1      37.510 -12.989  -2.151  1.00  0.00     0.078 C 
HETATM   30  O   UNL     1      38.069 -10.989  -3.315  1.00  0.00    -0.353 OA
HETATM   31  C   UNL     1      39.001  -9.962  -3.648  1.00  0.00     0.185 C 
HETATM   32  C   UNL     1      39.153  -8.971  -2.515  1.00  0.00     0.106 C 
HETATM   33  S   UNL     1      39.990  -9.801  -1.143  1.00  0.00    -0.120 SA
ENDBRANCH  24  27
ENDBRANCH   1  23
TORSDOF 8
ENDMDL
MODEL 8
REMARK VINA RESULT:      -6.9      2.729      3.393
REMARK  8 active torsions:
REMARK  status: ('A' for Active; 'I' for Inactive)
REMARK    1  A    between atoms: C_7  and  C_8 
REMARK       I    between atoms: C_8  and  N_9 
REMARK    2  A    between atoms: N_9  and  C_10 
REMARK    3  A    between atoms: C_13  and  C_14 
REMARK       I    between atoms: C_14  and  N_15 
REMARK    4  A    between atoms: N_15  and  C_16 
REMARK    5  A    between atoms: C_16  and  C_17 
REMARK    6  A    between atoms: C_17  and  C_18 
REMARK    7  A    between atoms: C_20  and  O_21 
REMARK    8  A    between atoms: C_23  and  O_24 
ROOT
HETATM    1  C   UNL     1      39.974 -10.069   6.504  1.00  0.00     0.035 A 
HETATM    2  C   UNL     1      38.962  -9.944   5.551  1.00  0.00     0.030 A 
HETATM    3  C   UNL     1      38.860 -10.855   4.493  1.00  0.00     0.019 A 
HETATM    4  C   UNL     1      39.774 -11.907   4.383  1.00  0.00     0.032 A 
HETATM    5  C   UNL     1      40.820 -12.009   5.305  1.00  0.00     0.019 A 
HETATM    6  C   UNL     1      40.915 -11.097   6.361  1.00  0.00     0.030 A 
ENDROOT
BRANCH   4   7
HETATM    7  C   UNL     1      39.658 -12.943   3.320  1.00  0.00     0.251 C 
HETATM    8  N   UNL     1      39.953 -14.235   3.707  1.00  0.00    -0.357 N 
HETATM    9  H   UNL     1      40.460 -14.354   4.576  1.00  0.00     0.162 HD
HETATM   10  O   UNL     1      39.374 -12.625   2.172  1.00  0.00    -0.268 OA
BRANCH   8  11
HETATM   11  C   UNL     1      40.119 -15.278   2.712  1.00  0.00     0.127 C 
BRANCH  11  12
HETATM   12  C   UNL     1      41.567 -15.413   2.231  1.00  0.00     0.058 C 
BRANCH  12  13
HETATM   13  C   UNL     1      42.380 -16.458   2.966  1.00  0.00    -0.054 A 
HETATM   14  C   UNL     1      42.885 -17.586   2.301  1.00  0.00     0.046 A 
HETATM   15  C   UNL     1      43.638 -18.550   2.987  1.00  0.00     0.102 A 
HETATM   16  C   UNL     1      43.867 -18.400   4.368  1.00  0.00     0.101 A 
HETATM   17  C   UNL     1      43.358 -17.281   5.032  1.00  0.00     0.040 A 
HETATM   18  C   UNL     1      42.622 -16.320   4.337  1.00  0.00     0.010 A 
BRANCH  15  19
HETATM   19  O   UNL     1      44.173 -19.673   2.406  1.00  0.00    -0.353 OA
HETATM   20  C   UNL     1      43.330 -20.446   1.563  1.00  0.00     0.210 C 
ENDBRANCH  15  19
BRANCH  16  21
HETATM   21  O   UNL     1      44.606 -19.390   4.970  1.00  0.00    -0.353 OA
HETATM   22  C   UNL     1      43.896 -20.423   5.639  1.00  0.00     0.210 C 
ENDBRANCH  16  21
ENDBRANCH  12  13
ENDBRANCH  11  12
ENDBRANCH   8  11
ENDBRANCH   4   7
BRANCH   1  23
HETATM   23  N   UNL     1      40.102  -9.236   7.631  1.00  0.00    -0.322 N 
HETATM   24  C   UNL     1      39.538  -9.399   8.885  1.00  0.00     0.265 C 
HETATM   25  O   UNL     1      38.744 -10.282   9.189  1.00  0.00    -0.267 OA
HETATM   26  H   UNL     1      40.700  -8.423   7.532  1.00  0.00     0.169 HD
BRANCH  24  27
HETATM   27  C   UNL     1      39.999  -8.356   9.901  1.00  0.00     0.097 C 
HETATM   28  C   UNL     1      41.212  -8.449  10.502  1.00  0.00     0.064 C 
HETATM   29  C   UNL     1      42.233  -9.509  10.175  1.00  0.00     0.078 C 
HETATM   30  O   UNL     1      41.708  -7.573  11.456  1.00  0.00    -0.353 OA
HETATM   31  C   UNL     1      40.762  -6.743  12.126  1.00  0.00     0.185 C 
HETATM   32  C   UNL     1      39.954  -5.925  11.142  1.00  0.00     0.106 C 
HETATM   33  S   UNL     1      38.876  -7.047  10.220  1.00  0.00    -0.120 SA
ENDBRANCH  24  27
ENDBRANCH   1  23
TORSDOF 8
ENDMDL
MODEL 9
REMARK VINA RESULT:      -6.9      1.752      2.097
REMARK  8 active torsions:
REMARK  status: ('A' for Active; 'I' for Inactive)
REMARK    1  A    between atoms: C_7  and  C_8 
REMARK       I    between atoms: C_8  and  N_9 
REMARK    2  A    between atoms: N_9  and  C_10 
REMARK    3  A    between atoms: C_13  and  C_14 
REMARK       I    between atoms: C_14  and  N_15 
REMARK    4  A    between atoms: N_15  and  C_16 
REMARK    5  A    between atoms: C_16  and  C_17 
REMARK    6  A    between atoms: C_17  and  C_18 
REMARK    7  A    between atoms: C_20  and  O_21 
REMARK    8  A    between atoms: C_23  and  O_24 
ROOT
HETATM    1  C   UNL     1      41.935 -10.584   6.643  1.00  0.00     0.035 A 
HETATM    2  C   UNL     1      43.087 -10.645   5.858  1.00  0.00     0.030 A 
HETATM    3  C   UNL     1      43.004 -10.921   4.488  1.00  0.00     0.019 A 
HETATM    4  C   UNL     1      41.759 -11.136   3.890  1.00  0.00     0.032 A 
HETATM    5  C   UNL     1      40.605 -11.125   4.680  1.00  0.00     0.019 A 
HETATM    6  C   UNL     1      40.694 -10.846   6.047  1.00  0.00     0.030 A 
ENDROOT
BRANCH   4   7
HETATM    7  C   UNL     1      41.616 -11.355   2.424  1.00  0.00     0.251 C 
HETATM    8  N   UNL     1      40.778 -12.386   2.050  1.00  0.00    -0.357 N 
HETATM    9  H   UNL     1      40.532 -13.064   2.762  1.00  0.00     0.162 HD
HETATM   10  O   UNL     1      42.263 -10.683   1.631  1.00  0.00    -0.268 OA
BRANCH   8  11
HETATM   11  C   UNL     1      40.758 -12.853   0.676  1.00  0.00     0.127 C 
BRANCH  11  12
HETATM   12  C   UNL     1      40.501 -14.359   0.566  1.00  0.00     0.058 C 
BRANCH  12  13
HETATM   13  C   UNL     1      41.227 -15.199   1.596  1.00  0.00    -0.054 A 
HETATM   14  C   UNL     1      40.625 -15.529   2.820  1.00  0.00     0.046 A 
HETATM   15  C   UNL     1      41.303 -16.308   3.769  1.00  0.00     0.102 A 
HETATM   16  C   UNL     1      42.617 -16.741   3.504  1.00  0.00     0.101 A 
HETATM   17  C   UNL     1      43.219 -16.406   2.288  1.00  0.00     0.040 A 
HETATM   18  C   UNL     1      42.530 -15.642   1.344  1.00  0.00     0.010 A 
BRANCH  15  19
HETATM   19  O   UNL     1      40.780 -16.680   4.982  1.00  0.00    -0.353 OA
HETATM   20  C   UNL     1      40.495 -15.654   5.922  1.00  0.00     0.210 C 
ENDBRANCH  15  19
BRANCH  16  21
HETATM   21  O   UNL     1      43.216 -17.492   4.486  1.00  0.00    -0.353 OA
HETATM   22  C   UNL     1      43.950 -18.638   4.079  1.00  0.00     0.210 C 
ENDBRANCH  16  21
ENDBRANCH  12  13
ENDBRANCH  11  12
ENDBRANCH   8  11
ENDBRANCH   4   7
BRANCH   1  23
HETATM   23  N   UNL     1      41.930 -10.246   8.010  1.00  0.00    -0.322 N 
HETATM   24  C   UNL     1      42.305  -9.050   8.597  1.00  0.00     0.265 C 
HETATM   25  O   UNL     1      42.795  -8.097   8.002  1.00  0.00    -0.267 OA
HETATM   26  H   UNL     1      41.588 -10.952   8.653  1.00  0.00     0.169 HD
BRANCH  24  27
HETATM   27  C   UNL     1      42.048  -9.004  10.102  1.00  0.00     0.097 C 
HETATM   28  C   UNL     1      42.961  -9.482  10.986  1.00  0.00     0.064 C 
HETATM   29  C   UNL     1      44.315 -10.014  10.590  1.00  0.00     0.078 C 
HETATM   30  O   UNL     1      42.809  -9.513  12.364  1.00  0.00    -0.353 OA
HETATM   31  C   UNL     1      41.482  -9.386  12.871  1.00  0.00     0.185 C 
HETATM   32  C   UNL     1      40.823  -8.118  12.375  1.00  0.00     0.106 C 
HETATM   33  S   UNL     1      40.526  -8.289  10.599  1.00  0.00    -0.120 SA
ENDBRANCH  24  27
ENDBRANCH   1  23
TORSDOF 8
ENDMDL
MODEL 10
REMARK VINA RESULT:      -6.9      2.996     11.113
REMARK  8 active torsions:
REMARK  status: ('A' for Active; 'I' for Inactive)
REMARK    1  A    between atoms: C_7  and  C_8 
REMARK       I    between atoms: C_8  and  N_9 
REMARK    2  A    between atoms: N_9  and  C_10 
REMARK    3  A    between atoms: C_13  and  C_14 
REMARK       I    between atoms: C_14  and  N_15 
REMARK    4  A    between atoms: N_15  and  C_16 
REMARK    5  A    between atoms: C_16  and  C_17 
REMARK    6  A    between atoms: C_17  and  C_18 
REMARK    7  A    between atoms: C_20  and  O_21 
REMARK    8  A    between atoms: C_23  and  O_24 
ROOT
HETATM    1  C   UNL     1      43.267 -13.384   5.704  1.00  0.00     0.035 A 
HETATM    2  C   UNL     1      44.179 -13.005   6.690  1.00  0.00     0.030 A 
HETATM    3  C   UNL     1      44.023 -11.796   7.380  1.00  0.00     0.019 A 
HETATM    4  C   UNL     1      42.945 -10.955   7.088  1.00  0.00     0.032 A 
HETATM    5  C   UNL     1      42.056 -11.305   6.067  1.00  0.00     0.019 A 
HETATM    6  C   UNL     1      42.216 -12.515   5.383  1.00  0.00     0.030 A 
ENDROOT
BRANCH   4   7
HETATM    7  C   UNL     1      42.697  -9.700   7.849  1.00  0.00     0.251 C 
HETATM    8  N   UNL     1      42.663  -9.829   9.223  1.00  0.00    -0.357 N 
HETATM    9  H   UNL     1      42.551 -10.763   9.598  1.00  0.00     0.162 HD
HETATM   10  O   UNL     1      42.481  -8.649   7.259  1.00  0.00    -0.268 OA
BRANCH   8  11
HETATM   11  C   UNL     1      42.183  -8.737  10.050  1.00  0.00     0.127 C 
BRANCH  11  12
HETATM   12  C   UNL     1      43.180  -8.338  11.142  1.00  0.00     0.058 C 
BRANCH  12  13
HETATM   13  C   UNL     1      42.549  -7.756  12.390  1.00  0.00    -0.054 A 
HETATM   14  C   UNL     1      41.210  -7.336  12.399  1.00  0.00     0.046 A 
HETATM   15  C   UNL     1      40.631  -6.798  13.558  1.00  0.00     0.102 A 
HETATM   16  C   UNL     1      41.411  -6.652  14.722  1.00  0.00     0.101 A 
HETATM   17  C   UNL     1      42.746  -7.064  14.711  1.00  0.00     0.040 A 
HETATM   18  C   UNL     1      43.309  -7.610  13.555  1.00  0.00     0.010 A 
BRANCH  15  19
HETATM   19  O   UNL     1      39.329  -6.375  13.649  1.00  0.00    -0.353 OA
HETATM   20  C   UNL     1      38.318  -7.232  13.137  1.00  0.00     0.210 C 
ENDBRANCH  15  19
BRANCH  16  21
HETATM   21  O   UNL     1      40.775  -6.111  15.811  1.00  0.00    -0.353 OA
HETATM   22  C   UNL     1      41.264  -4.873  16.309  1.00  0.00     0.210 C 
ENDBRANCH  16  21
ENDBRANCH  12  13
ENDBRANCH  11  12
ENDBRANCH   8  11
ENDBRANCH   4   7
BRANCH   1  23
HETATM   23  N   UNL     1      43.316 -14.611   5.015  1.00  0.00    -0.322 N 
HETATM   24  C   UNL     1      42.529 -15.732   5.206  1.00  0.00     0.265 C 
HETATM   25  O   UNL     1      41.693 -15.861   6.094  1.00  0.00    -0.267 OA
HETATM   26  H   UNL     1      43.996 -14.686   4.265  1.00  0.00     0.169 HD
BRANCH  24  27
HETATM   27  C   UNL     1      42.787 -16.839   4.187  1.00  0.00     0.097 C 
HETATM   28  C   UNL     1      42.073 -16.915   3.035  1.00  0.00     0.064 C 
HETATM   29  C   UNL     1      41.043 -15.896   2.617  1.00  0.00     0.078 C 
HETATM   30  O   UNL     1      42.211 -17.895   2.064  1.00  0.00    -0.353 OA
HETATM   31  C   UNL     1      42.865 -19.101   2.451  1.00  0.00     0.185 C 
HETATM   32  C   UNL     1      44.244 -18.824   3.008  1.00  0.00     0.106 C 
HETATM   33  S   UNL     1      44.057 -17.977   4.595  1.00  0.00    -0.120 SA
ENDBRANCH  24  27
ENDBRANCH   1  23
TORSDOF 8
ENDMDL
