MODEL 1
REMARK VINA RESULT:      -9.6      0.000      0.000
REMARK  5 active torsions:
REMARK  status: ('A' for Active; 'I' for Inactive)
REMARK    1  A    between atoms: C_2  and  N_3 
REMARK    2  A    between atoms: C_7  and  N_8 
REMARK       I    between atoms: N_8  and  C_9 
REMARK    3  A    between atoms: C_9  and  C_10 
REMARK    4  A    between atoms: C_10  and  C_11 
REMARK    5  A    between atoms: C_11  and  C_12 
ROOT
HETATM    1  C   UNL     1      40.177 -11.142   1.077  1.00  0.00    -0.028 A 
HETATM    2  C   UNL     1      41.139 -10.189   0.961  1.00  0.00     0.015 A 
HETATM    3  C   UNL     1      41.742  -9.663  -0.315  1.00  0.00     0.069 C 
HETATM    4  N   UNL     1      41.681  -9.619   2.094  1.00  0.00    -0.326 N 
HETATM    5  C   UNL     1      41.347  -9.923   3.383  1.00  0.00     0.266 A 
HETATM    6  O   UNL     1      41.882  -9.361   4.331  1.00  0.00    -0.267 OA
HETATM    7  C   UNL     1      40.312 -10.964   3.546  1.00  0.00     0.105 A 
HETATM    8  C   UNL     1      39.910 -11.320   4.969  1.00  0.00     0.026 C 
HETATM    9  N   UNL     1      39.578 -11.614   6.148  1.00  0.00    -0.096 N 
HETATM   10  C   UNL     1      39.754 -11.546   2.458  1.00  0.00    -0.029 A 
HETATM   11  C   UNL     1      38.699 -12.624   2.602  1.00  0.00     0.050 C 
HETATM   12  H   UNL     1      42.403  -8.911   2.012  1.00  0.00     0.169 HD
ENDROOT
BRANCH   1  13
HETATM   13  C   UNL     1      39.463 -11.877  -0.065  1.00  0.00     0.050 C 
BRANCH  13  14
HETATM   14  C   UNL     1      40.137 -13.022  -0.824  1.00  0.00     0.108 C 
BRANCH  14  15
HETATM   15  C   UNL     1      40.515 -14.164   0.107  1.00  0.00     0.222 C 
HETATM   16  N   UNL     1      41.651 -13.907   0.853  1.00  0.00    -0.327 N 
HETATM   17  H   UNL     1      42.141 -13.042   0.665  1.00  0.00     0.169 HD
HETATM   18  O   UNL     1      39.836 -15.186   0.135  1.00  0.00    -0.273 OA
BRANCH  16  19
HETATM   19  C   UNL     1      42.228 -14.728   1.847  1.00  0.00     0.035 A 
HETATM   20  C   UNL     1      42.456 -16.098   1.689  1.00  0.00     0.044 A 
HETATM   21  C   UNL     1      43.006 -16.857   2.750  1.00  0.00     0.005 A 
HETATM   22  C   UNL     1      43.331 -16.214   3.945  1.00  0.00     0.046 A 
HETATM   23  C   UNL     1      43.322 -18.244   2.904  1.00  0.00     0.003 A 
HETATM   24  N   UNL     1      43.844 -17.176   4.795  1.00  0.00    -0.346 N 
HETATM   25  C   UNL     1      43.124 -14.838   4.119  1.00  0.00     0.033 A 
HETATM   26  C   UNL     1      43.841 -18.420   4.189  1.00  0.00     0.046 A 
HETATM   27  C   UNL     1      44.253 -19.680   4.656  1.00  0.00     0.030 A 
HETATM   28  C   UNL     1      44.121 -20.778   3.801  1.00  0.00     0.002 A 
HETATM   29  C   UNL     1      43.603 -20.627   2.519  1.00  0.00     0.001 A 
HETATM   30  C   UNL     1      43.203 -19.368   2.060  1.00  0.00     0.014 A 
HETATM   31  C   UNL     1      42.561 -14.116   3.060  1.00  0.00     0.032 A 
BRANCH  24  32
HETATM   32  C   UNL     1      44.312 -16.925   6.149  1.00  0.00     0.125 C 
HETATM   33  C   UNL     1      43.185 -16.986   7.166  1.00  0.00     0.027 C 
ENDBRANCH  24  32
ENDBRANCH  16  19
ENDBRANCH  14  15
ENDBRANCH  13  14
ENDBRANCH   1  13
TORSDOF 5
ENDMDL
MODEL 2
REMARK VINA RESULT:      -9.5      4.134      6.286
REMARK  5 active torsions:
REMARK  status: ('A' for Active; 'I' for Inactive)
REMARK    1  A    between atoms: C_2  and  N_3 
REMARK    2  A    between atoms: C_7  and  N_8 
REMARK       I    between atoms: N_8  and  C_9 
REMARK    3  A    between atoms: C_9  and  C_10 
REMARK    4  A    between atoms: C_10  and  C_11 
REMARK    5  A    between atoms: C_11  and  C_12 
ROOT
HETATM    1  C   UNL     1      42.520  -9.374   8.780  1.00  0.00    -0.028 A 
HETATM    2  C   UNL     1      41.579  -9.312   7.802  1.00  0.00     0.015 A 
HETATM    3  C   UNL     1      41.816  -9.308   6.315  1.00  0.00     0.069 C 
HETATM    4  N   UNL     1      40.244  -9.217   8.139  1.00  0.00    -0.326 N 
HETATM    5  C   UNL     1      39.739  -9.171   9.407  1.00  0.00     0.266 A 
HETATM    6  O   UNL     1      38.533  -9.088   9.612  1.00  0.00    -0.267 OA
HETATM    7  C   UNL     1      40.737  -9.224  10.495  1.00  0.00     0.105 A 
HETATM    8  C   UNL     1      40.206  -9.184  11.919  1.00  0.00     0.026 C 
HETATM    9  N   UNL     1      39.766  -9.151  13.100  1.00  0.00    -0.096 N 
HETATM   10  C   UNL     1      42.056  -9.320  10.204  1.00  0.00    -0.029 A 
HETATM   11  C   UNL     1      43.098  -9.364  11.305  1.00  0.00     0.050 C 
HETATM   12  H   UNL     1      39.538  -9.165   7.413  1.00  0.00     0.169 HD
ENDROOT
BRANCH   1  13
HETATM   13  C   UNL     1      44.039  -9.486   8.592  1.00  0.00     0.050 C 
BRANCH  13  14
HETATM   14  C   UNL     1      44.759 -10.833   8.674  1.00  0.00     0.108 C 
BRANCH  14  15
HETATM   15  C   UNL     1      44.684 -11.589   7.356  1.00  0.00     0.222 C 
HETATM   16  N   UNL     1      43.622 -12.473   7.292  1.00  0.00    -0.327 N 
HETATM   17  H   UNL     1      43.057 -12.576   8.125  1.00  0.00     0.169 HD
HETATM   18  O   UNL     1      45.522 -11.387   6.482  1.00  0.00    -0.273 OA
BRANCH  16  19
HETATM   19  C   UNL     1      43.237 -13.274   6.194  1.00  0.00     0.035 A 
HETATM   20  C   UNL     1      43.649 -14.598   6.016  1.00  0.00     0.044 A 
HETATM   21  C   UNL     1      43.247 -15.322   4.867  1.00  0.00     0.005 A 
HETATM   22  C   UNL     1      42.423 -14.699   3.928  1.00  0.00     0.046 A 
HETATM   23  C   UNL     1      43.518 -16.645   4.395  1.00  0.00     0.003 A 
HETATM   24  N   UNL     1      42.186 -15.620   2.925  1.00  0.00    -0.346 N 
HETATM   25  C   UNL     1      41.987 -13.377   4.096  1.00  0.00     0.033 A 
HETATM   26  C   UNL     1      42.848 -16.807   3.181  1.00  0.00     0.046 A 
HETATM   27  C   UNL     1      42.912 -18.008   2.453  1.00  0.00     0.030 A 
HETATM   28  C   UNL     1      43.680 -19.055   2.971  1.00  0.00     0.002 A 
HETATM   29  C   UNL     1      44.359 -18.914   4.176  1.00  0.00     0.001 A 
HETATM   30  C   UNL     1      44.285 -17.718   4.897  1.00  0.00     0.014 A 
HETATM   31  C   UNL     1      42.416 -12.679   5.231  1.00  0.00     0.032 A 
BRANCH  24  32
HETATM   32  C   UNL     1      41.366 -15.374   1.749  1.00  0.00     0.125 C 
HETATM   33  C   UNL     1      39.907 -15.722   1.983  1.00  0.00     0.027 C 
ENDBRANCH  24  32
ENDBRANCH  16  19
ENDBRANCH  14  15
ENDBRANCH  13  14
ENDBRANCH   1  13
TORSDOF 5
ENDMDL
MODEL 3
REMARK VINA RESULT:      -9.3      3.695      6.116
REMARK  5 active torsions:
REMARK  status: ('A' for Active; 'I' for Inactive)
REMARK    1  A    between atoms: C_2  and  N_3 
REMARK    2  A    between atoms: C_7  and  N_8 
REMARK       I    between atoms: N_8  and  C_9 
REMARK    3  A    between atoms: C_9  and  C_10 
REMARK    4  A    between atoms: C_10  and  C_11 
REMARK    5  A    between atoms: C_11  and  C_12 
ROOT
HETATM    1  C   UNL     1      42.416  -9.349   8.876  1.00  0.00    -0.028 A 
HETATM    2  C   UNL     1      41.852  -9.340  10.112  1.00  0.00     0.015 A 
HETATM    3  C   UNL     1      42.555  -9.540  11.429  1.00  0.00     0.069 C 
HETATM    4  N   UNL     1      40.492  -9.155  10.244  1.00  0.00    -0.326 N 
HETATM    5  C   UNL     1      39.603  -8.977   9.222  1.00  0.00     0.266 A 
HETATM    6  O   UNL     1      38.408  -8.817   9.436  1.00  0.00    -0.267 OA
HETATM    7  C   UNL     1      40.182  -8.994   7.863  1.00  0.00     0.105 A 
HETATM    8  C   UNL     1      39.221  -8.790   6.703  1.00  0.00     0.026 C 
HETATM    9  N   UNL     1      38.424  -8.620   5.741  1.00  0.00    -0.096 N 
HETATM   10  C   UNL     1      41.514  -9.170   7.692  1.00  0.00    -0.029 A 
HETATM   11  C   UNL     1      42.126  -9.203   6.306  1.00  0.00     0.050 C 
HETATM   12  H   UNL     1      40.066  -9.152  11.164  1.00  0.00     0.169 HD
ENDROOT
BRANCH   1  13
HETATM   13  C   UNL     1      43.902  -9.536   8.541  1.00  0.00     0.050 C 
BRANCH  13  14
HETATM   14  C   UNL     1      44.593 -10.893   8.695  1.00  0.00     0.108 C 
BRANCH  14  15
HETATM   15  C   UNL     1      44.592 -11.674   7.390  1.00  0.00     0.222 C 
HETATM   16  N   UNL     1      43.489 -12.495   7.245  1.00  0.00    -0.327 N 
HETATM   17  H   UNL     1      42.845 -12.545   8.024  1.00  0.00     0.169 HD
HETATM   18  O   UNL     1      45.517 -11.542   6.593  1.00  0.00    -0.273 OA
BRANCH  16  19
HETATM   19  C   UNL     1      43.157 -13.298   6.131  1.00  0.00     0.035 A 
HETATM   20  C   UNL     1      43.569 -14.625   5.978  1.00  0.00     0.044 A 
HETATM   21  C   UNL     1      43.224 -15.350   4.812  1.00  0.00     0.005 A 
HETATM   22  C   UNL     1      42.454 -14.726   3.830  1.00  0.00     0.046 A 
HETATM   23  C   UNL     1      43.511 -16.676   4.360  1.00  0.00     0.003 A 
HETATM   24  N   UNL     1      42.264 -15.649   2.819  1.00  0.00    -0.346 N 
HETATM   25  C   UNL     1      42.018 -13.400   3.970  1.00  0.00     0.033 A 
HETATM   26  C   UNL     1      42.904 -16.839   3.113  1.00  0.00     0.046 A 
HETATM   27  C   UNL     1      42.998 -18.043   2.394  1.00  0.00     0.030 A 
HETATM   28  C   UNL     1      43.733 -19.092   2.954  1.00  0.00     0.002 A 
HETATM   29  C   UNL     1      44.349 -18.952   4.193  1.00  0.00     0.001 A 
HETATM   30  C   UNL     1      44.244 -17.752   4.904  1.00  0.00     0.014 A 
HETATM   31  C   UNL     1      42.391 -12.701   5.125  1.00  0.00     0.032 A 
BRANCH  24  32
HETATM   32  C   UNL     1      41.508 -15.402   1.601  1.00  0.00     0.125 C 
HETATM   33  C   UNL     1      40.042 -15.771   1.749  1.00  0.00     0.027 C 
ENDBRANCH  24  32
ENDBRANCH  16  19
ENDBRANCH  14  15
ENDBRANCH  13  14
ENDBRANCH   1  13
TORSDOF 5
ENDMDL
MODEL 4
REMARK VINA RESULT:      -9.3      2.168      3.734
REMARK  5 active torsions:
REMARK  status: ('A' for Active; 'I' for Inactive)
REMARK    1  A    between atoms: C_2  and  N_3 
REMARK    2  A    between atoms: C_7  and  N_8 
REMARK       I    between atoms: N_8  and  C_9 
REMARK    3  A    between atoms: C_9  and  C_10 
REMARK    4  A    between atoms: C_10  and  C_11 
REMARK    5  A    between atoms: C_11  and  C_12 
ROOT
HETATM    1  C   UNL     1      41.330 -10.477  -1.032  1.00  0.00    -0.028 A 
HETATM    2  C   UNL     1      41.661  -9.849   0.127  1.00  0.00     0.015 A 
HETATM    3  C   UNL     1      41.816 -10.479   1.486  1.00  0.00     0.069 C 
HETATM    4  N   UNL     1      41.870  -8.486   0.134  1.00  0.00    -0.326 N 
HETATM    5  C   UNL     1      41.770  -7.654  -0.945  1.00  0.00     0.266 A 
HETATM    6  O   UNL     1      41.976  -6.450  -0.845  1.00  0.00    -0.267 OA
HETATM    7  C   UNL     1      41.399  -8.303  -2.220  1.00  0.00     0.105 A 
HETATM    8  C   UNL     1      41.288  -7.406  -3.443  1.00  0.00     0.026 C 
HETATM    9  N   UNL     1      41.197  -6.662  -4.456  1.00  0.00    -0.096 N 
HETATM   10  C   UNL     1      41.189  -9.640  -2.267  1.00  0.00    -0.029 A 
HETATM   11  C   UNL     1      40.796 -10.324  -3.562  1.00  0.00     0.050 C 
HETATM   12  H   UNL     1      42.112  -8.012   0.996  1.00  0.00     0.169 HD
ENDROOT
BRANCH   1  13
HETATM   13  C   UNL     1      41.067 -11.977  -1.226  1.00  0.00     0.050 C 
BRANCH  13  14
HETATM   14  C   UNL     1      39.830 -12.655  -0.636  1.00  0.00     0.108 C 
BRANCH  14  15
HETATM   15  C   UNL     1      40.164 -13.421   0.636  1.00  0.00     0.222 C 
HETATM   16  N   UNL     1      41.414 -14.012   0.606  1.00  0.00    -0.327 N 
HETATM   17  H   UNL     1      41.940 -13.936  -0.256  1.00  0.00     0.169 HD
HETATM   18  O   UNL     1      39.353 -13.471   1.556  1.00  0.00    -0.273 OA
BRANCH  16  19
HETATM   19  C   UNL     1      42.048 -14.734   1.641  1.00  0.00     0.035 A 
HETATM   20  C   UNL     1      42.301 -16.108   1.590  1.00  0.00     0.044 A 
HETATM   21  C   UNL     1      42.908 -16.764   2.688  1.00  0.00     0.005 A 
HETATM   22  C   UNL     1      43.263 -16.016   3.811  1.00  0.00     0.046 A 
HETATM   23  C   UNL     1      43.261 -18.126   2.944  1.00  0.00     0.003 A 
HETATM   24  N   UNL     1      43.830 -16.893   4.717  1.00  0.00    -0.346 N 
HETATM   25  C   UNL     1      43.032 -14.635   3.877  1.00  0.00     0.033 A 
HETATM   26  C   UNL     1      43.833 -18.183   4.217  1.00  0.00     0.046 A 
HETATM   27  C   UNL     1      44.290 -19.390   4.772  1.00  0.00     0.030 A 
HETATM   28  C   UNL     1      44.152 -20.559   4.017  1.00  0.00     0.002 A 
HETATM   29  C   UNL     1      43.582 -20.527   2.749  1.00  0.00     0.001 A 
HETATM   30  C   UNL     1      43.136 -19.320   2.202  1.00  0.00     0.014 A 
HETATM   31  C   UNL     1      42.412 -14.016   2.785  1.00  0.00     0.032 A 
BRANCH  24  32
HETATM   32  C   UNL     1      44.343 -16.519   6.025  1.00  0.00     0.125 C 
HETATM   33  C   UNL     1      43.279 -16.606   7.106  1.00  0.00     0.027 C 
ENDBRANCH  24  32
ENDBRANCH  16  19
ENDBRANCH  14  15
ENDBRANCH  13  14
ENDBRANCH   1  13
TORSDOF 5
ENDMDL
MODEL 5
REMARK VINA RESULT:      -9.2      5.550      7.518
REMARK  5 active torsions:
REMARK  status: ('A' for Active; 'I' for Inactive)
REMARK    1  A    between atoms: C_2  and  N_3 
REMARK    2  A    between atoms: C_7  and  N_8 
REMARK       I    between atoms: N_8  and  C_9 
REMARK    3  A    between atoms: C_9  and  C_10 
REMARK    4  A    between atoms: C_10  and  C_11 
REMARK    5  A    between atoms: C_11  and  C_12 
ROOT
HETATM    1  C   UNL     1      43.285  -9.080  10.496  1.00  0.00    -0.028 A 
HETATM    2  C   UNL     1      43.227  -7.828   9.971  1.00  0.00     0.015 A 
HETATM    3  C   UNL     1      43.613  -7.413   8.575  1.00  0.00     0.069 C 
HETATM    4  N   UNL     1      42.800  -6.775  10.752  1.00  0.00    -0.326 N 
HETATM    5  C   UNL     1      42.415  -6.851  12.060  1.00  0.00     0.266 A 
HETATM    6  O   UNL     1      42.046  -5.859  12.677  1.00  0.00    -0.267 OA
HETATM    7  C   UNL     1      42.477  -8.197  12.666  1.00  0.00     0.105 A 
HETATM    8  C   UNL     1      42.047  -8.319  14.120  1.00  0.00     0.026 C 
HETATM    9  N   UNL     1      41.690  -8.419  15.324  1.00  0.00    -0.096 N 
HETATM   10  C   UNL     1      42.889  -9.257  11.931  1.00  0.00    -0.029 A 
HETATM   11  C   UNL     1      42.972 -10.644  12.537  1.00  0.00     0.050 C 
HETATM   12  H   UNL     1      42.759  -5.838  10.366  1.00  0.00     0.169 HD
ENDROOT
BRANCH   1  13
HETATM   13  C   UNL     1      43.728 -10.362   9.778  1.00  0.00     0.050 C 
BRANCH  13  14
HETATM   14  C   UNL     1      45.077 -10.453   9.062  1.00  0.00     0.108 C 
BRANCH  14  15
HETATM   15  C   UNL     1      44.969 -11.236   7.762  1.00  0.00     0.222 C 
HETATM   16  N   UNL     1      43.822 -12.004   7.680  1.00  0.00    -0.327 N 
HETATM   17  H   UNL     1      43.220 -12.023   8.493  1.00  0.00     0.169 HD
HETATM   18  O   UNL     1      45.854 -11.148   6.916  1.00  0.00    -0.273 OA
BRANCH  16  19
HETATM   19  C   UNL     1      43.393 -12.793   6.589  1.00  0.00     0.035 A 
HETATM   20  C   UNL     1      43.778 -14.122   6.391  1.00  0.00     0.044 A 
HETATM   21  C   UNL     1      43.333 -14.832   5.250  1.00  0.00     0.005 A 
HETATM   22  C   UNL     1      42.492 -14.190   4.339  1.00  0.00     0.046 A 
HETATM   23  C   UNL     1      43.569 -16.156   4.763  1.00  0.00     0.003 A 
HETATM   24  N   UNL     1      42.212 -15.101   3.337  1.00  0.00    -0.346 N 
HETATM   25  C   UNL     1      42.082 -12.862   4.527  1.00  0.00     0.033 A 
HETATM   26  C   UNL     1      42.862 -16.300   3.568  1.00  0.00     0.046 A 
HETATM   27  C   UNL     1      42.886 -17.497   2.831  1.00  0.00     0.030 A 
HETATM   28  C   UNL     1      43.652 -18.559   3.320  1.00  0.00     0.002 A 
HETATM   29  C   UNL     1      44.368 -18.437   4.507  1.00  0.00     0.001 A 
HETATM   30  C   UNL     1      44.332 -17.244   5.236  1.00  0.00     0.014 A 
HETATM   31  C   UNL     1      42.554 -12.178   5.653  1.00  0.00     0.032 A 
BRANCH  24  32
HETATM   32  C   UNL     1      41.363 -14.835   2.187  1.00  0.00     0.125 C 
HETATM   33  C   UNL     1      39.921 -15.245   2.430  1.00  0.00     0.027 C 
ENDBRANCH  24  32
ENDBRANCH  16  19
ENDBRANCH  14  15
ENDBRANCH  13  14
ENDBRANCH   1  13
TORSDOF 5
ENDMDL
MODEL 6
REMARK VINA RESULT:      -9.2      5.221      7.296
REMARK  5 active torsions:
REMARK  status: ('A' for Active; 'I' for Inactive)
REMARK    1  A    between atoms: C_2  and  N_3 
REMARK    2  A    between atoms: C_7  and  N_8 
REMARK       I    between atoms: N_8  and  C_9 
REMARK    3  A    between atoms: C_9  and  C_10 
REMARK    4  A    between atoms: C_10  and  C_11 
REMARK    5  A    between atoms: C_11  and  C_12 
ROOT
HETATM    1  C   UNL     1      43.243  -9.297  10.172  1.00  0.00    -0.028 A 
HETATM    2  C   UNL     1      43.278  -9.665  11.480  1.00  0.00     0.015 A 
HETATM    3  C   UNL     1      43.511 -11.050  12.025  1.00  0.00     0.069 C 
HETATM    4  N   UNL     1      43.064  -8.723  12.464  1.00  0.00    -0.326 N 
HETATM    5  C   UNL     1      42.801  -7.397  12.263  1.00  0.00     0.266 A 
HETATM    6  O   UNL     1      42.626  -6.631  13.202  1.00  0.00    -0.267 OA
HETATM    7  C   UNL     1      42.744  -6.966  10.851  1.00  0.00     0.105 A 
HETATM    8  C   UNL     1      42.462  -5.494  10.592  1.00  0.00     0.026 C 
HETATM    9  N   UNL     1      42.229  -4.274  10.378  1.00  0.00    -0.096 N 
HETATM   10  C   UNL     1      42.951  -7.861   9.856  1.00  0.00    -0.029 A 
HETATM   11  C   UNL     1      42.885  -7.441   8.401  1.00  0.00     0.050 C 
HETATM   12  H   UNL     1      43.085  -8.993  13.441  1.00  0.00     0.169 HD
ENDROOT
BRANCH   1  13
HETATM   13  C   UNL     1      43.461 -10.202   8.953  1.00  0.00     0.050 C 
BRANCH  13  14
HETATM   14  C   UNL     1      44.852 -10.717   8.577  1.00  0.00     0.108 C 
BRANCH  14  15
HETATM   15  C   UNL     1      44.815 -11.557   7.309  1.00  0.00     0.222 C 
HETATM   16  N   UNL     1      43.659 -12.307   7.184  1.00  0.00    -0.327 N 
HETATM   17  H   UNL     1      43.004 -12.277   7.954  1.00  0.00     0.169 HD
HETATM   18  O   UNL     1      45.756 -11.525   6.522  1.00  0.00    -0.273 OA
BRANCH  16  19
HETATM   19  C   UNL     1      43.288 -13.136   6.103  1.00  0.00     0.035 A 
HETATM   20  C   UNL     1      43.677 -14.473   5.978  1.00  0.00     0.044 A 
HETATM   21  C   UNL     1      43.292 -15.227   4.843  1.00  0.00     0.005 A 
HETATM   22  C   UNL     1      42.505 -14.620   3.863  1.00  0.00     0.046 A 
HETATM   23  C   UNL     1      43.548 -16.570   4.422  1.00  0.00     0.003 A 
HETATM   24  N   UNL     1      42.277 -15.568   2.883  1.00  0.00    -0.346 N 
HETATM   25  C   UNL     1      42.092 -13.284   3.975  1.00  0.00     0.033 A 
HETATM   26  C   UNL     1      42.908 -16.759   3.196  1.00  0.00     0.046 A 
HETATM   27  C   UNL     1      42.967 -17.984   2.510  1.00  0.00     0.030 A 
HETATM   28  C   UNL     1      43.701 -19.028   3.082  1.00  0.00     0.002 A 
HETATM   29  C   UNL     1      44.350 -18.861   4.300  1.00  0.00     0.001 A 
HETATM   30  C   UNL     1      44.280 -17.640   4.979  1.00  0.00     0.014 A 
HETATM   31  C   UNL     1      42.504 -12.558   5.099  1.00  0.00     0.032 A 
BRANCH  24  32
HETATM   32  C   UNL     1      41.493 -15.346   1.678  1.00  0.00     0.125 C 
HETATM   33  C   UNL     1      40.034 -15.722   1.864  1.00  0.00     0.027 C 
ENDBRANCH  24  32
ENDBRANCH  16  19
ENDBRANCH  14  15
ENDBRANCH  13  14
ENDBRANCH   1  13
TORSDOF 5
ENDMDL
MODEL 7
REMARK VINA RESULT:      -9.2      2.648      8.811
REMARK  5 active torsions:
REMARK  status: ('A' for Active; 'I' for Inactive)
REMARK    1  A    between atoms: C_2  and  N_3 
REMARK    2  A    between atoms: C_7  and  N_8 
REMARK       I    between atoms: N_8  and  C_9 
REMARK    3  A    between atoms: C_9  and  C_10 
REMARK    4  A    between atoms: C_10  and  C_11 
REMARK    5  A    between atoms: C_11  and  C_12 
ROOT
HETATM    1  C   UNL     1      43.445 -16.729   4.901  1.00  0.00    -0.028 A 
HETATM    2  C   UNL     1      43.648 -17.335   6.100  1.00  0.00     0.015 A 
HETATM    3  C   UNL     1      43.690 -16.676   7.453  1.00  0.00     0.069 C 
HETATM    4  N   UNL     1      43.869 -18.696   6.152  1.00  0.00    -0.326 N 
HETATM    5  C   UNL     1      43.914 -19.543   5.081  1.00  0.00     0.266 A 
HETATM    6  O   UNL     1      44.114 -20.743   5.224  1.00  0.00    -0.267 OA
HETATM    7  C   UNL     1      43.709 -18.913   3.760  1.00  0.00     0.105 A 
HETATM    8  C   UNL     1      43.744 -19.830   2.548  1.00  0.00     0.026 C 
HETATM    9  N   UNL     1      43.773 -20.590   1.543  1.00  0.00    -0.096 N 
HETATM   10  C   UNL     1      43.487 -17.581   3.668  1.00  0.00    -0.029 A 
HETATM   11  C   UNL     1      43.287 -16.913   2.322  1.00  0.00     0.050 C 
HETATM   12  H   UNL     1      44.025 -19.153   7.044  1.00  0.00     0.169 HD
ENDROOT
BRANCH   1  13
HETATM   13  C   UNL     1      43.183 -15.237   4.655  1.00  0.00     0.050 C 
BRANCH  13  14
HETATM   14  C   UNL     1      41.903 -14.558   5.147  1.00  0.00     0.108 C 
BRANCH  14  15
HETATM   15  C   UNL     1      41.092 -13.989   3.992  1.00  0.00     0.222 C 
HETATM   16  N   UNL     1      41.675 -14.204   2.756  1.00  0.00    -0.327 N 
HETATM   17  H   UNL     1      42.586 -14.644   2.746  1.00  0.00     0.169 HD
HETATM   18  O   UNL     1      40.035 -13.404   4.212  1.00  0.00    -0.273 OA
BRANCH  16  19
HETATM   19  C   UNL     1      41.152 -13.861   1.490  1.00  0.00     0.035 A 
HETATM   20  C   UNL     1      41.396 -12.641   0.852  1.00  0.00     0.044 A 
HETATM   21  C   UNL     1      40.803 -12.361  -0.403  1.00  0.00     0.005 A 
HETATM   22  C   UNL     1      39.989 -13.325  -0.998  1.00  0.00     0.046 A 
HETATM   23  C   UNL     1      40.834 -11.224  -1.272  1.00  0.00     0.003 A 
HETATM   24  N   UNL     1      39.551 -12.799  -2.199  1.00  0.00    -0.346 N 
HETATM   25  C   UNL     1      39.744 -14.561  -0.382  1.00  0.00     0.033 A 
HETATM   26  C   UNL     1      40.044 -11.520  -2.384  1.00  0.00     0.046 A 
HETATM   27  C   UNL     1      39.866 -10.601  -3.433  1.00  0.00     0.030 A 
HETATM   28  C   UNL     1      40.498  -9.358  -3.337  1.00  0.00     0.002 A 
HETATM   29  C   UNL     1      41.287  -9.040  -2.237  1.00  0.00     0.001 A 
HETATM   30  C   UNL     1      41.464  -9.963  -1.201  1.00  0.00     0.014 A 
HETATM   31  C   UNL     1      40.327 -14.803   0.868  1.00  0.00     0.032 A 
BRANCH  24  32
HETATM   32  C   UNL     1      38.678 -13.486  -3.137  1.00  0.00     0.125 C 
HETATM   33  C   UNL     1      37.209 -13.288  -2.806  1.00  0.00     0.027 C 
ENDBRANCH  24  32
ENDBRANCH  16  19
ENDBRANCH  14  15
ENDBRANCH  13  14
ENDBRANCH   1  13
TORSDOF 5
ENDMDL
MODEL 8
REMARK VINA RESULT:      -9.0      3.149      4.663
REMARK  5 active torsions:
REMARK  status: ('A' for Active; 'I' for Inactive)
REMARK    1  A    between atoms: C_2  and  N_3 
REMARK    2  A    between atoms: C_7  and  N_8 
REMARK       I    between atoms: N_8  and  C_9 
REMARK    3  A    between atoms: C_9  and  C_10 
REMARK    4  A    between atoms: C_10  and  C_11 
REMARK    5  A    between atoms: C_11  and  C_12 
ROOT
HETATM    1  C   UNL     1      37.930 -11.846  -1.708  1.00  0.00    -0.028 A 
HETATM    2  C   UNL     1      37.604 -12.871  -2.538  1.00  0.00     0.015 A 
HETATM    3  C   UNL     1      38.328 -14.183  -2.685  1.00  0.00     0.069 C 
HETATM    4  N   UNL     1      36.517 -12.754  -3.379  1.00  0.00    -0.326 N 
HETATM    5  C   UNL     1      35.695 -11.667  -3.481  1.00  0.00     0.266 A 
HETATM    6  O   UNL     1      34.748 -11.653  -4.258  1.00  0.00    -0.267 OA
HETATM    7  C   UNL     1      36.030 -10.529  -2.600  1.00  0.00     0.105 A 
HETATM    8  C   UNL     1      35.129  -9.307  -2.683  1.00  0.00     0.026 C 
HETATM    9  N   UNL     1      34.382  -8.294  -2.751  1.00  0.00    -0.096 N 
HETATM   10  C   UNL     1      37.087 -10.607  -1.759  1.00  0.00    -0.029 A 
HETATM   11  C   UNL     1      37.455  -9.447  -0.855  1.00  0.00     0.050 C 
HETATM   12  H   UNL     1      36.272 -13.514  -4.004  1.00  0.00     0.169 HD
ENDROOT
BRANCH   1  13
HETATM   13  C   UNL     1      39.094 -11.803  -0.709  1.00  0.00     0.050 C 
BRANCH  13  14
HETATM   14  C   UNL     1      40.317 -12.708  -0.865  1.00  0.00     0.108 C 
BRANCH  14  15
HETATM   15  C   UNL     1      40.507 -13.608   0.347  1.00  0.00     0.222 C 
HETATM   16  N   UNL     1      41.828 -13.953   0.570  1.00  0.00    -0.327 N 
HETATM   17  H   UNL     1      42.508 -13.638  -0.110  1.00  0.00     0.169 HD
HETATM   18  O   UNL     1      39.537 -13.958   1.012  1.00  0.00    -0.273 OA
BRANCH  16  19
HETATM   19  C   UNL     1      42.347 -14.717   1.639  1.00  0.00     0.035 A 
HETATM   20  C   UNL     1      42.569 -16.096   1.573  1.00  0.00     0.044 A 
HETATM   21  C   UNL     1      43.058 -16.794   2.704  1.00  0.00     0.005 A 
HETATM   22  C   UNL     1      43.329 -16.084   3.873  1.00  0.00     0.046 A 
HETATM   23  C   UNL     1      43.352 -18.172   2.955  1.00  0.00     0.003 A 
HETATM   24  N   UNL     1      43.790 -16.998   4.803  1.00  0.00    -0.346 N 
HETATM   25  C   UNL     1      43.128 -14.699   3.955  1.00  0.00     0.033 A 
HETATM   26  C   UNL     1      43.805 -18.275   4.271  1.00  0.00     0.046 A 
HETATM   27  C   UNL     1      44.180 -19.508   4.833  1.00  0.00     0.030 A 
HETATM   28  C   UNL     1      44.080 -20.654   4.038  1.00  0.00     0.002 A 
HETATM   29  C   UNL     1      43.628 -20.575   2.725  1.00  0.00     0.001 A 
HETATM   30  C   UNL     1      43.264 -19.343   2.173  1.00  0.00     0.014 A 
HETATM   31  C   UNL     1      42.625 -14.037   2.829  1.00  0.00     0.032 A 
BRANCH  24  32
HETATM   32  C   UNL     1      44.192 -16.669   6.162  1.00  0.00     0.125 C 
HETATM   33  C   UNL     1      43.004 -16.558   7.101  1.00  0.00     0.027 C 
ENDBRANCH  24  32
ENDBRANCH  16  19
ENDBRANCH  14  15
ENDBRANCH  13  14
ENDBRANCH   1  13
TORSDOF 5
ENDMDL
MODEL 9
REMARK VINA RESULT:      -9.0      2.743      4.255
REMARK  5 active torsions:
REMARK  status: ('A' for Active; 'I' for Inactive)
REMARK    1  A    between atoms: C_2  and  N_3 
REMARK    2  A    between atoms: C_7  and  N_8 
REMARK       I    between atoms: N_8  and  C_9 
REMARK    3  A    between atoms: C_9  and  C_10 
REMARK    4  A    between atoms: C_10  and  C_11 
REMARK    5  A    between atoms: C_11  and  C_12 
ROOT
HETATM    1  C   UNL     1      38.876 -11.580  -1.726  1.00  0.00    -0.028 A 
HETATM    2  C   UNL     1      37.830 -11.831  -2.555  1.00  0.00     0.015 A 
HETATM    3  C   UNL     1      37.005 -13.089  -2.618  1.00  0.00     0.069 C 
HETATM    4  N   UNL     1      37.444 -10.882  -3.480  1.00  0.00    -0.326 N 
HETATM    5  C   UNL     1      38.027  -9.661  -3.667  1.00  0.00     0.266 A 
HETATM    6  O   UNL     1      37.614  -8.879  -4.514  1.00  0.00    -0.267 OA
HETATM    7  C   UNL     1      39.177  -9.362  -2.789  1.00  0.00     0.105 A 
HETATM    8  C   UNL     1      39.844  -8.007  -2.966  1.00  0.00     0.026 C 
HETATM    9  N   UNL     1      40.396  -6.883  -3.113  1.00  0.00    -0.096 N 
HETATM   10  C   UNL     1      39.584 -10.266  -1.867  1.00  0.00    -0.029 A 
HETATM   11  C   UNL     1      40.768  -9.984  -0.965  1.00  0.00     0.050 C 
HETATM   12  H   UNL     1      36.667 -11.066  -4.104  1.00  0.00     0.169 HD
ENDROOT
BRANCH   1  13
HETATM   13  C   UNL     1      39.437 -12.511  -0.642  1.00  0.00     0.050 C 
BRANCH  13  14
HETATM   14  C   UNL     1      40.512 -13.552  -0.960  1.00  0.00     0.108 C 
BRANCH  14  15
HETATM   15  C   UNL     1      40.714 -14.519   0.197  1.00  0.00     0.222 C 
HETATM   16  N   UNL     1      41.975 -14.442   0.760  1.00  0.00    -0.327 N 
HETATM   17  H   UNL     1      42.640 -13.818   0.321  1.00  0.00     0.169 HD
HETATM   18  O   UNL     1      39.805 -15.270   0.538  1.00  0.00    -0.273 OA
BRANCH  16  19
HETATM   19  C   UNL     1      42.460 -15.152   1.881  1.00  0.00     0.035 A 
HETATM   20  C   UNL     1      42.729 -16.524   1.875  1.00  0.00     0.044 A 
HETATM   21  C   UNL     1      43.178 -17.169   3.053  1.00  0.00     0.005 A 
HETATM   22  C   UNL     1      43.363 -16.411   4.210  1.00  0.00     0.046 A 
HETATM   23  C   UNL     1      43.503 -18.526   3.367  1.00  0.00     0.003 A 
HETATM   24  N   UNL     1      43.802 -17.278   5.194  1.00  0.00    -0.346 N 
HETATM   25  C   UNL     1      43.114 -15.032   4.233  1.00  0.00     0.033 A 
HETATM   26  C   UNL     1      43.887 -18.571   4.708  1.00  0.00     0.046 A 
HETATM   27  C   UNL     1      44.270 -19.771   5.331  1.00  0.00     0.030 A 
HETATM   28  C   UNL     1      44.250 -20.945   4.572  1.00  0.00     0.002 A 
HETATM   29  C   UNL     1      43.867 -20.925   3.235  1.00  0.00     0.001 A 
HETATM   30  C   UNL     1      43.494 -19.725   2.622  1.00  0.00     0.014 A 
HETATM   31  C   UNL     1      42.651 -14.425   3.060  1.00  0.00     0.032 A 
BRANCH  24  32
HETATM   32  C   UNL     1      44.119 -16.892   6.560  1.00  0.00     0.125 C 
HETATM   33  C   UNL     1      42.907 -16.356   7.301  1.00  0.00     0.027 C 
ENDBRANCH  24  32
ENDBRANCH  16  19
ENDBRANCH  14  15
ENDBRANCH  13  14
ENDBRANCH   1  13
TORSDOF 5
ENDMDL
MODEL 10
REMARK VINA RESULT:      -8.8      3.174      4.280
REMARK  5 active torsions:
REMARK  status: ('A' for Active; 'I' for Inactive)
REMARK    1  A    between atoms: C_2  and  N_3 
REMARK    2  A    between atoms: C_7  and  N_8 
REMARK       I    between atoms: N_8  and  C_9 
REMARK    3  A    between atoms: C_9  and  C_10 
REMARK    4  A    between atoms: C_10  and  C_11 
REMARK    5  A    between atoms: C_11  and  C_12 
ROOT
HETATM    1  C   UNL     1      38.250 -11.343  -1.482  1.00  0.00    -0.028 A 
HETATM    2  C   UNL     1      38.713 -10.121  -1.112  1.00  0.00     0.015 A 
HETATM    3  C   UNL     1      39.763  -9.827  -0.073  1.00  0.00     0.069 C 
HETATM    4  N   UNL     1      38.193  -8.984  -1.694  1.00  0.00    -0.326 N 
HETATM    5  C   UNL     1      37.211  -8.946  -2.644  1.00  0.00     0.266 A 
HETATM    6  O   UNL     1      36.812  -7.885  -3.107  1.00  0.00    -0.267 OA
HETATM    7  C   UNL     1      36.676 -10.258  -3.061  1.00  0.00     0.105 A 
HETATM    8  C   UNL     1      35.588 -10.252  -4.123  1.00  0.00     0.026 C 
HETATM    9  N   UNL     1      34.687 -10.246  -5.004  1.00  0.00    -0.096 N 
HETATM   10  C   UNL     1      37.163 -11.397  -2.514  1.00  0.00    -0.029 A 
HETATM   11  C   UNL     1      36.620 -12.753  -2.919  1.00  0.00     0.050 C 
HETATM   12  H   UNL     1      38.532  -8.069  -1.417  1.00  0.00     0.169 HD
ENDROOT
BRANCH   1  13
HETATM   13  C   UNL     1      38.711 -12.706  -0.949  1.00  0.00     0.050 C 
BRANCH  13  14
HETATM   14  C   UNL     1      40.174 -13.145  -1.035  1.00  0.00     0.108 C 
BRANCH  14  15
HETATM   15  C   UNL     1      40.498 -14.220  -0.008  1.00  0.00     0.222 C 
HETATM   16  N   UNL     1      41.696 -14.004   0.649  1.00  0.00    -0.327 N 
HETATM   17  H   UNL     1      42.253 -13.215   0.347  1.00  0.00     0.169 HD
HETATM   18  O   UNL     1      39.728 -15.160   0.162  1.00  0.00    -0.273 OA
BRANCH  16  19
HETATM   19  C   UNL     1      42.251 -14.774   1.696  1.00  0.00     0.035 A 
HETATM   20  C   UNL     1      42.494 -16.148   1.606  1.00  0.00     0.044 A 
HETATM   21  C   UNL     1      43.020 -16.853   2.715  1.00  0.00     0.005 A 
HETATM   22  C   UNL     1      43.306 -16.154   3.888  1.00  0.00     0.046 A 
HETATM   23  C   UNL     1      43.342 -18.229   2.941  1.00  0.00     0.003 A 
HETATM   24  N   UNL     1      43.803 -17.072   4.795  1.00  0.00    -0.346 N 
HETATM   25  C   UNL     1      43.084 -14.774   3.994  1.00  0.00     0.033 A 
HETATM   26  C   UNL     1      43.826 -18.342   4.246  1.00  0.00     0.046 A 
HETATM   27  C   UNL     1      44.234 -19.576   4.781  1.00  0.00     0.030 A 
HETATM   28  C   UNL     1      44.135 -20.713   3.973  1.00  0.00     0.002 A 
HETATM   29  C   UNL     1      43.652 -20.624   2.672  1.00  0.00     0.001 A 
HETATM   30  C   UNL     1      43.255 -19.391   2.145  1.00  0.00     0.014 A 
HETATM   31  C   UNL     1      42.544 -14.105   2.888  1.00  0.00     0.032 A 
BRANCH  24  32
HETATM   32  C   UNL     1      44.229 -16.756   6.149  1.00  0.00     0.125 C 
HETATM   33  C   UNL     1      43.068 -16.730   7.126  1.00  0.00     0.027 C 
ENDBRANCH  24  32
ENDBRANCH  16  19
ENDBRANCH  14  15
ENDBRANCH  13  14
ENDBRANCH   1  13
TORSDOF 5
ENDMDL
