MODEL 1
REMARK VINA RESULT:      -8.1      0.000      0.000
REMARK  6 active torsions:
REMARK  status: ('A' for Active; 'I' for Inactive)
REMARK    1  A    between atoms: C_9  and  C_10 
REMARK    2  A    between atoms: C_12  and  O_13 
REMARK    3  A    between atoms: C_15  and  O_16 
REMARK    4  A    between atoms: O_16  and  C_17 
REMARK    5  A    between atoms: C_17  and  C_18 
REMARK    6  A    between atoms: C_18  and  N_19 
ROOT
HETATM    1  H   UNL     1      39.518  -9.765  10.341  1.00  0.00     0.186 HD
HETATM    2  N   UNL     1      39.559 -10.059   9.353  1.00  0.00    -0.304 NA
HETATM    3  C   UNL     1      40.506  -9.540   8.637  1.00  0.00     0.062 C 
HETATM    4  C   UNL     1      40.649  -9.944   7.158  1.00  0.00     0.186 C 
HETATM    5  C   UNL     1      39.523 -10.783   6.703  1.00  0.00     0.091 C 
HETATM    6  N   UNL     1      38.705 -11.479   6.264  1.00  0.00    -0.195 NA
HETATM    7  C   UNL     1      40.726  -8.715   6.355  1.00  0.00     0.091 C 
HETATM    8  N   UNL     1      40.919  -7.736   5.762  1.00  0.00    -0.195 NA
HETATM    9  C   UNL     1      41.985 -10.775   7.087  1.00  0.00     0.071 C 
HETATM   10  C   UNL     1      43.224  -9.973   7.624  1.00  0.00     0.053 C 
HETATM   11  C   UNL     1      42.932  -9.398   9.023  1.00  0.00    -0.053 C 
HETATM   12  C   UNL     1      43.823  -9.581  10.025  1.00  0.00     0.005 C 
HETATM   13  C   UNL     1      41.604  -8.620   9.188  1.00  0.00     0.157 C 
HETATM   14  C   UNL     1      41.346  -8.245  10.639  1.00  0.00    -0.005 C 
HETATM   15  N   UNL     1      41.133  -7.935  11.843  1.00  0.00    -0.101 N 
HETATM   16  C   UNL     1      44.492 -10.884   7.597  1.00  0.00     0.244 C 
HETATM   17  N   UNL     1      45.599 -10.365   8.474  1.00  0.00    -0.071 N 
HETATM   18  H   UNL     1      46.340 -11.079   8.474  1.00  0.00     0.279 HD
HETATM   19  C   UNL     1      46.265  -9.116   7.964  1.00  0.00     0.270 C 
HETATM   20  C   UNL     1      45.151 -10.258   9.902  1.00  0.00     0.262 C 
ENDROOT
BRANCH   9  21
HETATM   21  C   UNL     1      42.253 -11.466   5.741  1.00  0.00    -0.047 A 
HETATM   22  C   UNL     1      42.390 -10.776   4.529  1.00  0.00     0.047 A 
HETATM   23  C   UNL     1      42.500 -11.478   3.316  1.00  0.00     0.102 A 
HETATM   24  C   UNL     1      42.574 -12.878   3.290  1.00  0.00     0.102 A 
HETATM   25  C   UNL     1      42.515 -13.566   4.499  1.00  0.00     0.040 A 
HETATM   26  C   UNL     1      42.332 -12.871   5.704  1.00  0.00     0.010 A 
BRANCH  23  27
HETATM   27  O   UNL     1      42.581 -10.809   2.116  1.00  0.00    -0.353 OA
HETATM   28  C   UNL     1      41.413 -10.023   1.855  1.00  0.00     0.210 C 
ENDBRANCH  23  27
BRANCH  24  29
HETATM   29  O   UNL     1      42.675 -13.458   2.050  1.00  0.00    -0.347 OA
BRANCH  29  30
HETATM   30  C   UNL     1      41.610 -14.311   1.623  1.00  0.00     0.203 C 
BRANCH  30  31
HETATM   31  C   UNL     1      40.569 -13.455   0.888  1.00  0.00     0.261 C 
BRANCH  31  32
HETATM   32  N   UNL     1      40.641 -13.633  -0.617  1.00  0.00    -0.065 N 
HETATM   33  H   UNL     1      41.468 -14.227  -0.793  1.00  0.00     0.280 HD
HETATM   34  C   UNL     1      39.429 -14.338  -1.214  1.00  0.00     0.261 C 
HETATM   35  C   UNL     1      39.580 -14.433  -2.737  1.00  0.00     0.195 C 
HETATM   36  O   UNL     1      39.748 -13.137  -3.316  1.00  0.00    -0.388 OA
HETATM   37  C   UNL     1      40.932 -12.494  -2.834  1.00  0.00     0.195 C 
HETATM   38  C   UNL     1      40.864 -12.292  -1.317  1.00  0.00     0.261 C 
ENDBRANCH  31  32
ENDBRANCH  30  31
ENDBRANCH  29  30
ENDBRANCH  24  29
ENDBRANCH   9  21
TORSDOF 6
ENDMDL
MODEL 2
REMARK VINA RESULT:      -8.0      0.808      1.615
REMARK  6 active torsions:
REMARK  status: ('A' for Active; 'I' for Inactive)
REMARK    1  A    between atoms: C_9  and  C_10 
REMARK    2  A    between atoms: C_12  and  O_13 
REMARK    3  A    between atoms: C_15  and  O_16 
REMARK    4  A    between atoms: O_16  and  C_17 
REMARK    5  A    between atoms: C_17  and  C_18 
REMARK    6  A    between atoms: C_18  and  N_19 
ROOT
HETATM    1  H   UNL     1      39.742  -9.584  11.059  1.00  0.00     0.186 HD
HETATM    2  N   UNL     1      39.661  -9.795  10.052  1.00  0.00    -0.304 NA
HETATM    3  C   UNL     1      40.557  -9.267   9.280  1.00  0.00     0.062 C 
HETATM    4  C   UNL     1      40.519  -9.551   7.767  1.00  0.00     0.186 C 
HETATM    5  C   UNL     1      39.302 -10.288   7.373  1.00  0.00     0.091 C 
HETATM    6  N   UNL     1      38.401 -10.900   6.973  1.00  0.00    -0.195 NA
HETATM    7  C   UNL     1      40.587  -8.264   7.060  1.00  0.00     0.091 C 
HETATM    8  N   UNL     1      40.776  -7.249   6.528  1.00  0.00    -0.195 NA
HETATM    9  C   UNL     1      41.786 -10.442   7.484  1.00  0.00     0.071 C 
HETATM   10  C   UNL     1      43.122  -9.754   7.943  1.00  0.00     0.053 C 
HETATM   11  C   UNL     1      43.014  -9.286   9.408  1.00  0.00    -0.053 C 
HETATM   12  C   UNL     1      43.992  -9.601  10.289  1.00  0.00     0.005 C 
HETATM   13  C   UNL     1      41.761  -8.457   9.778  1.00  0.00     0.157 C 
HETATM   14  C   UNL     1      41.681  -8.193  11.273  1.00  0.00    -0.005 C 
HETATM   15  N   UNL     1      41.614  -7.976  12.514  1.00  0.00    -0.101 N 
HETATM   16  C   UNL     1      44.322 -10.725   7.707  1.00  0.00     0.244 C 
HETATM   17  N   UNL     1      45.545 -10.341   8.495  1.00  0.00    -0.071 N 
HETATM   18  H   UNL     1      46.236 -11.091   8.357  1.00  0.00     0.279 HD
HETATM   19  C   UNL     1      46.229  -9.091   8.015  1.00  0.00     0.270 C 
HETATM   20  C   UNL     1      45.257 -10.333   9.967  1.00  0.00     0.262 C 
ENDROOT
BRANCH   9  21
HETATM   21  C   UNL     1      41.869 -11.029   6.067  1.00  0.00    -0.047 A 
HETATM   22  C   UNL     1      41.640 -12.380   5.773  1.00  0.00     0.047 A 
HETATM   23  C   UNL     1      41.863 -12.877   4.477  1.00  0.00     0.102 A 
HETATM   24  C   UNL     1      42.225 -12.026   3.423  1.00  0.00     0.102 A 
HETATM   25  C   UNL     1      42.379 -10.668   3.695  1.00  0.00     0.040 A 
HETATM   26  C   UNL     1      42.228 -10.183   5.002  1.00  0.00     0.010 A 
BRANCH  23  27
HETATM   27  O   UNL     1      41.693 -14.213   4.192  1.00  0.00    -0.353 OA
HETATM   28  C   UNL     1      42.691 -15.030   4.813  1.00  0.00     0.210 C 
ENDBRANCH  23  27
BRANCH  24  29
HETATM   29  O   UNL     1      42.422 -12.620   2.202  1.00  0.00    -0.347 OA
BRANCH  29  30
HETATM   30  C   UNL     1      41.522 -12.285   1.144  1.00  0.00     0.203 C 
BRANCH  30  31
HETATM   31  C   UNL     1      40.756 -13.553   0.741  1.00  0.00     0.261 C 
BRANCH  31  32
HETATM   32  N   UNL     1      40.677 -13.719  -0.766  1.00  0.00    -0.065 N 
HETATM   33  H   UNL     1      41.470 -14.329  -1.025  1.00  0.00     0.280 HD
HETATM   34  C   UNL     1      39.398 -14.394  -1.246  1.00  0.00     0.261 C 
HETATM   35  C   UNL     1      39.397 -14.480  -2.777  1.00  0.00     0.195 C 
HETATM   36  O   UNL     1      39.535 -13.182  -3.361  1.00  0.00    -0.388 OA
HETATM   37  C   UNL     1      40.774 -12.568  -2.993  1.00  0.00     0.195 C 
HETATM   38  C   UNL     1      40.859 -12.377  -1.476  1.00  0.00     0.261 C 
ENDBRANCH  31  32
ENDBRANCH  30  31
ENDBRANCH  29  30
ENDBRANCH  24  29
ENDBRANCH   9  21
TORSDOF 6
ENDMDL
MODEL 3
REMARK VINA RESULT:      -7.9      2.291      3.549
REMARK  6 active torsions:
REMARK  status: ('A' for Active; 'I' for Inactive)
REMARK    1  A    between atoms: C_9  and  C_10 
REMARK    2  A    between atoms: C_12  and  O_13 
REMARK    3  A    between atoms: C_15  and  O_16 
REMARK    4  A    between atoms: O_16  and  C_17 
REMARK    5  A    between atoms: C_17  and  C_18 
REMARK    6  A    between atoms: C_18  and  N_19 
ROOT
HETATM    1  H   UNL     1      39.608  -8.798  10.369  1.00  0.00     0.186 HD
HETATM    2  N   UNL     1      39.599  -9.182   9.412  1.00  0.00    -0.304 NA
HETATM    3  C   UNL     1      40.599  -8.859   8.654  1.00  0.00     0.062 C 
HETATM    4  C   UNL     1      40.671  -9.408   7.217  1.00  0.00     0.186 C 
HETATM    5  C   UNL     1      39.438 -10.126   6.837  1.00  0.00     0.091 C 
HETATM    6  N   UNL     1      38.530 -10.742   6.461  1.00  0.00    -0.195 NA
HETATM    7  C   UNL     1      40.902  -8.276   6.308  1.00  0.00     0.091 C 
HETATM    8  N   UNL     1      41.217  -7.388   5.630  1.00  0.00    -0.195 NA
HETATM    9  C   UNL     1      41.883 -10.413   7.222  1.00  0.00     0.071 C 
HETATM   10  C   UNL     1      43.224  -9.739   7.686  1.00  0.00     0.053 C 
HETATM   11  C   UNL     1      43.026  -9.009   9.029  1.00  0.00    -0.053 C 
HETATM   12  C   UNL     1      43.895  -9.220  10.044  1.00  0.00     0.005 C 
HETATM   13  C   UNL     1      41.815  -8.050   9.121  1.00  0.00     0.157 C 
HETATM   14  C   UNL     1      41.625  -7.516  10.532  1.00  0.00    -0.005 C 
HETATM   15  N   UNL     1      41.468  -7.075  11.704  1.00  0.00    -0.101 N 
HETATM   16  C   UNL     1      44.358 -10.810   7.743  1.00  0.00     0.244 C 
HETATM   17  N   UNL     1      45.534 -10.368   8.571  1.00  0.00    -0.071 N 
HETATM   18  H   UNL     1      46.174 -11.173   8.635  1.00  0.00     0.279 HD
HETATM   19  C   UNL     1      46.356  -9.270   7.952  1.00  0.00     0.270 C 
HETATM   20  C   UNL     1      45.120 -10.076   9.983  1.00  0.00     0.262 C 
ENDROOT
BRANCH   9  21
HETATM   21  C   UNL     1      42.042 -11.251   5.943  1.00  0.00    -0.047 A 
HETATM   22  C   UNL     1      42.395 -10.708   4.700  1.00  0.00     0.047 A 
HETATM   23  C   UNL     1      42.393 -11.509   3.544  1.00  0.00     0.102 A 
HETATM   24  C   UNL     1      42.133 -12.885   3.613  1.00  0.00     0.102 A 
HETATM   25  C   UNL     1      41.857 -13.444   4.859  1.00  0.00     0.040 A 
HETATM   26  C   UNL     1      41.788 -12.634   6.002  1.00  0.00     0.010 A 
BRANCH  23  27
HETATM   27  O   UNL     1      42.685 -10.973   2.311  1.00  0.00    -0.353 OA
HETATM   28  C   UNL     1      41.562 -10.296   1.735  1.00  0.00     0.210 C 
ENDBRANCH  23  27
BRANCH  24  29
HETATM   29  O   UNL     1      42.152 -13.567   2.423  1.00  0.00    -0.347 OA
BRANCH  29  30
HETATM   30  C   UNL     1      43.006 -14.709   2.321  1.00  0.00     0.203 C 
BRANCH  30  31
HETATM   31  C   UNL     1      42.127 -15.964   2.228  1.00  0.00     0.261 C 
BRANCH  31  32
HETATM   32  N   UNL     1      42.645 -17.092   3.100  1.00  0.00    -0.065 N 
HETATM   33  H   UNL     1      41.811 -17.517   3.539  1.00  0.00     0.280 HD
HETATM   34  C   UNL     1      43.369 -18.187   2.327  1.00  0.00     0.261 C 
HETATM   35  C   UNL     1      43.886 -19.256   3.299  1.00  0.00     0.195 C 
HETATM   36  O   UNL     1      44.746 -18.678   4.284  1.00  0.00    -0.388 OA
HETATM   37  C   UNL     1      44.058 -17.709   5.080  1.00  0.00     0.195 C 
HETATM   38  C   UNL     1      43.545 -16.555   4.215  1.00  0.00     0.261 C 
ENDBRANCH  31  32
ENDBRANCH  30  31
ENDBRANCH  29  30
ENDBRANCH  24  29
ENDBRANCH   9  21
TORSDOF 6
ENDMDL
MODEL 4
REMARK VINA RESULT:      -7.8      7.417     13.185
REMARK  6 active torsions:
REMARK  status: ('A' for Active; 'I' for Inactive)
REMARK    1  A    between atoms: C_9  and  C_10 
REMARK    2  A    between atoms: C_12  and  O_13 
REMARK    3  A    between atoms: C_15  and  O_16 
REMARK    4  A    between atoms: O_16  and  C_17 
REMARK    5  A    between atoms: C_17  and  C_18 
REMARK    6  A    between atoms: C_18  and  N_19 
ROOT
HETATM    1  H   UNL     1      38.271 -10.712   9.196  1.00  0.00     0.186 HD
HETATM    2  N   UNL     1      38.728 -10.567  10.110  1.00  0.00    -0.304 NA
HETATM    3  C   UNL     1      39.769  -9.796  10.117  1.00  0.00     0.062 C 
HETATM    4  C   UNL     1      40.495  -9.512  11.445  1.00  0.00     0.186 C 
HETATM    5  C   UNL     1      39.970 -10.338  12.550  1.00  0.00     0.091 C 
HETATM    6  N   UNL     1      39.598 -10.912  13.488  1.00  0.00    -0.195 NA
HETATM    7  C   UNL     1      41.927  -9.777  11.247  1.00  0.00     0.091 C 
HETATM    8  N   UNL     1      43.064  -9.863  11.028  1.00  0.00    -0.195 NA
HETATM    9  C   UNL     1      40.216  -7.992  11.749  1.00  0.00     0.071 C 
HETATM   10  C   UNL     1      40.684  -7.048  10.583  1.00  0.00     0.053 C 
HETATM   11  C   UNL     1      40.103  -7.523   9.237  1.00  0.00    -0.053 C 
HETATM   12  C   UNL     1      39.483  -6.638   8.422  1.00  0.00     0.005 C 
HETATM   13  C   UNL     1      40.282  -9.022   8.896  1.00  0.00     0.157 C 
HETATM   14  C   UNL     1      39.531  -9.407   7.632  1.00  0.00    -0.005 C 
HETATM   15  N   UNL     1      38.907  -9.725   6.582  1.00  0.00    -0.101 N 
HETATM   16  C   UNL     1      40.305  -5.572  10.918  1.00  0.00     0.244 C 
HETATM   17  N   UNL     1      40.316  -4.680   9.706  1.00  0.00    -0.071 N 
HETATM   18  H   UNL     1      39.953  -3.764  10.006  1.00  0.00     0.279 HD
HETATM   19  C   UNL     1      41.686  -4.392   9.156  1.00  0.00     0.270 C 
HETATM   20  C   UNL     1      39.349  -5.168   8.668  1.00  0.00     0.262 C 
ENDROOT
BRANCH   9  21
HETATM   21  C   UNL     1      40.673  -7.509  13.134  1.00  0.00    -0.047 A 
HETATM   22  C   UNL     1      39.796  -7.024  14.114  1.00  0.00     0.047 A 
HETATM   23  C   UNL     1      40.293  -6.473  15.308  1.00  0.00     0.102 A 
HETATM   24  C   UNL     1      41.665  -6.479  15.596  1.00  0.00     0.102 A 
HETATM   25  C   UNL     1      42.535  -7.030  14.658  1.00  0.00     0.040 A 
HETATM   26  C   UNL     1      42.048  -7.514  13.435  1.00  0.00     0.010 A 
BRANCH  23  27
HETATM   27  O   UNL     1      39.442  -5.945  16.252  1.00  0.00    -0.353 OA
HETATM   28  C   UNL     1      38.251  -5.408  15.667  1.00  0.00     0.210 C 
ENDBRANCH  23  27
BRANCH  24  29
HETATM   29  O   UNL     1      42.038  -5.910  16.788  1.00  0.00    -0.347 OA
BRANCH  29  30
HETATM   30  C   UNL     1      42.297  -6.781  17.892  1.00  0.00     0.203 C 
BRANCH  30  31
HETATM   31  C   UNL     1      41.759  -6.117  19.167  1.00  0.00     0.261 C 
BRANCH  31  32
HETATM   32  N   UNL     1      41.041  -7.105  20.068  1.00  0.00    -0.065 N 
HETATM   33  H   UNL     1      41.779  -7.689  20.494  1.00  0.00     0.280 HD
HETATM   34  C   UNL     1      40.258  -6.451  21.200  1.00  0.00     0.261 C 
HETATM   35  C   UNL     1      39.539  -7.527  22.025  1.00  0.00     0.195 C 
HETATM   36  O   UNL     1      38.676  -8.312  21.199  1.00  0.00    -0.388 OA
HETATM   37  C   UNL     1      39.407  -9.006  20.183  1.00  0.00     0.195 C 
HETATM   38  C   UNL     1      40.123  -8.020  19.256  1.00  0.00     0.261 C 
ENDBRANCH  31  32
ENDBRANCH  30  31
ENDBRANCH  29  30
ENDBRANCH  24  29
ENDBRANCH   9  21
TORSDOF 6
ENDMDL
MODEL 5
REMARK VINA RESULT:      -7.7      5.875     11.918
REMARK  6 active torsions:
REMARK  status: ('A' for Active; 'I' for Inactive)
REMARK    1  A    between atoms: C_9  and  C_10 
REMARK    2  A    between atoms: C_12  and  O_13 
REMARK    3  A    between atoms: C_15  and  O_16 
REMARK    4  A    between atoms: O_16  and  C_17 
REMARK    5  A    between atoms: C_17  and  C_18 
REMARK    6  A    between atoms: C_18  and  N_19 
ROOT
HETATM    1  H   UNL     1      43.894 -12.540   7.070  1.00  0.00     0.186 HD
HETATM    2  N   UNL     1      43.917 -11.996   7.947  1.00  0.00    -0.304 NA
HETATM    3  C   UNL     1      43.592 -10.745   7.856  1.00  0.00     0.062 C 
HETATM    4  C   UNL     1      43.580  -9.869   9.122  1.00  0.00     0.186 C 
HETATM    5  C   UNL     1      44.133 -10.581  10.291  1.00  0.00     0.091 C 
HETATM    6  N   UNL     1      44.512 -11.068  11.274  1.00  0.00    -0.195 NA
HETATM    7  C   UNL     1      44.365  -8.657   8.845  1.00  0.00     0.091 C 
HETATM    8  N   UNL     1      44.873  -7.654   8.558  1.00  0.00    -0.195 NA
HETATM    9  C   UNL     1      42.062  -9.539   9.379  1.00  0.00     0.071 C 
HETATM   10  C   UNL     1      41.380  -8.842   8.148  1.00  0.00     0.053 C 
HETATM   11  C   UNL     1      41.623  -9.656   6.862  1.00  0.00    -0.053 C 
HETATM   12  C   UNL     1      40.582  -9.960   6.052  1.00  0.00     0.005 C 
HETATM   13  C   UNL     1      43.085 -10.073   6.574  1.00  0.00     0.157 C 
HETATM   14  C   UNL     1      43.179 -11.005   5.376  1.00  0.00    -0.005 C 
HETATM   15  N   UNL     1      43.257 -11.778   4.383  1.00  0.00    -0.101 N 
HETATM   16  C   UNL     1      39.863  -8.618   8.444  1.00  0.00     0.244 C 
HETATM   17  N   UNL     1      39.058  -8.366   7.198  1.00  0.00    -0.071 N 
HETATM   18  H   UNL     1      38.069  -8.338   7.482  1.00  0.00     0.279 HD
HETATM   19  C   UNL     1      39.312  -7.032   6.550  1.00  0.00     0.270 C 
HETATM   20  C   UNL     1      39.166  -9.519   6.244  1.00  0.00     0.262 C 
ENDROOT
BRANCH   9  21
HETATM   21  C   UNL     1      41.764  -8.834  10.711  1.00  0.00    -0.047 A 
HETATM   22  C   UNL     1      42.126  -7.508  10.984  1.00  0.00     0.047 A 
HETATM   23  C   UNL     1      41.942  -6.968  12.269  1.00  0.00     0.102 A 
HETATM   24  C   UNL     1      41.307  -7.700  13.283  1.00  0.00     0.102 A 
HETATM   25  C   UNL     1      40.876  -8.992  12.993  1.00  0.00     0.040 A 
HETATM   26  C   UNL     1      41.124  -9.559  11.734  1.00  0.00     0.010 A 
BRANCH  23  27
HETATM   27  O   UNL     1      42.344  -5.685  12.562  1.00  0.00    -0.353 OA
HETATM   28  C   UNL     1      41.510  -4.700  11.941  1.00  0.00     0.210 C 
ENDBRANCH  23  27
BRANCH  24  29
HETATM   29  O   UNL     1      41.186  -7.076  14.499  1.00  0.00    -0.347 OA
BRANCH  29  30
HETATM   30  C   UNL     1      41.566  -7.808  15.666  1.00  0.00     0.203 C 
BRANCH  30  31
HETATM   31  C   UNL     1      40.631  -7.406  16.815  1.00  0.00     0.261 C 
BRANCH  31  32
HETATM   32  N   UNL     1      40.901  -8.201  18.079  1.00  0.00    -0.065 N 
HETATM   33  H   UNL     1      41.134  -9.158  17.767  1.00  0.00     0.280 HD
HETATM   34  C   UNL     1      42.079  -7.681  18.895  1.00  0.00     0.261 C 
HETATM   35  C   UNL     1      42.244  -8.524  20.166  1.00  0.00     0.195 C 
HETATM   36  O   UNL     1      41.045  -8.515  20.944  1.00  0.00    -0.388 OA
HETATM   37  C   UNL     1      39.946  -9.083  20.225  1.00  0.00     0.195 C 
HETATM   38  C   UNL     1      39.650  -8.279  18.955  1.00  0.00     0.261 C 
ENDBRANCH  31  32
ENDBRANCH  30  31
ENDBRANCH  29  30
ENDBRANCH  24  29
ENDBRANCH   9  21
TORSDOF 6
ENDMDL
MODEL 6
REMARK VINA RESULT:      -7.7      4.391      6.469
REMARK  6 active torsions:
REMARK  status: ('A' for Active; 'I' for Inactive)
REMARK    1  A    between atoms: C_9  and  C_10 
REMARK    2  A    between atoms: C_12  and  O_13 
REMARK    3  A    between atoms: C_15  and  O_16 
REMARK    4  A    between atoms: O_16  and  C_17 
REMARK    5  A    between atoms: C_17  and  C_18 
REMARK    6  A    between atoms: C_18  and  N_19 
ROOT
HETATM    1  H   UNL     1      41.905  -8.057  15.481  1.00  0.00     0.186 HD
HETATM    2  N   UNL     1      42.119  -8.628  14.649  1.00  0.00    -0.304 NA
HETATM    3  C   UNL     1      41.570  -8.253  13.537  1.00  0.00     0.062 C 
HETATM    4  C   UNL     1      41.855  -9.040  12.245  1.00  0.00     0.186 C 
HETATM    5  C   UNL     1      42.622 -10.273  12.507  1.00  0.00     0.091 C 
HETATM    6  N   UNL     1      43.257 -11.240  12.606  1.00  0.00    -0.195 NA
HETATM    7  C   UNL     1      40.567  -9.364  11.615  1.00  0.00     0.091 C 
HETATM    8  N   UNL     1      39.549  -9.490  11.072  1.00  0.00    -0.195 NA
HETATM    9  C   UNL     1      42.715  -8.067  11.353  1.00  0.00     0.071 C 
HETATM   10  C   UNL     1      41.995  -6.696  11.087  1.00  0.00     0.053 C 
HETATM   11  C   UNL     1      41.528  -6.064  12.414  1.00  0.00    -0.053 C 
HETATM   12  C   UNL     1      41.818  -4.770  12.680  1.00  0.00     0.005 C 
HETATM   13  C   UNL     1      40.730  -6.980  13.373  1.00  0.00     0.157 C 
HETATM   14  C   UNL     1      40.467  -6.304  14.709  1.00  0.00    -0.005 C 
HETATM   15  N   UNL     1      40.251  -5.743  15.818  1.00  0.00    -0.101 N 
HETATM   16  C   UNL     1      42.936  -5.758  10.269  1.00  0.00     0.244 C 
HETATM   17  N   UNL     1      42.521  -4.313  10.341  1.00  0.00    -0.071 N 
HETATM   18  H   UNL     1      43.254  -3.768   9.865  1.00  0.00     0.279 HD
HETATM   19  C   UNL     1      41.254  -3.989   9.597  1.00  0.00     0.270 C 
HETATM   20  C   UNL     1      42.519  -3.822  11.758  1.00  0.00     0.262 C 
ENDROOT
BRANCH   9  21
HETATM   21  C   UNL     1      43.301  -8.695  10.079  1.00  0.00    -0.047 A 
HETATM   22  C   UNL     1      42.581  -8.843   8.887  1.00  0.00     0.047 A 
HETATM   23  C   UNL     1      43.133  -9.547   7.802  1.00  0.00     0.102 A 
HETATM   24  C   UNL     1      44.447 -10.034   7.843  1.00  0.00     0.102 A 
HETATM   25  C   UNL     1      45.194  -9.821   8.999  1.00  0.00     0.040 A 
HETATM   26  C   UNL     1      44.621  -9.183  10.109  1.00  0.00     0.010 A 
BRANCH  23  27
HETATM   27  O   UNL     1      42.412  -9.746   6.647  1.00  0.00    -0.353 OA
HETATM   28  C   UNL     1      41.043 -10.069   6.911  1.00  0.00     0.210 C 
ENDBRANCH  23  27
BRANCH  24  29
HETATM   29  O   UNL     1      44.880 -10.710   6.730  1.00  0.00    -0.347 OA
BRANCH  29  30
HETATM   30  C   UNL     1      44.863 -12.139   6.768  1.00  0.00     0.203 C 
BRANCH  30  31
HETATM   31  C   UNL     1      43.781 -12.635   5.799  1.00  0.00     0.261 C 
BRANCH  31  32
HETATM   32  N   UNL     1      42.774 -13.543   6.482  1.00  0.00    -0.065 N 
HETATM   33  H   UNL     1      42.589 -13.117   7.405  1.00  0.00     0.280 HD
HETATM   34  C   UNL     1      41.443 -13.651   5.747  1.00  0.00     0.261 C 
HETATM   35  C   UNL     1      40.514 -14.617   6.493  1.00  0.00     0.195 C 
HETATM   36  O   UNL     1      41.121 -15.904   6.633  1.00  0.00    -0.388 OA
HETATM   37  C   UNL     1      42.328 -15.836   7.398  1.00  0.00     0.195 C 
HETATM   38  C   UNL     1      43.360 -14.937   6.711  1.00  0.00     0.261 C 
ENDBRANCH  31  32
ENDBRANCH  30  31
ENDBRANCH  29  30
ENDBRANCH  24  29
ENDBRANCH   9  21
TORSDOF 6
ENDMDL
MODEL 7
REMARK VINA RESULT:      -7.5      2.872      4.424
REMARK  6 active torsions:
REMARK  status: ('A' for Active; 'I' for Inactive)
REMARK    1  A    between atoms: C_9  and  C_10 
REMARK    2  A    between atoms: C_12  and  O_13 
REMARK    3  A    between atoms: C_15  and  O_16 
REMARK    4  A    between atoms: O_16  and  C_17 
REMARK    5  A    between atoms: C_17  and  C_18 
REMARK    6  A    between atoms: C_18  and  N_19 
ROOT
HETATM    1  H   UNL     1      39.964  -7.603   8.935  1.00  0.00     0.186 HD
HETATM    2  N   UNL     1      39.747  -8.240   8.153  1.00  0.00    -0.304 NA
HETATM    3  C   UNL     1      40.713  -8.482   7.324  1.00  0.00     0.062 C 
HETATM    4  C   UNL     1      40.477  -9.439   6.141  1.00  0.00     0.186 C 
HETATM    5  C   UNL     1      39.059  -9.832   6.022  1.00  0.00     0.091 C 
HETATM    6  N   UNL     1      37.979 -10.230   5.872  1.00  0.00    -0.195 NA
HETATM    7  C   UNL     1      40.924  -8.766   4.913  1.00  0.00     0.091 C 
HETATM    8  N   UNL     1      41.405  -8.266   3.982  1.00  0.00    -0.195 NA
HETATM    9  C   UNL     1      41.348 -10.711   6.462  1.00  0.00     0.071 C 
HETATM   10  C   UNL     1      42.866 -10.365   6.674  1.00  0.00     0.053 C 
HETATM   11  C   UNL     1      43.023  -9.234   7.710  1.00  0.00    -0.053 C 
HETATM   12  C   UNL     1      43.897  -9.377   8.733  1.00  0.00     0.005 C 
HETATM   13  C   UNL     1      42.150  -7.975   7.496  1.00  0.00     0.157 C 
HETATM   14  C   UNL     1      42.267  -7.004   8.661  1.00  0.00    -0.005 C 
HETATM   15  N   UNL     1      42.363  -6.199   9.627  1.00  0.00    -0.101 N 
HETATM   16  C   UNL     1      43.650 -11.657   7.066  1.00  0.00     0.244 C 
HETATM   17  N   UNL     1      44.982 -11.359   7.699  1.00  0.00    -0.071 N 
HETATM   18  H   UNL     1      45.370 -12.258   8.015  1.00  0.00     0.279 HD
HETATM   19  C   UNL     1      46.012 -10.805   6.753  1.00  0.00     0.270 C 
HETATM   20  C   UNL     1      44.816 -10.538   8.943  1.00  0.00     0.262 C 
ENDROOT
BRANCH   9  21
HETATM   21  C   UNL     1      41.130 -11.907   5.522  1.00  0.00    -0.047 A 
HETATM   22  C   UNL     1      40.756 -13.183   5.965  1.00  0.00     0.047 A 
HETATM   23  C   UNL     1      40.704 -14.263   5.066  1.00  0.00     0.102 A 
HETATM   24  C   UNL     1      40.928 -14.081   3.694  1.00  0.00     0.102 A 
HETATM   25  C   UNL     1      41.225 -12.799   3.238  1.00  0.00     0.040 A 
HETATM   26  C   UNL     1      41.349 -11.733   4.142  1.00  0.00     0.010 A 
BRANCH  23  27
HETATM   27  O   UNL     1      40.391 -15.531   5.501  1.00  0.00    -0.353 OA
HETATM   28  C   UNL     1      40.916 -15.801   6.806  1.00  0.00     0.210 C 
ENDBRANCH  23  27
BRANCH  24  29
HETATM   29  O   UNL     1      40.858 -15.206   2.912  1.00  0.00    -0.347 OA
BRANCH  29  30
HETATM   30  C   UNL     1      41.922 -15.444   1.987  1.00  0.00     0.203 C 
BRANCH  30  31
HETATM   31  C   UNL     1      43.207 -15.701   2.786  1.00  0.00     0.261 C 
BRANCH  31  32
HETATM   32  N   UNL     1      43.183 -17.043   3.495  1.00  0.00    -0.065 N 
HETATM   33  H   UNL     1      42.185 -17.268   3.641  1.00  0.00     0.280 HD
HETATM   34  C   UNL     1      43.800 -18.179   2.688  1.00  0.00     0.261 C 
HETATM   35  C   UNL     1      43.762 -19.477   3.503  1.00  0.00     0.195 C 
HETATM   36  O   UNL     1      44.440 -19.316   4.752  1.00  0.00    -0.388 OA
HETATM   37  C   UNL     1      43.819 -18.314   5.562  1.00  0.00     0.195 C 
HETATM   38  C   UNL     1      43.853 -16.950   4.866  1.00  0.00     0.261 C 
ENDBRANCH  31  32
ENDBRANCH  30  31
ENDBRANCH  29  30
ENDBRANCH  24  29
ENDBRANCH   9  21
TORSDOF 6
ENDMDL
MODEL 8
REMARK VINA RESULT:      -7.5      6.839     12.750
REMARK  6 active torsions:
REMARK  status: ('A' for Active; 'I' for Inactive)
REMARK    1  A    between atoms: C_9  and  C_10 
REMARK    2  A    between atoms: C_12  and  O_13 
REMARK    3  A    between atoms: C_15  and  O_16 
REMARK    4  A    between atoms: O_16  and  C_17 
REMARK    5  A    between atoms: C_17  and  C_18 
REMARK    6  A    between atoms: C_18  and  N_19 
ROOT
HETATM    1  H   UNL     1      38.109 -11.250   8.554  1.00  0.00     0.186 HD
HETATM    2  N   UNL     1      38.460 -10.943   9.474  1.00  0.00    -0.304 NA
HETATM    3  C   UNL     1      39.313  -9.969   9.468  1.00  0.00     0.062 C 
HETATM    4  C   UNL     1      39.870  -9.438  10.803  1.00  0.00     0.186 C 
HETATM    5  C   UNL     1      39.453 -10.273  11.946  1.00  0.00     0.091 C 
HETATM    6  N   UNL     1      39.146 -10.842  12.910  1.00  0.00    -0.195 NA
HETATM    7  C   UNL     1      41.336  -9.404  10.704  1.00  0.00     0.091 C 
HETATM    8  N   UNL     1      42.478  -9.260  10.552  1.00  0.00    -0.195 NA
HETATM    9  C   UNL     1      39.258  -7.995  10.957  1.00  0.00     0.071 C 
HETATM   10  C   UNL     1      39.598  -7.062   9.740  1.00  0.00     0.053 C 
HETATM   11  C   UNL     1      39.225  -7.749   8.411  1.00  0.00    -0.053 C 
HETATM   12  C   UNL     1      38.491  -7.080   7.491  1.00  0.00     0.005 C 
HETATM   13  C   UNL     1      39.737  -9.196   8.213  1.00  0.00     0.157 C 
HETATM   14  C   UNL     1      39.174  -9.825   6.949  1.00  0.00    -0.005 C 
HETATM   15  N   UNL     1      38.705 -10.347   5.901  1.00  0.00    -0.101 N 
HETATM   16  C   UNL     1      38.895  -5.680   9.924  1.00  0.00     0.244 C 
HETATM   17  N   UNL     1      38.804  -4.899   8.641  1.00  0.00    -0.071 N 
HETATM   18  H   UNL     1      38.238  -4.063   8.840  1.00  0.00     0.279 HD
HETATM   19  C   UNL     1      40.118  -4.366   8.140  1.00  0.00     0.270 C 
HETATM   20  C   UNL     1      38.036  -5.659   7.601  1.00  0.00     0.262 C 
ENDROOT
BRANCH   9  21
HETATM   21  C   UNL     1      39.506  -7.323  12.317  1.00  0.00    -0.047 A 
HETATM   22  C   UNL     1      40.769  -6.902  12.754  1.00  0.00     0.047 A 
HETATM   23  C   UNL     1      40.946  -6.417  14.062  1.00  0.00     0.102 A 
HETATM   24  C   UNL     1      39.858  -6.250  14.930  1.00  0.00     0.102 A 
HETATM   25  C   UNL     1      38.589  -6.596  14.473  1.00  0.00     0.040 A 
HETATM   26  C   UNL     1      38.420  -7.148  13.194  1.00  0.00     0.010 A 
BRANCH  23  27
HETATM   27  O   UNL     1      42.192  -6.052  14.519  1.00  0.00    -0.353 OA
HETATM   28  C   UNL     1      43.162  -7.089  14.333  1.00  0.00     0.210 C 
ENDBRANCH  23  27
BRANCH  24  29
HETATM   29  O   UNL     1      40.148  -5.775  16.184  1.00  0.00    -0.347 OA
BRANCH  29  30
HETATM   30  C   UNL     1      40.031  -6.680  17.285  1.00  0.00     0.203 C 
BRANCH  30  31
HETATM   31  C   UNL     1      41.440  -7.134  17.690  1.00  0.00     0.261 C 
BRANCH  31  32
HETATM   32  N   UNL     1      41.409  -8.258  18.710  1.00  0.00    -0.065 N 
HETATM   33  H   UNL     1      41.572  -9.128  18.177  1.00  0.00     0.280 HD
HETATM   34  C   UNL     1      42.494  -8.156  19.774  1.00  0.00     0.261 C 
HETATM   35  C   UNL     1      42.353  -9.310  20.774  1.00  0.00     0.195 C 
HETATM   36  O   UNL     1      41.055  -9.311  21.373  1.00  0.00    -0.388 OA
HETATM   37  C   UNL     1      40.025  -9.496  20.397  1.00  0.00     0.195 C 
HETATM   38  C   UNL     1      40.034  -8.359  19.372  1.00  0.00     0.261 C 
ENDBRANCH  31  32
ENDBRANCH  30  31
ENDBRANCH  29  30
ENDBRANCH  24  29
ENDBRANCH   9  21
TORSDOF 6
ENDMDL
MODEL 9
REMARK VINA RESULT:      -7.3      4.417      8.733
REMARK  6 active torsions:
REMARK  status: ('A' for Active; 'I' for Inactive)
REMARK    1  A    between atoms: C_9  and  C_10 
REMARK    2  A    between atoms: C_12  and  O_13 
REMARK    3  A    between atoms: C_15  and  O_16 
REMARK    4  A    between atoms: O_16  and  C_17 
REMARK    5  A    between atoms: C_17  and  C_18 
REMARK    6  A    between atoms: C_18  and  N_19 
ROOT
HETATM    1  H   UNL     1      36.954 -13.663  -2.554  1.00  0.00     0.186 HD
HETATM    2  N   UNL     1      37.715 -13.764  -1.865  1.00  0.00    -0.304 NA
HETATM    3  C   UNL     1      38.266 -12.666  -1.453  1.00  0.00     0.062 C 
HETATM    4  C   UNL     1      39.395 -12.728  -0.408  1.00  0.00     0.186 C 
HETATM    5  C   UNL     1      39.821 -14.115  -0.137  1.00  0.00     0.091 C 
HETATM    6  N   UNL     1      40.196 -15.168   0.174  1.00  0.00    -0.195 NA
HETATM    7  C   UNL     1      40.527 -11.936  -0.912  1.00  0.00     0.091 C 
HETATM    8  N   UNL     1      41.349 -11.200  -1.269  1.00  0.00    -0.195 NA
HETATM    9  C   UNL     1      38.778 -12.103   0.900  1.00  0.00     0.071 C 
HETATM   10  C   UNL     1      38.234 -10.647   0.674  1.00  0.00     0.053 C 
HETATM   11  C   UNL     1      37.280 -10.607  -0.535  1.00  0.00    -0.053 C 
HETATM   12  C   UNL     1      36.069 -10.015  -0.417  1.00  0.00     0.005 C 
HETATM   13  C   UNL     1      37.792 -11.260  -1.842  1.00  0.00     0.157 C 
HETATM   14  C   UNL     1      36.711 -11.307  -2.910  1.00  0.00    -0.005 C 
HETATM   15  N   UNL     1      35.813 -11.347  -3.795  1.00  0.00    -0.101 N 
HETATM   16  C   UNL     1      37.569 -10.125   1.987  1.00  0.00     0.244 C 
HETATM   17  N   UNL     1      36.659  -8.951   1.750  1.00  0.00    -0.071 N 
HETATM   18  H   UNL     1      36.191  -8.750   2.645  1.00  0.00     0.279 HD
HETATM   19  C   UNL     1      37.369  -7.674   1.390  1.00  0.00     0.270 C 
HETATM   20  C   UNL     1      35.556  -9.306   0.797  1.00  0.00     0.262 C 
ENDROOT
BRANCH   9  21
HETATM   21  C   UNL     1      39.650 -12.231   2.158  1.00  0.00    -0.047 A 
HETATM   22  C   UNL     1      40.663 -11.323   2.495  1.00  0.00     0.047 A 
HETATM   23  C   UNL     1      41.512 -11.573   3.588  1.00  0.00     0.102 A 
HETATM   24  C   UNL     1      41.311 -12.678   4.428  1.00  0.00     0.102 A 
HETATM   25  C   UNL     1      40.257 -13.542   4.142  1.00  0.00     0.040 A 
HETATM   26  C   UNL     1      39.455 -13.335   3.010  1.00  0.00     0.010 A 
BRANCH  23  27
HETATM   27  O   UNL     1      42.543 -10.715   3.894  1.00  0.00    -0.353 OA
HETATM   28  C   UNL     1      42.090  -9.545   4.584  1.00  0.00     0.210 C 
ENDBRANCH  23  27
BRANCH  24  29
HETATM   29  O   UNL     1      42.202 -12.825   5.461  1.00  0.00    -0.347 OA
BRANCH  29  30
HETATM   30  C   UNL     1      42.214 -14.073   6.159  1.00  0.00     0.203 C 
BRANCH  30  31
HETATM   31  C   UNL     1      43.506 -14.818   5.795  1.00  0.00     0.261 C 
BRANCH  31  32
HETATM   32  N   UNL     1      43.231 -16.121   5.067  1.00  0.00    -0.065 N 
HETATM   33  H   UNL     1      42.298 -16.431   5.385  1.00  0.00     0.280 HD
HETATM   34  C   UNL     1      43.179 -15.982   3.551  1.00  0.00     0.261 C 
HETATM   35  C   UNL     1      42.936 -17.354   2.910  1.00  0.00     0.195 C 
HETATM   36  O   UNL     1      43.948 -18.286   3.299  1.00  0.00    -0.388 OA
HETATM   37  C   UNL     1      43.952 -18.498   4.714  1.00  0.00     0.195 C 
HETATM   38  C   UNL     1      44.247 -17.194   5.461  1.00  0.00     0.261 C 
ENDBRANCH  31  32
ENDBRANCH  30  31
ENDBRANCH  29  30
ENDBRANCH  24  29
ENDBRANCH   9  21
TORSDOF 6
ENDMDL
MODEL 10
REMARK VINA RESULT:      -7.3      4.373      6.251
REMARK  6 active torsions:
REMARK  status: ('A' for Active; 'I' for Inactive)
REMARK    1  A    between atoms: C_9  and  C_10 
REMARK    2  A    between atoms: C_12  and  O_13 
REMARK    3  A    between atoms: C_15  and  O_16 
REMARK    4  A    between atoms: O_16  and  C_17 
REMARK    5  A    between atoms: C_17  and  C_18 
REMARK    6  A    between atoms: C_18  and  N_19 
ROOT
HETATM    1  H   UNL     1      42.524  -7.685  14.930  1.00  0.00     0.186 HD
HETATM    2  N   UNL     1      42.612  -8.369  14.163  1.00  0.00    -0.304 NA
HETATM    3  C   UNL     1      41.850  -8.178  13.132  1.00  0.00     0.062 C 
HETATM    4  C   UNL     1      41.936  -9.142  11.935  1.00  0.00     0.186 C 
HETATM    5  C   UNL     1      42.802 -10.303  12.221  1.00  0.00     0.091 C 
HETATM    6  N   UNL     1      43.493 -11.228  12.336  1.00  0.00    -0.195 NA
HETATM    7  C   UNL     1      40.574  -9.590  11.612  1.00  0.00     0.091 C 
HETATM    8  N   UNL     1      39.481  -9.821  11.294  1.00  0.00    -0.195 NA
HETATM    9  C   UNL     1      42.566  -8.293  10.768  1.00  0.00     0.071 C 
HETATM   10  C   UNL     1      41.738  -6.996  10.450  1.00  0.00     0.053 C 
HETATM   11  C   UNL     1      41.489  -6.184  11.737  1.00  0.00    -0.053 C 
HETATM   12  C   UNL     1      41.754  -4.857  11.756  1.00  0.00     0.005 C 
HETATM   13  C   UNL     1      40.928  -6.965  12.949  1.00  0.00     0.157 C 
HETATM   14  C   UNL     1      40.879  -6.103  14.201  1.00  0.00    -0.005 C 
HETATM   15  N   UNL     1      40.839  -5.388  15.239  1.00  0.00    -0.101 N 
HETATM   16  C   UNL     1      42.464  -6.168   9.344  1.00  0.00     0.244 C 
HETATM   17  N   UNL     1      41.994  -4.739   9.285  1.00  0.00    -0.071 N 
HETATM   18  H   UNL     1      42.598  -4.254   8.608  1.00  0.00     0.279 HD
HETATM   19  C   UNL     1      40.597  -4.563   8.755  1.00  0.00     0.270 C 
HETATM   20  C   UNL     1      42.225  -4.042  10.593  1.00  0.00     0.262 C 
ENDROOT
BRANCH   9  21
HETATM   21  C   UNL     1      42.942  -9.090   9.510  1.00  0.00    -0.047 A 
HETATM   22  C   UNL     1      44.245  -9.523   9.227  1.00  0.00     0.047 A 
HETATM   23  C   UNL     1      44.544 -10.130   7.994  1.00  0.00     0.102 A 
HETATM   24  C   UNL     1      43.538 -10.407   7.057  1.00  0.00     0.102 A 
HETATM   25  C   UNL     1      42.229 -10.048   7.367  1.00  0.00     0.040 A 
HETATM   26  C   UNL     1      41.940  -9.377   8.564  1.00  0.00     0.010 A 
BRANCH  23  27
HETATM   27  O   UNL     1      45.830 -10.509   7.686  1.00  0.00    -0.353 OA
HETATM   28  C   UNL     1      46.755  -9.422   7.791  1.00  0.00     0.210 C 
ENDBRANCH  23  27
BRANCH  24  29
HETATM   29  O   UNL     1      43.945 -10.997   5.887  1.00  0.00    -0.347 OA
BRANCH  29  30
HETATM   30  C   UNL     1      43.378 -12.265   5.545  1.00  0.00     0.203 C 
BRANCH  30  31
HETATM   31  C   UNL     1      43.849 -13.298   6.578  1.00  0.00     0.261 C 
BRANCH  31  32
HETATM   32  N   UNL     1      42.888 -14.467   6.697  1.00  0.00    -0.065 N 
HETATM   33  H   UNL     1      42.877 -14.724   7.698  1.00  0.00     0.280 HD
HETATM   34  C   UNL     1      41.458 -14.136   6.288  1.00  0.00     0.261 C 
HETATM   35  C   UNL     1      40.579 -15.387   6.406  1.00  0.00     0.195 C 
HETATM   36  O   UNL     1      41.100 -16.454   5.609  1.00  0.00    -0.388 OA
HETATM   37  C   UNL     1      42.410 -16.840   6.036  1.00  0.00     0.195 C 
HETATM   38  C   UNL     1      43.393 -15.674   5.904  1.00  0.00     0.261 C 
ENDBRANCH  31  32
ENDBRANCH  30  31
ENDBRANCH  29  30
ENDBRANCH  24  29
ENDBRANCH   9  21
TORSDOF 6
ENDMDL
