MODEL 1
REMARK VINA RESULT:      -7.8      0.000      0.000
REMARK  3 active torsions:
REMARK  status: ('A' for Active; 'I' for Inactive)
REMARK    1  A    between atoms: C_7  and  C_8 
REMARK       I    between atoms: C_8  and  N_9 
REMARK    2  A    between atoms: N_9  and  C_10 
REMARK    3  A    between atoms: C_13  and  C_14 
REMARK       I    between atoms: C_14  and  N_15 
ROOT
HETATM    1  C   UNL     1      41.039 -15.793   2.268  1.00  0.00     0.256 C 
HETATM    2  N   UNL     1      41.396 -15.095   1.128  1.00  0.00    -0.322 N 
HETATM    3  O   UNL     1      39.943 -15.743   2.815  1.00  0.00    -0.267 OA
HETATM    4  H   UNL     1      42.358 -15.136   0.825  1.00  0.00     0.169 HD
ENDROOT
BRANCH   2   5
HETATM    5  C   UNL     1      40.544 -14.286   0.341  1.00  0.00     0.052 A 
HETATM    6  C   UNL     1      40.321 -12.923   0.538  1.00  0.00     0.147 A 
HETATM    7  N   UNL     1      39.483 -12.166  -0.219  1.00  0.00    -0.253 NA
HETATM    8  C   UNL     1      38.831 -12.808  -1.225  1.00  0.00     0.124 A 
HETATM    9  C   UNL     1      38.984 -14.158  -1.506  1.00  0.00     0.039 A 
HETATM   10  C   UNL     1      39.857 -14.901  -0.710  1.00  0.00     0.033 A 
BRANCH   8  11
HETATM   11  C   UNL     1      37.900 -11.976  -2.050  1.00  0.00     0.268 C 
HETATM   12  N   UNL     1      37.219 -12.655  -3.025  1.00  0.00    -0.365 N 
HETATM   13  H   UNL     1      37.378 -13.651  -3.138  1.00  0.00     0.159 HD
HETATM   14  H   UNL     1      36.575 -12.164  -3.626  1.00  0.00     0.159 HD
HETATM   15  O   UNL     1      37.751 -10.774  -1.871  1.00  0.00    -0.266 OA
ENDBRANCH   8  11
ENDBRANCH   2   5
BRANCH   1  16
HETATM   16  C   UNL     1      42.095 -16.661   2.879  1.00  0.00     0.034 A 
HETATM   17  C   UNL     1      42.831 -16.281   4.006  1.00  0.00     0.041 A 
HETATM   18  C   UNL     1      43.811 -17.138   4.510  1.00  0.00     0.035 A 
HETATM   19  C   UNL     1      44.084 -18.359   3.895  1.00  0.00     0.030 A 
HETATM   20 CL   UNL     1      44.702 -16.674   5.908  1.00  0.00    -0.084 Cl
HETATM   21  C   UNL     1      43.383 -18.735   2.746  1.00  0.00    -0.059 A 
HETATM   22  C   UNL     1      43.663 -20.044   2.066  1.00  0.00     0.048 C 
HETATM   23  C   UNL     1      42.379 -17.888   2.253  1.00  0.00     0.024 A 
ENDBRANCH   1  16
TORSDOF 3
ENDMDL
MODEL 2
REMARK VINA RESULT:      -7.7      1.261      1.982
REMARK  3 active torsions:
REMARK  status: ('A' for Active; 'I' for Inactive)
REMARK    1  A    between atoms: C_7  and  C_8 
REMARK       I    between atoms: C_8  and  N_9 
REMARK    2  A    between atoms: N_9  and  C_10 
REMARK    3  A    between atoms: C_13  and  C_14 
REMARK       I    between atoms: C_14  and  N_15 
ROOT
HETATM    1  C   UNL     1      41.061 -15.839   2.303  1.00  0.00     0.256 C 
HETATM    2  N   UNL     1      41.336 -15.181   1.117  1.00  0.00    -0.322 N 
HETATM    3  O   UNL     1      40.026 -15.726   2.952  1.00  0.00    -0.267 OA
HETATM    4  H   UNL     1      42.261 -15.274   0.724  1.00  0.00     0.169 HD
ENDROOT
BRANCH   2   5
HETATM    5  C   UNL     1      40.451 -14.346   0.398  1.00  0.00     0.052 A 
HETATM    6  C   UNL     1      40.074 -13.057   0.775  1.00  0.00     0.147 A 
HETATM    7  N   UNL     1      39.206 -12.277   0.079  1.00  0.00    -0.253 NA
HETATM    8  C   UNL     1      38.684 -12.816  -1.055  1.00  0.00     0.124 A 
HETATM    9  C   UNL     1      38.994 -14.087  -1.518  1.00  0.00     0.039 A 
HETATM   10  C   UNL     1      39.893 -14.856  -0.779  1.00  0.00     0.033 A 
BRANCH   8  11
HETATM   11  C   UNL     1      37.719 -11.961  -1.815  1.00  0.00     0.268 C 
HETATM   12  N   UNL     1      37.125 -12.565  -2.890  1.00  0.00    -0.365 N 
HETATM   13  H   UNL     1      37.365 -13.525  -3.113  1.00  0.00     0.159 HD
HETATM   14  H   UNL     1      36.465 -12.053  -3.456  1.00  0.00     0.159 HD
HETATM   15  O   UNL     1      37.471 -10.803  -1.501  1.00  0.00    -0.266 OA
ENDBRANCH   8  11
ENDBRANCH   2   5
BRANCH   1  16
HETATM   16  C   UNL     1      42.129 -16.746   2.828  1.00  0.00     0.034 A 
HETATM   17  C   UNL     1      42.467 -17.957   2.215  1.00  0.00     0.041 A 
HETATM   18  C   UNL     1      43.465 -18.758   2.772  1.00  0.00     0.035 A 
HETATM   19  C   UNL     1      44.118 -18.381   3.945  1.00  0.00     0.030 A 
HETATM   20 CL   UNL     1      43.890 -20.238   2.002  1.00  0.00    -0.084 Cl
HETATM   21  C   UNL     1      43.765 -17.192   4.591  1.00  0.00    -0.059 A 
HETATM   22  C   UNL     1      44.452 -16.769   5.856  1.00  0.00     0.048 C 
HETATM   23  C   UNL     1      42.781 -16.373   4.017  1.00  0.00     0.024 A 
ENDBRANCH   1  16
TORSDOF 3
ENDMDL
MODEL 3
REMARK VINA RESULT:      -7.6      5.895      7.914
REMARK  3 active torsions:
REMARK  status: ('A' for Active; 'I' for Inactive)
REMARK    1  A    between atoms: C_7  and  C_8 
REMARK       I    between atoms: C_8  and  N_9 
REMARK    2  A    between atoms: N_9  and  C_10 
REMARK    3  A    between atoms: C_13  and  C_14 
REMARK       I    between atoms: C_14  and  N_15 
ROOT
HETATM    1  C   UNL     1      43.213 -14.467   5.606  1.00  0.00     0.256 C 
HETATM    2  N   UNL     1      43.379 -13.133   5.276  1.00  0.00    -0.322 N 
HETATM    3  O   UNL     1      43.422 -14.954   6.712  1.00  0.00    -0.267 OA
HETATM    4  H   UNL     1      43.274 -12.864   4.309  1.00  0.00     0.169 HD
ENDROOT
BRANCH   2   5
HETATM    5  C   UNL     1      43.721 -12.088   6.164  1.00  0.00     0.052 A 
HETATM    6  C   UNL     1      42.835 -11.137   6.669  1.00  0.00     0.147 A 
HETATM    7  N   UNL     1      43.189 -10.128   7.508  1.00  0.00    -0.253 NA
HETATM    8  C   UNL     1      44.501 -10.065   7.860  1.00  0.00     0.124 A 
HETATM    9  C   UNL     1      45.461 -10.962   7.415  1.00  0.00     0.039 A 
HETATM   10  C   UNL     1      45.060 -11.987   6.559  1.00  0.00     0.033 A 
BRANCH   8  11
HETATM   11  C   UNL     1      44.892  -8.946   8.774  1.00  0.00     0.268 C 
HETATM   12  N   UNL     1      44.692  -9.186  10.107  1.00  0.00    -0.365 N 
HETATM   13  H   UNL     1      44.300 -10.076  10.397  1.00  0.00     0.159 HD
HETATM   14  H   UNL     1      44.927  -8.479  10.787  1.00  0.00     0.159 HD
HETATM   15  O   UNL     1      45.358  -7.891   8.366  1.00  0.00    -0.266 OA
ENDBRANCH   8  11
ENDBRANCH   2   5
BRANCH   1  16
HETATM   16  C   UNL     1      42.756 -15.375   4.508  1.00  0.00     0.034 A 
HETATM   17  C   UNL     1      41.597 -15.140   3.760  1.00  0.00     0.041 A 
HETATM   18  C   UNL     1      41.226 -16.041   2.761  1.00  0.00     0.035 A 
HETATM   19  C   UNL     1      41.981 -17.186   2.509  1.00  0.00     0.030 A 
HETATM   20 CL   UNL     1      39.809 -15.736   1.832  1.00  0.00    -0.084 Cl
HETATM   21  C   UNL     1      43.120 -17.454   3.273  1.00  0.00    -0.059 A 
HETATM   22  C   UNL     1      43.945 -18.682   3.020  1.00  0.00     0.048 C 
HETATM   23  C   UNL     1      43.509 -16.536   4.259  1.00  0.00     0.024 A 
ENDBRANCH   1  16
TORSDOF 3
ENDMDL
MODEL 4
REMARK VINA RESULT:      -7.4      5.405      7.943
REMARK  3 active torsions:
REMARK  status: ('A' for Active; 'I' for Inactive)
REMARK    1  A    between atoms: C_7  and  C_8 
REMARK       I    between atoms: C_8  and  N_9 
REMARK    2  A    between atoms: N_9  and  C_10 
REMARK    3  A    between atoms: C_13  and  C_14 
REMARK       I    between atoms: C_14  and  N_15 
ROOT
HETATM    1  C   UNL     1      42.319 -14.546   5.157  1.00  0.00     0.256 C 
HETATM    2  N   UNL     1      43.473 -15.236   4.830  1.00  0.00    -0.322 N 
HETATM    3  O   UNL     1      41.177 -14.960   4.994  1.00  0.00    -0.267 OA
HETATM    4  H   UNL     1      44.357 -14.754   4.915  1.00  0.00     0.169 HD
ENDROOT
BRANCH   2   5
HETATM    5  C   UNL     1      43.547 -16.562   4.348  1.00  0.00     0.052 A 
HETATM    6  C   UNL     1      44.016 -17.658   5.071  1.00  0.00     0.147 A 
HETATM    7  N   UNL     1      44.096 -18.924   4.582  1.00  0.00    -0.253 NA
HETATM    8  C   UNL     1      43.687 -19.102   3.297  1.00  0.00     0.124 A 
HETATM    9  C   UNL     1      43.203 -18.080   2.493  1.00  0.00     0.039 A 
HETATM   10  C   UNL     1      43.131 -16.795   3.032  1.00  0.00     0.033 A 
BRANCH   8  11
HETATM   11  C   UNL     1      43.786 -20.494   2.754  1.00  0.00     0.268 C 
HETATM   12  N   UNL     1      44.135 -21.452   3.667  1.00  0.00    -0.365 N 
HETATM   13  H   UNL     1      44.307 -21.180   4.630  1.00  0.00     0.159 HD
HETATM   14  H   UNL     1      44.227 -22.414   3.379  1.00  0.00     0.159 HD
HETATM   15  O   UNL     1      43.570 -20.763   1.580  1.00  0.00    -0.266 OA
ENDBRANCH   8  11
ENDBRANCH   2   5
BRANCH   1  16
HETATM   16  C   UNL     1      42.499 -13.179   5.739  1.00  0.00     0.034 A 
HETATM   17  C   UNL     1      41.469 -12.234   5.791  1.00  0.00     0.041 A 
HETATM   18  C   UNL     1      41.717 -10.972   6.336  1.00  0.00     0.035 A 
HETATM   19  C   UNL     1      42.983 -10.630   6.810  1.00  0.00     0.030 A 
HETATM   20 CL   UNL     1      40.440  -9.820   6.414  1.00  0.00    -0.084 Cl
HETATM   21  C   UNL     1      44.032 -11.551   6.731  1.00  0.00    -0.059 A 
HETATM   22  C   UNL     1      45.402 -11.202   7.233  1.00  0.00     0.048 C 
HETATM   23  C   UNL     1      43.778 -12.828   6.208  1.00  0.00     0.024 A 
ENDBRANCH   1  16
TORSDOF 3
ENDMDL
MODEL 5
REMARK VINA RESULT:      -7.3      3.694      7.970
REMARK  3 active torsions:
REMARK  status: ('A' for Active; 'I' for Inactive)
REMARK    1  A    between atoms: C_7  and  C_8 
REMARK       I    between atoms: C_8  and  N_9 
REMARK    2  A    between atoms: N_9  and  C_10 
REMARK    3  A    between atoms: C_13  and  C_14 
REMARK       I    between atoms: C_14  and  N_15 
ROOT
HETATM    1  C   UNL     1      40.509 -14.930   0.611  1.00  0.00     0.256 C 
HETATM    2  N   UNL     1      41.846 -14.910   0.964  1.00  0.00    -0.322 N 
HETATM    3  O   UNL     1      39.618 -15.488   1.242  1.00  0.00    -0.267 OA
HETATM    4  H   UNL     1      42.506 -14.505   0.315  1.00  0.00     0.169 HD
ENDROOT
BRANCH   2   5
HETATM    5  C   UNL     1      42.407 -15.439   2.150  1.00  0.00     0.052 A 
HETATM    6  C   UNL     1      42.576 -14.737   3.343  1.00  0.00     0.147 A 
HETATM    7  N   UNL     1      43.135 -15.260   4.467  1.00  0.00    -0.253 NA
HETATM    8  C   UNL     1      43.549 -16.553   4.392  1.00  0.00     0.124 A 
HETATM    9  C   UNL     1      43.424 -17.337   3.255  1.00  0.00     0.039 A 
HETATM   10  C   UNL     1      42.842 -16.768   2.122  1.00  0.00     0.033 A 
BRANCH   8  11
HETATM   11  C   UNL     1      44.175 -17.123   5.626  1.00  0.00     0.268 C 
HETATM   12  N   UNL     1      43.841 -18.421   5.903  1.00  0.00    -0.365 N 
HETATM   13  H   UNL     1      43.206 -18.913   5.282  1.00  0.00     0.159 HD
HETATM   14  H   UNL     1      44.219 -18.876   6.720  1.00  0.00     0.159 HD
HETATM   15  O   UNL     1      44.933 -16.480   6.341  1.00  0.00    -0.266 OA
ENDBRANCH   8  11
ENDBRANCH   2   5
BRANCH   1  16
HETATM   16  C   UNL     1      40.141 -14.221  -0.655  1.00  0.00     0.034 A 
HETATM   17  C   UNL     1      39.325 -14.795  -1.637  1.00  0.00     0.041 A 
HETATM   18  C   UNL     1      39.038 -14.078  -2.800  1.00  0.00     0.035 A 
HETATM   19  C   UNL     1      39.569 -12.806  -3.010  1.00  0.00     0.030 A 
HETATM   20 CL   UNL     1      38.018 -14.782  -3.995  1.00  0.00    -0.084 Cl
HETATM   21  C   UNL     1      40.416 -12.236  -2.055  1.00  0.00    -0.059 A 
HETATM   22  C   UNL     1      41.001 -10.869  -2.263  1.00  0.00     0.048 C 
HETATM   23  C   UNL     1      40.685 -12.943  -0.875  1.00  0.00     0.024 A 
ENDBRANCH   1  16
TORSDOF 3
ENDMDL
MODEL 6
REMARK VINA RESULT:      -7.1      5.903      7.825
REMARK  3 active torsions:
REMARK  status: ('A' for Active; 'I' for Inactive)
REMARK    1  A    between atoms: C_7  and  C_8 
REMARK       I    between atoms: C_8  and  N_9 
REMARK    2  A    between atoms: N_9  and  C_10 
REMARK    3  A    between atoms: C_13  and  C_14 
REMARK       I    between atoms: C_14  and  N_15 
ROOT
HETATM    1  C   UNL     1      43.357 -14.514   6.303  1.00  0.00     0.256 C 
HETATM    2  N   UNL     1      43.796 -13.280   5.855  1.00  0.00    -0.322 N 
HETATM    3  O   UNL     1      42.960 -14.754   7.438  1.00  0.00    -0.267 OA
HETATM    4  H   UNL     1      44.196 -13.224   4.929  1.00  0.00     0.169 HD
ENDROOT
BRANCH   2   5
HETATM    5  C   UNL     1      43.776 -12.070   6.584  1.00  0.00     0.052 A 
HETATM    6  C   UNL     1      42.691 -11.198   6.669  1.00  0.00     0.147 A 
HETATM    7  N   UNL     1      42.698 -10.029   7.361  1.00  0.00    -0.253 NA
HETATM    8  C   UNL     1      43.856  -9.712   8.001  1.00  0.00     0.124 A 
HETATM    9  C   UNL     1      44.991 -10.510   7.981  1.00  0.00     0.039 A 
HETATM   10  C   UNL     1      44.943 -11.705   7.263  1.00  0.00     0.033 A 
BRANCH   8  11
HETATM   11  C   UNL     1      43.867  -8.418   8.753  1.00  0.00     0.268 C 
HETATM   12  N   UNL     1      43.780  -8.533  10.114  1.00  0.00    -0.365 N 
HETATM   13  H   UNL     1      43.710  -9.457  10.529  1.00  0.00     0.159 HD
HETATM   14  H   UNL     1      43.778  -7.706  10.691  1.00  0.00     0.159 HD
HETATM   15  O   UNL     1      43.950  -7.330   8.197  1.00  0.00    -0.266 OA
ENDBRANCH   8  11
ENDBRANCH   2   5
BRANCH   1  16
HETATM   16  C   UNL     1      43.392 -15.636   5.313  1.00  0.00     0.034 A 
HETATM   17  C   UNL     1      43.702 -16.953   5.669  1.00  0.00     0.041 A 
HETATM   18  C   UNL     1      43.730 -17.945   4.687  1.00  0.00     0.035 A 
HETATM   19  C   UNL     1      43.475 -17.640   3.350  1.00  0.00     0.030 A 
HETATM   20 CL   UNL     1      44.093 -19.567   5.134  1.00  0.00    -0.084 Cl
HETATM   21  C   UNL     1      43.201 -16.322   2.973  1.00  0.00    -0.059 A 
HETATM   22  C   UNL     1      42.927 -15.972   1.540  1.00  0.00     0.048 C 
HETATM   23  C   UNL     1      43.147 -15.329   3.963  1.00  0.00     0.024 A 
ENDBRANCH   1  16
TORSDOF 3
ENDMDL
MODEL 7
REMARK VINA RESULT:      -7.1      3.574      7.877
REMARK  3 active torsions:
REMARK  status: ('A' for Active; 'I' for Inactive)
REMARK    1  A    between atoms: C_7  and  C_8 
REMARK       I    between atoms: C_8  and  N_9 
REMARK    2  A    between atoms: N_9  and  C_10 
REMARK    3  A    between atoms: C_13  and  C_14 
REMARK       I    between atoms: C_14  and  N_15 
ROOT
HETATM    1  C   UNL     1      40.687 -13.987   0.866  1.00  0.00     0.256 C 
HETATM    2  N   UNL     1      40.495 -15.249   1.400  1.00  0.00    -0.322 N 
HETATM    3  O   UNL     1      41.589 -13.217   1.176  1.00  0.00    -0.267 OA
HETATM    4  H   UNL     1      39.659 -15.754   1.144  1.00  0.00     0.169 HD
ENDROOT
BRANCH   2   5
HETATM    5  C   UNL     1      41.348 -15.909   2.314  1.00  0.00     0.052 A 
HETATM    6  C   UNL     1      41.151 -15.982   3.693  1.00  0.00     0.147 A 
HETATM    7  N   UNL     1      41.993 -16.607   4.556  1.00  0.00    -0.253 NA
HETATM    8  C   UNL     1      43.095 -17.188   4.012  1.00  0.00     0.124 A 
HETATM    9  C   UNL     1      43.383 -17.175   2.655  1.00  0.00     0.039 A 
HETATM   10  C   UNL     1      42.492 -16.528   1.799  1.00  0.00     0.033 A 
BRANCH   8  11
HETATM   11  C   UNL     1      44.029 -17.866   4.966  1.00  0.00     0.268 C 
HETATM   12  N   UNL     1      44.478 -19.096   4.568  1.00  0.00    -0.365 N 
HETATM   13  H   UNL     1      44.162 -19.476   3.682  1.00  0.00     0.159 HD
HETATM   14  H   UNL     1      45.108 -19.618   5.158  1.00  0.00     0.159 HD
HETATM   15  O   UNL     1      44.373 -17.360   6.027  1.00  0.00    -0.266 OA
ENDBRANCH   8  11
ENDBRANCH   2   5
BRANCH   1  16
HETATM   16  C   UNL     1      39.692 -13.536  -0.157  1.00  0.00     0.034 A 
HETATM   17  C   UNL     1      38.941 -12.364  -0.021  1.00  0.00     0.041 A 
HETATM   18  C   UNL     1      38.020 -12.016  -1.011  1.00  0.00     0.035 A 
HETATM   19  C   UNL     1      37.821 -12.830  -2.126  1.00  0.00     0.030 A 
HETATM   20 CL   UNL     1      37.112 -10.563  -0.847  1.00  0.00    -0.084 Cl
HETATM   21  C   UNL     1      38.538 -14.023  -2.258  1.00  0.00    -0.059 A 
HETATM   22  C   UNL     1      38.337 -14.915  -3.448  1.00  0.00     0.048 C 
HETATM   23  C   UNL     1      39.482 -14.361  -1.277  1.00  0.00     0.024 A 
ENDBRANCH   1  16
TORSDOF 3
ENDMDL
MODEL 8
REMARK VINA RESULT:      -6.6      2.378      2.772
REMARK  3 active torsions:
REMARK  status: ('A' for Active; 'I' for Inactive)
REMARK    1  A    between atoms: C_7  and  C_8 
REMARK       I    between atoms: C_8  and  N_9 
REMARK    2  A    between atoms: N_9  and  C_10 
REMARK    3  A    between atoms: C_13  and  C_14 
REMARK       I    between atoms: C_14  and  N_15 
ROOT
HETATM    1  C   UNL     1      42.339 -14.309   2.617  1.00  0.00     0.256 C 
HETATM    2  N   UNL     1      40.976 -14.164   2.432  1.00  0.00    -0.322 N 
HETATM    3  O   UNL     1      43.182 -14.277   1.727  1.00  0.00    -0.267 OA
HETATM    4  H   UNL     1      40.368 -14.309   3.226  1.00  0.00     0.169 HD
ENDROOT
BRANCH   2   5
HETATM    5  C   UNL     1      40.324 -13.859   1.215  1.00  0.00     0.052 A 
HETATM    6  C   UNL     1      39.854 -12.599   0.846  1.00  0.00     0.147 A 
HETATM    7  N   UNL     1      39.213 -12.332  -0.322  1.00  0.00    -0.253 NA
HETATM    8  C   UNL     1      39.030 -13.382  -1.166  1.00  0.00     0.124 A 
HETATM    9  C   UNL     1      39.461 -14.673  -0.895  1.00  0.00     0.039 A 
HETATM   10  C   UNL     1      40.119 -14.908   0.312  1.00  0.00     0.033 A 
BRANCH   8  11
HETATM   11  C   UNL     1      38.313 -13.089  -2.447  1.00  0.00     0.268 C 
HETATM   12  N   UNL     1      38.794 -12.020  -3.153  1.00  0.00    -0.365 N 
HETATM   13  H   UNL     1      39.581 -11.496  -2.783  1.00  0.00     0.159 HD
HETATM   14  H   UNL     1      38.362 -11.756  -4.025  1.00  0.00     0.159 HD
HETATM   15  O   UNL     1      37.365 -13.755  -2.842  1.00  0.00    -0.266 OA
ENDBRANCH   8  11
ENDBRANCH   2   5
BRANCH   1  16
HETATM   16  C   UNL     1      42.803 -14.539   4.022  1.00  0.00     0.034 A 
HETATM   17  C   UNL     1      43.081 -13.495   4.910  1.00  0.00     0.041 A 
HETATM   18  C   UNL     1      43.524 -13.787   6.201  1.00  0.00     0.035 A 
HETATM   19  C   UNL     1      43.716 -15.106   6.614  1.00  0.00     0.030 A 
HETATM   20 CL   UNL     1      43.847 -12.499   7.296  1.00  0.00    -0.084 Cl
HETATM   21  C   UNL     1      43.479 -16.158   5.725  1.00  0.00    -0.059 A 
HETATM   22  C   UNL     1      43.683 -17.584   6.148  1.00  0.00     0.048 C 
HETATM   23  C   UNL     1      43.008 -15.867   4.436  1.00  0.00     0.024 A 
ENDBRANCH   1  16
TORSDOF 3
ENDMDL
MODEL 9
REMARK VINA RESULT:      -6.6     14.794     16.396
REMARK  3 active torsions:
REMARK  status: ('A' for Active; 'I' for Inactive)
REMARK    1  A    between atoms: C_7  and  C_8 
REMARK       I    between atoms: C_8  and  N_9 
REMARK    2  A    between atoms: N_9  and  C_10 
REMARK    3  A    between atoms: C_13  and  C_14 
REMARK       I    between atoms: C_14  and  N_15 
ROOT
HETATM    1  C   UNL     1      42.937 -29.375   0.601  1.00  0.00     0.256 C 
HETATM    2  N   UNL     1      42.909 -30.616   1.213  1.00  0.00    -0.322 N 
HETATM    3  O   UNL     1      42.126 -28.475   0.790  1.00  0.00    -0.267 OA
HETATM    4  H   UNL     1      43.570 -31.315   0.904  1.00  0.00     0.169 HD
ENDROOT
BRANCH   2   5
HETATM    5  C   UNL     1      42.013 -31.031   2.223  1.00  0.00     0.052 A 
HETATM    6  C   UNL     1      42.136 -30.736   3.581  1.00  0.00     0.147 A 
HETATM    7  N   UNL     1      41.272 -31.161   4.540  1.00  0.00    -0.253 NA
HETATM    8  C   UNL     1      40.229 -31.925   4.119  1.00  0.00     0.124 A 
HETATM    9  C   UNL     1      40.015 -32.274   2.793  1.00  0.00     0.039 A 
HETATM   10  C   UNL     1      40.920 -31.815   1.837  1.00  0.00     0.033 A 
BRANCH   8  11
HETATM   11  C   UNL     1      39.284 -32.403   5.177  1.00  0.00     0.268 C 
HETATM   12  N   UNL     1      38.356 -33.319   4.761  1.00  0.00    -0.365 N 
HETATM   13  H   UNL     1      38.352 -33.614   3.790  1.00  0.00     0.159 HD
HETATM   14  H   UNL     1      37.682 -33.686   5.414  1.00  0.00     0.159 HD
HETATM   15  O   UNL     1      39.334 -32.008   6.335  1.00  0.00    -0.266 OA
ENDBRANCH   8  11
ENDBRANCH   2   5
BRANCH   1  16
HETATM   16  C   UNL     1      44.042 -29.136  -0.379  1.00  0.00     0.034 A 
HETATM   17  C   UNL     1      45.295 -28.638  -0.004  1.00  0.00     0.041 A 
HETATM   18  C   UNL     1      46.273 -28.427  -0.978  1.00  0.00     0.035 A 
HETATM   19  C   UNL     1      46.014 -28.684  -2.324  1.00  0.00     0.030 A 
HETATM   20 CL   UNL     1      47.818 -27.831  -0.508  1.00  0.00    -0.084 Cl
HETATM   21  C   UNL     1      44.756 -29.147  -2.718  1.00  0.00    -0.059 A 
HETATM   22  C   UNL     1      44.456 -29.427  -4.161  1.00  0.00     0.048 C 
HETATM   23  C   UNL     1      43.781 -29.385  -1.738  1.00  0.00     0.024 A 
ENDBRANCH   1  16
TORSDOF 3
ENDMDL
MODEL 10
REMARK VINA RESULT:      -6.6      1.800      2.760
REMARK  3 active torsions:
REMARK  status: ('A' for Active; 'I' for Inactive)
REMARK    1  A    between atoms: C_7  and  C_8 
REMARK       I    between atoms: C_8  and  N_9 
REMARK    2  A    between atoms: N_9  and  C_10 
REMARK    3  A    between atoms: C_13  and  C_14 
REMARK       I    between atoms: C_14  and  N_15 
ROOT
HETATM    1  C   UNL     1      40.839 -15.146   2.988  1.00  0.00     0.256 C 
HETATM    2  N   UNL     1      41.098 -14.104   2.115  1.00  0.00    -0.322 N 
HETATM    3  O   UNL     1      39.847 -15.866   2.956  1.00  0.00    -0.267 OA
HETATM    4  H   UNL     1      41.897 -13.514   2.300  1.00  0.00     0.169 HD
ENDROOT
BRANCH   2   5
HETATM    5  C   UNL     1      40.326 -13.746   0.986  1.00  0.00     0.052 A 
HETATM    6  C   UNL     1      39.610 -12.558   0.842  1.00  0.00     0.147 A 
HETATM    7  N   UNL     1      38.859 -12.242  -0.245  1.00  0.00    -0.253 NA
HETATM    8  C   UNL     1      38.820 -13.166  -1.243  1.00  0.00     0.124 A 
HETATM    9  C   UNL     1      39.496 -14.376  -1.199  1.00  0.00     0.039 A 
HETATM   10  C   UNL     1      40.261 -14.664  -0.068  1.00  0.00     0.033 A 
BRANCH   8  11
HETATM   11  C   UNL     1      37.982 -12.822  -2.435  1.00  0.00     0.268 C 
HETATM   12  N   UNL     1      38.423 -11.754  -3.168  1.00  0.00    -0.365 N 
HETATM   13  H   UNL     1      39.261 -11.264  -2.875  1.00  0.00     0.159 HD
HETATM   14  H   UNL     1      37.910 -11.457  -3.985  1.00  0.00     0.159 HD
HETATM   15  O   UNL     1      36.975 -13.449  -2.739  1.00  0.00    -0.266 OA
ENDBRANCH   8  11
ENDBRANCH   2   5
BRANCH   1  16
HETATM   16  C   UNL     1      41.854 -15.388   4.060  1.00  0.00     0.034 A 
HETATM   17  C   UNL     1      42.274 -16.669   4.433  1.00  0.00     0.041 A 
HETATM   18  C   UNL     1      43.215 -16.817   5.454  1.00  0.00     0.035 A 
HETATM   19  C   UNL     1      43.728 -15.708   6.125  1.00  0.00     0.030 A 
HETATM   20 CL   UNL     1      43.741 -18.396   5.896  1.00  0.00    -0.084 Cl
HETATM   21  C   UNL     1      43.290 -14.423   5.790  1.00  0.00    -0.059 A 
HETATM   22  C   UNL     1      43.826 -13.216   6.501  1.00  0.00     0.048 C 
HETATM   23  C   UNL     1      42.365 -14.272   4.746  1.00  0.00     0.024 A 
ENDBRANCH   1  16
TORSDOF 3
ENDMDL
