MODEL 1
REMARK VINA RESULT:      -8.2      0.000      0.000
REMARK  9 active torsions:
REMARK  status: ('A' for Active; 'I' for Inactive)
REMARK    1  A    between atoms: C_3  and  O_4 
REMARK    2  A    between atoms: O_4  and  C_5 
REMARK    3  A    between atoms: C_5  and  C_6 
REMARK    4  A    between atoms: N_7  and  C_8 
REMARK    5  A    between atoms: C_8  and  C_9 
REMARK    6  A    between atoms: C_9  and  C_10 
REMARK    7  A    between atoms: C_16  and  S_17 
REMARK    8  A    between atoms: S_17  and  C_18 
REMARK    9  A    between atoms: C_18  and  C_19 
REMARK       I    between atoms: C_19  and  N_20 
ROOT
HETATM    1  C   UNL     1      43.105 -15.010   6.078  1.00  0.00     0.155 A 
HETATM    2  N   UNL     1      43.197 -13.769   5.476  1.00  0.00    -0.309 N 
HETATM    3  C   UNL     1      43.503 -12.907   6.501  1.00  0.00     0.192 A 
HETATM    4  N   UNL     1      43.547 -13.559   7.638  1.00  0.00    -0.123 NA
HETATM    5  N   UNL     1      43.306 -14.875   7.377  1.00  0.00    -0.132 NA
ENDROOT
BRANCH   1   6
HETATM    6  C   UNL     1      42.764 -16.302   5.419  1.00  0.00     0.256 C 
BRANCH   6   7
HETATM    7  O   UNL     1      43.867 -16.683   4.602  1.00  0.00    -0.343 OA
BRANCH   7   8
HETATM    8  C   UNL     1      43.826 -17.973   4.138  1.00  0.00     0.075 A 
HETATM    9  C   UNL     1      43.505 -18.143   2.781  1.00  0.00    -0.029 A 
HETATM   10  C   UNL     1      43.271 -16.961   1.883  1.00  0.00     0.051 C 
HETATM   11  C   UNL     1      43.474 -19.438   2.242  1.00  0.00     0.009 A 
HETATM   12  C   UNL     1      43.722 -20.550   3.047  1.00  0.00     0.001 A 
HETATM   13  C   UNL     1      44.002 -20.378   4.400  1.00  0.00     0.003 A 
HETATM   14  C   UNL     1      44.050 -19.095   4.947  1.00  0.00     0.037 A 
ENDBRANCH   7   8
ENDBRANCH   6   7
ENDBRANCH   1   6
BRANCH   2  15
HETATM   15  C   UNL     1      43.003 -13.450   4.069  1.00  0.00     0.137 C 
BRANCH  15  16
HETATM   16  C   UNL     1      41.531 -13.220   3.697  1.00  0.00     0.059 C 
BRANCH  16  17
HETATM   17  C   UNL     1      41.031 -13.954   2.475  1.00  0.00    -0.057 A 
HETATM   18  C   UNL     1      41.171 -13.420   1.188  1.00  0.00     0.007 A 
HETATM   19  C   UNL     1      40.620 -14.072   0.082  1.00  0.00     0.001 A 
HETATM   20  C   UNL     1      39.910 -15.260   0.249  1.00  0.00     0.000 A 
HETATM   21  C   UNL     1      39.758 -15.801   1.521  1.00  0.00     0.001 A 
HETATM   22  C   UNL     1      40.314 -15.154   2.627  1.00  0.00     0.007 A 
ENDBRANCH  16  17
ENDBRANCH  15  16
ENDBRANCH   2  15
BRANCH   3  23
HETATM   23  S   UNL     1      43.784 -11.210   6.332  1.00  0.00    -0.081 SA
BRANCH  23  24
HETATM   24  C   UNL     1      45.559 -11.106   6.713  1.00  0.00     0.185 C 
BRANCH  24  25
HETATM   25  C   UNL     1      45.823 -10.212   7.913  1.00  0.00     0.226 C 
HETATM   26  N   UNL     1      45.071 -10.511   9.031  1.00  0.00    -0.365 N 
HETATM   27  C   UNL     1      45.248  -9.781  10.261  1.00  0.00     0.149 C 
HETATM   28  H   UNL     1      44.724 -11.468   9.100  1.00  0.00     0.161 HD
HETATM   29  O   UNL     1      46.620  -9.276   7.871  1.00  0.00    -0.273 OA
ENDBRANCH  24  25
ENDBRANCH  23  24
ENDBRANCH   3  23
TORSDOF 9
ENDMDL
MODEL 2
REMARK VINA RESULT:      -8.1      3.541      7.436
REMARK  9 active torsions:
REMARK  status: ('A' for Active; 'I' for Inactive)
REMARK    1  A    between atoms: C_3  and  O_4 
REMARK    2  A    between atoms: O_4  and  C_5 
REMARK    3  A    between atoms: C_5  and  C_6 
REMARK    4  A    between atoms: N_7  and  C_8 
REMARK    5  A    between atoms: C_8  and  C_9 
REMARK    6  A    between atoms: C_9  and  C_10 
REMARK    7  A    between atoms: C_16  and  S_17 
REMARK    8  A    between atoms: S_17  and  C_18 
REMARK    9  A    between atoms: C_18  and  C_19 
REMARK       I    between atoms: C_19  and  N_20 
ROOT
HETATM    1  C   UNL     1      42.433 -12.357   3.210  1.00  0.00     0.155 A 
HETATM    2  N   UNL     1      42.341 -13.512   2.456  1.00  0.00    -0.309 N 
HETATM    3  C   UNL     1      41.353 -13.250   1.538  1.00  0.00     0.192 A 
HETATM    4  N   UNL     1      40.852 -12.055   1.747  1.00  0.00    -0.123 NA
HETATM    5  N   UNL     1      41.531 -11.492   2.786  1.00  0.00    -0.132 NA
ENDROOT
BRANCH   1   6
HETATM    6  C   UNL     1      43.338 -12.115   4.369  1.00  0.00     0.256 C 
BRANCH   6   7
HETATM    7  O   UNL     1      42.564 -12.222   5.561  1.00  0.00    -0.343 OA
BRANCH   7   8
HETATM    8  C   UNL     1      42.488 -13.484   6.092  1.00  0.00     0.075 A 
HETATM    9  C   UNL     1      41.206 -14.050   6.186  1.00  0.00    -0.029 A 
HETATM   10  C   UNL     1      39.993 -13.318   5.682  1.00  0.00     0.051 C 
HETATM   11  C   UNL     1      41.067 -15.350   6.696  1.00  0.00     0.009 A 
HETATM   12  C   UNL     1      42.180 -16.062   7.139  1.00  0.00     0.001 A 
HETATM   13  C   UNL     1      43.445 -15.483   7.078  1.00  0.00     0.003 A 
HETATM   14  C   UNL     1      43.599 -14.196   6.560  1.00  0.00     0.037 A 
ENDBRANCH   7   8
ENDBRANCH   6   7
ENDBRANCH   1   6
BRANCH   2  15
HETATM   15  C   UNL     1      43.116 -14.735   2.609  1.00  0.00     0.137 C 
BRANCH  15  16
HETATM   16  C   UNL     1      42.317 -15.883   3.242  1.00  0.00     0.059 C 
BRANCH  16  17
HETATM   17  C   UNL     1      42.955 -17.251   3.180  1.00  0.00    -0.057 A 
HETATM   18  C   UNL     1      42.633 -18.168   2.171  1.00  0.00     0.007 A 
HETATM   19  C   UNL     1      43.165 -19.459   2.186  1.00  0.00     0.001 A 
HETATM   20  C   UNL     1      44.016 -19.857   3.215  1.00  0.00     0.000 A 
HETATM   21  C   UNL     1      44.341 -18.960   4.228  1.00  0.00     0.001 A 
HETATM   22  C   UNL     1      43.816 -17.666   4.211  1.00  0.00     0.007 A 
ENDBRANCH  16  17
ENDBRANCH  15  16
ENDBRANCH   2  15
BRANCH   3  23
HETATM   23  S   UNL     1      40.831 -14.329   0.293  1.00  0.00    -0.081 SA
BRANCH  23  24
HETATM   24  C   UNL     1      39.954 -13.187  -0.818  1.00  0.00     0.185 C 
BRANCH  24  25
HETATM   25  C   UNL     1      39.708 -13.811  -2.182  1.00  0.00     0.226 C 
HETATM   26  N   UNL     1      38.424 -14.275  -2.380  1.00  0.00    -0.365 N 
HETATM   27  C   UNL     1      38.029 -14.846  -3.642  1.00  0.00     0.149 C 
HETATM   28  H   UNL     1      37.694 -13.845  -1.811  1.00  0.00     0.161 HD
HETATM   29  O   UNL     1      40.599 -13.920  -3.023  1.00  0.00    -0.273 OA
ENDBRANCH  24  25
ENDBRANCH  23  24
ENDBRANCH   3  23
TORSDOF 9
ENDMDL
MODEL 3
REMARK VINA RESULT:      -8.1      3.588      7.057
REMARK  9 active torsions:
REMARK  status: ('A' for Active; 'I' for Inactive)
REMARK    1  A    between atoms: C_3  and  O_4 
REMARK    2  A    between atoms: O_4  and  C_5 
REMARK    3  A    between atoms: C_5  and  C_6 
REMARK    4  A    between atoms: N_7  and  C_8 
REMARK    5  A    between atoms: C_8  and  C_9 
REMARK    6  A    between atoms: C_9  and  C_10 
REMARK    7  A    between atoms: C_16  and  S_17 
REMARK    8  A    between atoms: S_17  and  C_18 
REMARK    9  A    between atoms: C_18  and  C_19 
REMARK       I    between atoms: C_19  and  N_20 
ROOT
HETATM    1  C   UNL     1      40.753 -15.499   2.436  1.00  0.00     0.155 A 
HETATM    2  N   UNL     1      40.640 -14.136   2.229  1.00  0.00    -0.309 N 
HETATM    3  C   UNL     1      40.039 -14.020   0.999  1.00  0.00     0.192 A 
HETATM    4  N   UNL     1      39.847 -15.209   0.479  1.00  0.00    -0.123 NA
HETATM    5  N   UNL     1      40.285 -16.135   1.378  1.00  0.00    -0.132 NA
ENDROOT
BRANCH   1   6
HETATM    6  C   UNL     1      41.365 -16.177   3.613  1.00  0.00     0.256 C 
BRANCH   6   7
HETATM    7  O   UNL     1      42.744 -16.392   3.328  1.00  0.00    -0.343 OA
BRANCH   7   8
HETATM    8  C   UNL     1      43.129 -17.708   3.285  1.00  0.00     0.075 A 
HETATM    9  C   UNL     1      43.846 -18.189   4.393  1.00  0.00    -0.029 A 
HETATM   10  C   UNL     1      44.127 -17.310   5.579  1.00  0.00     0.051 C 
HETATM   11  C   UNL     1      44.244 -19.534   4.419  1.00  0.00     0.009 A 
HETATM   12  C   UNL     1      43.965 -20.379   3.345  1.00  0.00     0.001 A 
HETATM   13  C   UNL     1      43.287 -19.888   2.233  1.00  0.00     0.003 A 
HETATM   14  C   UNL     1      42.873 -18.555   2.199  1.00  0.00     0.037 A 
ENDBRANCH   7   8
ENDBRANCH   6   7
ENDBRANCH   1   6
BRANCH   2  15
HETATM   15  C   UNL     1      41.070 -13.065   3.118  1.00  0.00     0.137 C 
BRANCH  15  16
HETATM   16  C   UNL     1      42.584 -12.811   3.071  1.00  0.00     0.059 C 
BRANCH  16  17
HETATM   17  C   UNL     1      43.276 -12.673   4.406  1.00  0.00    -0.057 A 
HETATM   18  C   UNL     1      43.076 -13.599   5.438  1.00  0.00     0.007 A 
HETATM   19  C   UNL     1      43.653 -13.403   6.694  1.00  0.00     0.001 A 
HETATM   20  C   UNL     1      44.428 -12.271   6.942  1.00  0.00     0.000 A 
HETATM   21  C   UNL     1      44.631 -11.338   5.930  1.00  0.00     0.001 A 
HETATM   22  C   UNL     1      44.061 -11.537   4.670  1.00  0.00     0.007 A 
ENDBRANCH  16  17
ENDBRANCH  15  16
ENDBRANCH   2  15
BRANCH   3  23
HETATM   23  S   UNL     1      39.604 -12.532   0.234  1.00  0.00    -0.081 SA
BRANCH  23  24
HETATM   24  C   UNL     1      40.781 -12.490  -1.151  1.00  0.00     0.185 C 
BRANCH  24  25
HETATM   25  C   UNL     1      40.248 -13.237  -2.363  1.00  0.00     0.226 C 
HETATM   26  N   UNL     1      38.952 -13.694  -2.233  1.00  0.00    -0.365 N 
HETATM   27  C   UNL     1      38.294 -14.376  -3.318  1.00  0.00     0.149 C 
HETATM   28  H   UNL     1      38.362 -13.199  -1.564  1.00  0.00     0.161 HD
HETATM   29  O   UNL     1      40.935 -13.440  -3.362  1.00  0.00    -0.273 OA
ENDBRANCH  24  25
ENDBRANCH  23  24
ENDBRANCH   3  23
TORSDOF 9
ENDMDL
MODEL 4
REMARK VINA RESULT:      -8.0      2.725      5.457
REMARK  9 active torsions:
REMARK  status: ('A' for Active; 'I' for Inactive)
REMARK    1  A    between atoms: C_3  and  O_4 
REMARK    2  A    between atoms: O_4  and  C_5 
REMARK    3  A    between atoms: C_5  and  C_6 
REMARK    4  A    between atoms: N_7  and  C_8 
REMARK    5  A    between atoms: C_8  and  C_9 
REMARK    6  A    between atoms: C_9  and  C_10 
REMARK    7  A    between atoms: C_16  and  S_17 
REMARK    8  A    between atoms: S_17  and  C_18 
REMARK    9  A    between atoms: C_18  and  C_19 
REMARK       I    between atoms: C_19  and  N_20 
ROOT
HETATM    1  C   UNL     1      42.251 -15.185   5.446  1.00  0.00     0.155 A 
HETATM    2  N   UNL     1      42.414 -13.941   6.026  1.00  0.00    -0.309 N 
HETATM    3  C   UNL     1      41.472 -13.147   5.416  1.00  0.00     0.192 A 
HETATM    4  N   UNL     1      40.824 -13.837   4.508  1.00  0.00    -0.123 NA
HETATM    5  N   UNL     1      41.303 -15.113   4.530  1.00  0.00    -0.132 NA
ENDROOT
BRANCH   1   6
HETATM    6  C   UNL     1      43.045 -16.414   5.728  1.00  0.00     0.256 C 
BRANCH   6   7
HETATM    7  O   UNL     1      43.903 -16.647   4.613  1.00  0.00    -0.343 OA
BRANCH   7   8
HETATM    8  C   UNL     1      43.830 -17.909   4.081  1.00  0.00     0.075 A 
HETATM    9  C   UNL     1      43.404 -18.003   2.745  1.00  0.00    -0.029 A 
HETATM   10  C   UNL     1      43.097 -16.773   1.938  1.00  0.00     0.051 C 
HETATM   11  C   UNL     1      43.335 -19.265   2.136  1.00  0.00     0.009 A 
HETATM   12  C   UNL     1      43.647 -20.420   2.854  1.00  0.00     0.001 A 
HETATM   13  C   UNL     1      44.032 -20.324   4.188  1.00  0.00     0.003 A 
HETATM   14  C   UNL     1      44.119 -19.074   4.803  1.00  0.00     0.037 A 
ENDBRANCH   7   8
ENDBRANCH   6   7
ENDBRANCH   1   6
BRANCH   2  15
HETATM   15  C   UNL     1      43.376 -13.558   7.050  1.00  0.00     0.137 C 
BRANCH  15  16
HETATM   16  C   UNL     1      44.522 -12.691   6.510  1.00  0.00     0.059 C 
BRANCH  16  17
HETATM   17  C   UNL     1      44.859 -11.458   7.314  1.00  0.00    -0.057 A 
HETATM   18  C   UNL     1      46.050 -10.749   7.110  1.00  0.00     0.007 A 
HETATM   19  C   UNL     1      46.384  -9.667   7.927  1.00  0.00     0.001 A 
HETATM   20  C   UNL     1      45.541  -9.286   8.969  1.00  0.00     0.000 A 
HETATM   21  C   UNL     1      44.357  -9.984   9.190  1.00  0.00     0.001 A 
HETATM   22  C   UNL     1      44.017 -11.062   8.369  1.00  0.00     0.007 A 
ENDBRANCH  16  17
ENDBRANCH  15  16
ENDBRANCH   2  15
BRANCH   3  23
HETATM   23  S   UNL     1      41.180 -11.482   5.777  1.00  0.00    -0.081 SA
BRANCH  23  24
HETATM   24  C   UNL     1      39.467 -11.548   6.384  1.00  0.00     0.185 C 
BRANCH  24  25
HETATM   25  C   UNL     1      39.141 -10.358   7.271  1.00  0.00     0.226 C 
HETATM   26  N   UNL     1      39.285 -10.591   8.623  1.00  0.00    -0.365 N 
HETATM   27  C   UNL     1      39.061  -9.541   9.584  1.00  0.00     0.149 C 
HETATM   28  H   UNL     1      39.927 -11.339   8.888  1.00  0.00     0.161 HD
HETATM   29  O   UNL     1      38.748  -9.287   6.812  1.00  0.00    -0.273 OA
ENDBRANCH  24  25
ENDBRANCH  23  24
ENDBRANCH   3  23
TORSDOF 9
ENDMDL
MODEL 5
REMARK VINA RESULT:      -7.9      3.807      6.313
REMARK  9 active torsions:
REMARK  status: ('A' for Active; 'I' for Inactive)
REMARK    1  A    between atoms: C_3  and  O_4 
REMARK    2  A    between atoms: O_4  and  C_5 
REMARK    3  A    between atoms: C_5  and  C_6 
REMARK    4  A    between atoms: N_7  and  C_8 
REMARK    5  A    between atoms: C_8  and  C_9 
REMARK    6  A    between atoms: C_9  and  C_10 
REMARK    7  A    between atoms: C_16  and  S_17 
REMARK    8  A    between atoms: S_17  and  C_18 
REMARK    9  A    between atoms: C_18  and  C_19 
REMARK       I    between atoms: C_19  and  N_20 
ROOT
HETATM    1  C   UNL     1      42.060 -15.711   2.344  1.00  0.00     0.155 A 
HETATM    2  N   UNL     1      41.719 -14.382   2.519  1.00  0.00    -0.309 N 
HETATM    3  C   UNL     1      40.411 -14.302   2.104  1.00  0.00     0.192 A 
HETATM    4  N   UNL     1      40.006 -15.471   1.669  1.00  0.00    -0.123 NA
HETATM    5  N   UNL     1      41.031 -16.355   1.825  1.00  0.00    -0.132 NA
ENDROOT
BRANCH   1   6
HETATM    6  C   UNL     1      43.385 -16.337   2.614  1.00  0.00     0.256 C 
BRANCH   6   7
HETATM    7  O   UNL     1      43.298 -17.716   2.267  1.00  0.00    -0.343 OA
BRANCH   7   8
HETATM    8  C   UNL     1      43.539 -18.589   3.298  1.00  0.00     0.075 A 
HETATM    9  C   UNL     1      43.630 -19.949   2.960  1.00  0.00    -0.029 A 
HETATM   10  C   UNL     1      43.518 -20.406   1.532  1.00  0.00     0.051 C 
HETATM   11  C   UNL     1      43.901 -20.888   3.967  1.00  0.00     0.009 A 
HETATM   12  C   UNL     1      44.043 -20.485   5.295  1.00  0.00     0.001 A 
HETATM   13  C   UNL     1      43.914 -19.140   5.629  1.00  0.00     0.003 A 
HETATM   14  C   UNL     1      43.658 -18.194   4.636  1.00  0.00     0.037 A 
ENDBRANCH   7   8
ENDBRANCH   6   7
ENDBRANCH   1   6
BRANCH   2  15
HETATM   15  C   UNL     1      42.563 -13.308   3.022  1.00  0.00     0.137 C 
BRANCH  15  16
HETATM   16  C   UNL     1      42.204 -12.875   4.451  1.00  0.00     0.059 C 
BRANCH  16  17
HETATM   17  C   UNL     1      42.272 -13.952   5.508  1.00  0.00    -0.057 A 
HETATM   18  C   UNL     1      43.485 -14.324   6.102  1.00  0.00     0.007 A 
HETATM   19  C   UNL     1      43.539 -15.384   7.009  1.00  0.00     0.001 A 
HETATM   20  C   UNL     1      42.384 -16.097   7.327  1.00  0.00     0.000 A 
HETATM   21  C   UNL     1      41.172 -15.744   6.742  1.00  0.00     0.001 A 
HETATM   22  C   UNL     1      41.115 -14.679   5.840  1.00  0.00     0.007 A 
ENDBRANCH  16  17
ENDBRANCH  15  16
ENDBRANCH   2  15
BRANCH   3  23
HETATM   23  S   UNL     1      39.435 -12.876   2.138  1.00  0.00    -0.081 SA
BRANCH  23  24
HETATM   24  C   UNL     1      40.061 -11.986   0.682  1.00  0.00     0.185 C 
BRANCH  24  25
HETATM   25  C   UNL     1      39.594 -12.631  -0.613  1.00  0.00     0.226 C 
HETATM   26  N   UNL     1      40.602 -13.178  -1.380  1.00  0.00    -0.365 N 
HETATM   27  C   UNL     1      40.306 -13.868  -2.609  1.00  0.00     0.149 C 
HETATM   28  H   UNL     1      41.453 -13.447  -0.885  1.00  0.00     0.161 HD
HETATM   29  O   UNL     1      38.413 -12.631  -0.956  1.00  0.00    -0.273 OA
ENDBRANCH  24  25
ENDBRANCH  23  24
ENDBRANCH   3  23
TORSDOF 9
ENDMDL
MODEL 6
REMARK VINA RESULT:      -7.9      3.770      7.345
REMARK  9 active torsions:
REMARK  status: ('A' for Active; 'I' for Inactive)
REMARK    1  A    between atoms: C_3  and  O_4 
REMARK    2  A    between atoms: O_4  and  C_5 
REMARK    3  A    between atoms: C_5  and  C_6 
REMARK    4  A    between atoms: N_7  and  C_8 
REMARK    5  A    between atoms: C_8  and  C_9 
REMARK    6  A    between atoms: C_9  and  C_10 
REMARK    7  A    between atoms: C_16  and  S_17 
REMARK    8  A    between atoms: S_17  and  C_18 
REMARK    9  A    between atoms: C_18  and  C_19 
REMARK       I    between atoms: C_19  and  N_20 
ROOT
HETATM    1  C   UNL     1      39.712 -13.080   3.265  1.00  0.00     0.155 A 
HETATM    2  N   UNL     1      40.086 -14.139   2.458  1.00  0.00    -0.309 N 
HETATM    3  C   UNL     1      39.834 -13.706   1.178  1.00  0.00     0.192 A 
HETATM    4  N   UNL     1      39.305 -12.506   1.206  1.00  0.00    -0.123 NA
HETATM    5  N   UNL     1      39.235 -12.109   2.508  1.00  0.00    -0.132 NA
ENDROOT
BRANCH   1   6
HETATM    6  C   UNL     1      39.754 -13.032   4.753  1.00  0.00     0.256 C 
BRANCH   6   7
HETATM    7  O   UNL     1      41.087 -12.716   5.145  1.00  0.00    -0.343 OA
BRANCH   7   8
HETATM    8  C   UNL     1      41.707 -13.669   5.912  1.00  0.00     0.075 A 
HETATM    9  C   UNL     1      43.076 -13.480   6.164  1.00  0.00    -0.029 A 
HETATM   10  C   UNL     1      43.800 -12.265   5.656  1.00  0.00     0.051 C 
HETATM   11  C   UNL     1      43.759 -14.408   6.964  1.00  0.00     0.009 A 
HETATM   12  C   UNL     1      43.102 -15.527   7.476  1.00  0.00     0.001 A 
HETATM   13  C   UNL     1      41.754 -15.729   7.192  1.00  0.00     0.003 A 
HETATM   14  C   UNL     1      41.058 -14.807   6.409  1.00  0.00     0.037 A 
ENDBRANCH   7   8
ENDBRANCH   6   7
ENDBRANCH   1   6
BRANCH   2  15
HETATM   15  C   UNL     1      40.621 -15.427   2.875  1.00  0.00     0.137 C 
BRANCH  15  16
HETATM   16  C   UNL     1      42.156 -15.479   2.861  1.00  0.00     0.059 C 
BRANCH  16  17
HETATM   17  C   UNL     1      42.778 -16.826   3.139  1.00  0.00    -0.057 A 
HETATM   18  C   UNL     1      43.615 -17.037   4.242  1.00  0.00     0.007 A 
HETATM   19  C   UNL     1      44.253 -18.265   4.429  1.00  0.00     0.001 A 
HETATM   20  C   UNL     1      44.075 -19.297   3.509  1.00  0.00     0.000 A 
HETATM   21  C   UNL     1      43.252 -19.102   2.404  1.00  0.00     0.001 A 
HETATM   22  C   UNL     1      42.607 -17.877   2.220  1.00  0.00     0.007 A 
ENDBRANCH  16  17
ENDBRANCH  15  16
ENDBRANCH   2  15
BRANCH   3  23
HETATM   23  S   UNL     1      40.152 -14.604  -0.264  1.00  0.00    -0.081 SA
BRANCH  23  24
HETATM   24  C   UNL     1      39.147 -13.694  -1.475  1.00  0.00     0.185 C 
BRANCH  24  25
HETATM   25  C   UNL     1      39.998 -12.760  -2.320  1.00  0.00     0.226 C 
HETATM   26  N   UNL     1      40.090 -11.471  -1.838  1.00  0.00    -0.365 N 
HETATM   27  C   UNL     1      40.903 -10.486  -2.505  1.00  0.00     0.149 C 
HETATM   28  H   UNL     1      39.934 -11.349  -0.837  1.00  0.00     0.161 HD
HETATM   29  O   UNL     1      40.531 -13.126  -3.367  1.00  0.00    -0.273 OA
ENDBRANCH  24  25
ENDBRANCH  23  24
ENDBRANCH   3  23
TORSDOF 9
ENDMDL
MODEL 7
REMARK VINA RESULT:      -7.9      3.706      7.454
REMARK  9 active torsions:
REMARK  status: ('A' for Active; 'I' for Inactive)
REMARK    1  A    between atoms: C_3  and  O_4 
REMARK    2  A    between atoms: O_4  and  C_5 
REMARK    3  A    between atoms: C_5  and  C_6 
REMARK    4  A    between atoms: N_7  and  C_8 
REMARK    5  A    between atoms: C_8  and  C_9 
REMARK    6  A    between atoms: C_9  and  C_10 
REMARK    7  A    between atoms: C_16  and  S_17 
REMARK    8  A    between atoms: S_17  and  C_18 
REMARK    9  A    between atoms: C_18  and  C_19 
REMARK       I    between atoms: C_19  and  N_20 
ROOT
HETATM    1  C   UNL     1      39.826 -13.209   3.755  1.00  0.00     0.155 A 
HETATM    2  N   UNL     1      40.203 -14.252   2.929  1.00  0.00    -0.309 N 
HETATM    3  C   UNL     1      39.966 -13.790   1.657  1.00  0.00     0.192 A 
HETATM    4  N   UNL     1      39.444 -12.588   1.706  1.00  0.00    -0.123 NA
HETATM    5  N   UNL     1      39.363 -12.219   3.015  1.00  0.00    -0.132 NA
ENDROOT
BRANCH   1   6
HETATM    6  C   UNL     1      39.853 -13.194   5.245  1.00  0.00     0.256 C 
BRANCH   6   7
HETATM    7  O   UNL     1      41.168 -12.830   5.657  1.00  0.00    -0.343 OA
BRANCH   7   8
HETATM    8  C   UNL     1      41.906 -13.849   6.205  1.00  0.00     0.075 A 
HETATM    9  C   UNL     1      43.297 -13.660   6.256  1.00  0.00    -0.029 A 
HETATM   10  C   UNL     1      43.927 -12.382   5.778  1.00  0.00     0.051 C 
HETATM   11  C   UNL     1      44.102 -14.655   6.830  1.00  0.00     0.009 A 
HETATM   12  C   UNL     1      43.538 -15.836   7.313  1.00  0.00     0.001 A 
HETATM   13  C   UNL     1      42.163 -16.034   7.225  1.00  0.00     0.003 A 
HETATM   14  C   UNL     1      41.348 -15.047   6.669  1.00  0.00     0.037 A 
ENDBRANCH   7   8
ENDBRANCH   6   7
ENDBRANCH   1   6
BRANCH   2  15
HETATM   15  C   UNL     1      40.726 -15.552   3.324  1.00  0.00     0.137 C 
BRANCH  15  16
HETATM   16  C   UNL     1      42.249 -15.665   3.167  1.00  0.00     0.059 C 
BRANCH  16  17
HETATM   17  C   UNL     1      42.821 -17.062   3.218  1.00  0.00    -0.057 A 
HETATM   18  C   UNL     1      43.748 -17.443   4.196  1.00  0.00     0.007 A 
HETATM   19  C   UNL     1      44.333 -18.711   4.169  1.00  0.00     0.001 A 
HETATM   20  C   UNL     1      44.010 -19.612   3.157  1.00  0.00     0.000 A 
HETATM   21  C   UNL     1      43.095 -19.248   2.174  1.00  0.00     0.001 A 
HETATM   22  C   UNL     1      42.503 -17.983   2.203  1.00  0.00     0.007 A 
ENDBRANCH  16  17
ENDBRANCH  15  16
ENDBRANCH   2  15
BRANCH   3  23
HETATM   23  S   UNL     1      40.293 -14.659   0.199  1.00  0.00    -0.081 SA
BRANCH  23  24
HETATM   24  C   UNL     1      40.425 -13.298  -1.000  1.00  0.00     0.185 C 
BRANCH  24  25
HETATM   25  C   UNL     1      39.423 -13.452  -2.133  1.00  0.00     0.226 C 
HETATM   26  N   UNL     1      38.100 -13.372  -1.747  1.00  0.00    -0.365 N 
HETATM   27  C   UNL     1      37.039 -13.449  -2.718  1.00  0.00     0.149 C 
HETATM   28  H   UNL     1      37.910 -12.861  -0.885  1.00  0.00     0.161 HD
HETATM   29  O   UNL     1      39.773 -13.663  -3.293  1.00  0.00    -0.273 OA
ENDBRANCH  24  25
ENDBRANCH  23  24
ENDBRANCH   3  23
TORSDOF 9
ENDMDL
MODEL 8
REMARK VINA RESULT:      -7.9      1.849      5.127
REMARK  9 active torsions:
REMARK  status: ('A' for Active; 'I' for Inactive)
REMARK    1  A    between atoms: C_3  and  O_4 
REMARK    2  A    between atoms: O_4  and  C_5 
REMARK    3  A    between atoms: C_5  and  C_6 
REMARK    4  A    between atoms: N_7  and  C_8 
REMARK    5  A    between atoms: C_8  and  C_9 
REMARK    6  A    between atoms: C_9  and  C_10 
REMARK    7  A    between atoms: C_16  and  S_17 
REMARK    8  A    between atoms: S_17  and  C_18 
REMARK    9  A    between atoms: C_18  and  C_19 
REMARK       I    between atoms: C_19  and  N_20 
ROOT
HETATM    1  C   UNL     1      43.072 -12.828   3.114  1.00  0.00     0.155 A 
HETATM    2  N   UNL     1      42.990 -13.313   4.406  1.00  0.00    -0.309 N 
HETATM    3  C   UNL     1      43.576 -12.340   5.179  1.00  0.00     0.192 A 
HETATM    4  N   UNL     1      44.021 -11.369   4.418  1.00  0.00    -0.123 NA
HETATM    5  N   UNL     1      43.700 -11.667   3.128  1.00  0.00    -0.132 NA
ENDROOT
BRANCH   1   6
HETATM    6  C   UNL     1      42.606 -13.508   1.872  1.00  0.00     0.256 C 
BRANCH   6   7
HETATM    7  O   UNL     1      41.217 -13.233   1.715  1.00  0.00    -0.343 OA
BRANCH   7   8
HETATM    8  C   UNL     1      40.736 -13.389   0.440  1.00  0.00     0.075 A 
HETATM    9  C   UNL     1      40.087 -14.603   0.158  1.00  0.00    -0.029 A 
HETATM   10  C   UNL     1      39.892 -15.647   1.221  1.00  0.00     0.051 C 
HETATM   11  C   UNL     1      39.551 -14.810  -1.122  1.00  0.00     0.009 A 
HETATM   12  C   UNL     1      39.689 -13.843  -2.117  1.00  0.00     0.001 A 
HETATM   13  C   UNL     1      40.365 -12.658  -1.843  1.00  0.00     0.003 A 
HETATM   14  C   UNL     1      40.892 -12.432  -0.570  1.00  0.00     0.037 A 
ENDBRANCH   7   8
ENDBRANCH   6   7
ENDBRANCH   1   6
BRANCH   2  15
HETATM   15  C   UNL     1      42.417 -14.577   4.845  1.00  0.00     0.137 C 
BRANCH  15  16
HETATM   16  C   UNL     1      43.475 -15.626   5.215  1.00  0.00     0.059 C 
BRANCH  16  17
HETATM   17  C   UNL     1      43.491 -16.880   4.373  1.00  0.00    -0.057 A 
HETATM   18  C   UNL     1      44.211 -18.017   4.759  1.00  0.00     0.007 A 
HETATM   19  C   UNL     1      44.287 -19.132   3.922  1.00  0.00     0.001 A 
HETATM   20  C   UNL     1      43.655 -19.122   2.679  1.00  0.00     0.000 A 
HETATM   21  C   UNL     1      42.940 -17.998   2.277  1.00  0.00     0.001 A 
HETATM   22  C   UNL     1      42.857 -16.884   3.117  1.00  0.00     0.007 A 
ENDBRANCH  16  17
ENDBRANCH  15  16
ENDBRANCH   2  15
BRANCH   3  23
HETATM   23  S   UNL     1      43.722 -12.382   6.901  1.00  0.00    -0.081 SA
BRANCH  23  24
HETATM   24  C   UNL     1      45.236 -11.406   7.151  1.00  0.00     0.185 C 
BRANCH  24  25
HETATM   25  C   UNL     1      45.105 -10.463   8.337  1.00  0.00     0.226 C 
HETATM   26  N   UNL     1      44.569  -9.228   8.034  1.00  0.00    -0.365 N 
HETATM   27  C   UNL     1      44.338  -8.248   9.065  1.00  0.00     0.149 C 
HETATM   28  H   UNL     1      43.979  -9.182   7.203  1.00  0.00     0.161 HD
HETATM   29  O   UNL     1      45.481 -10.774   9.465  1.00  0.00    -0.273 OA
ENDBRANCH  24  25
ENDBRANCH  23  24
ENDBRANCH   3  23
TORSDOF 9
ENDMDL
MODEL 9
REMARK VINA RESULT:      -7.9      2.919      7.905
REMARK  9 active torsions:
REMARK  status: ('A' for Active; 'I' for Inactive)
REMARK    1  A    between atoms: C_3  and  O_4 
REMARK    2  A    between atoms: O_4  and  C_5 
REMARK    3  A    between atoms: C_5  and  C_6 
REMARK    4  A    between atoms: N_7  and  C_8 
REMARK    5  A    between atoms: C_8  and  C_9 
REMARK    6  A    between atoms: C_9  and  C_10 
REMARK    7  A    between atoms: C_16  and  S_17 
REMARK    8  A    between atoms: S_17  and  C_18 
REMARK    9  A    between atoms: C_18  and  C_19 
REMARK       I    between atoms: C_19  and  N_20 
ROOT
HETATM    1  C   UNL     1      41.979 -13.334   4.936  1.00  0.00     0.155 A 
HETATM    2  N   UNL     1      41.675 -14.562   4.378  1.00  0.00    -0.309 N 
HETATM    3  C   UNL     1      40.760 -14.279   3.393  1.00  0.00     0.192 A 
HETATM    4  N   UNL     1      40.493 -12.995   3.384  1.00  0.00    -0.123 NA
HETATM    5  N   UNL     1      41.259 -12.401   4.341  1.00  0.00    -0.132 NA
ENDROOT
BRANCH   1   6
HETATM    6  C   UNL     1      42.906 -13.073   6.073  1.00  0.00     0.256 C 
BRANCH   6   7
HETATM    7  O   UNL     1      42.687 -11.738   6.521  1.00  0.00    -0.343 OA
BRANCH   7   8
HETATM    8  C   UNL     1      43.797 -11.104   7.016  1.00  0.00     0.075 A 
HETATM    9  C   UNL     1      43.573  -9.930   7.755  1.00  0.00    -0.029 A 
HETATM   10  C   UNL     1      42.180  -9.434   8.023  1.00  0.00     0.051 C 
HETATM   11  C   UNL     1      44.668  -9.251   8.310  1.00  0.00     0.009 A 
HETATM   12  C   UNL     1      45.969  -9.710   8.104  1.00  0.00     0.001 A 
HETATM   13  C   UNL     1      46.188 -10.853   7.340  1.00  0.00     0.003 A 
HETATM   14  C   UNL     1      45.107 -11.547   6.793  1.00  0.00     0.037 A 
ENDBRANCH   7   8
ENDBRANCH   6   7
ENDBRANCH   1   6
BRANCH   2  15
HETATM   15  C   UNL     1      42.202 -15.865   4.759  1.00  0.00     0.137 C 
BRANCH  15  16
HETATM   16  C   UNL     1      43.363 -16.332   3.869  1.00  0.00     0.059 C 
BRANCH  16  17
HETATM   17  C   UNL     1      43.443 -17.816   3.604  1.00  0.00    -0.057 A 
HETATM   18  C   UNL     1      44.004 -18.700   4.535  1.00  0.00     0.007 A 
HETATM   19  C   UNL     1      44.152 -20.055   4.232  1.00  0.00     0.001 A 
HETATM   20  C   UNL     1      43.753 -20.545   2.990  1.00  0.00     0.000 A 
HETATM   21  C   UNL     1      43.199 -19.680   2.051  1.00  0.00     0.001 A 
HETATM   22  C   UNL     1      43.044 -18.325   2.356  1.00  0.00     0.007 A 
ENDBRANCH  16  17
ENDBRANCH  15  16
ENDBRANCH   2  15
BRANCH   3  23
HETATM   23  S   UNL     1      40.050 -15.436   2.323  1.00  0.00    -0.081 SA
BRANCH  23  24
HETATM   24  C   UNL     1      40.822 -14.975   0.742  1.00  0.00     0.185 C 
BRANCH  24  25
HETATM   25  C   UNL     1      39.840 -14.262  -0.173  1.00  0.00     0.226 C 
HETATM   26  N   UNL     1      39.363 -13.063   0.315  1.00  0.00    -0.365 N 
HETATM   27  C   UNL     1      38.463 -12.250  -0.463  1.00  0.00     0.149 C 
HETATM   28  H   UNL     1      39.951 -12.586   1.000  1.00  0.00     0.161 HD
HETATM   29  O   UNL     1      39.479 -14.741  -1.247  1.00  0.00    -0.273 OA
ENDBRANCH  24  25
ENDBRANCH  23  24
ENDBRANCH   3  23
TORSDOF 9
ENDMDL
MODEL 10
REMARK VINA RESULT:      -7.7      2.699      6.811
REMARK  9 active torsions:
REMARK  status: ('A' for Active; 'I' for Inactive)
REMARK    1  A    between atoms: C_3  and  O_4 
REMARK    2  A    between atoms: O_4  and  C_5 
REMARK    3  A    between atoms: C_5  and  C_6 
REMARK    4  A    between atoms: N_7  and  C_8 
REMARK    5  A    between atoms: C_8  and  C_9 
REMARK    6  A    between atoms: C_9  and  C_10 
REMARK    7  A    between atoms: C_16  and  S_17 
REMARK    8  A    between atoms: S_17  and  C_18 
REMARK    9  A    between atoms: C_18  and  C_19 
REMARK       I    between atoms: C_19  and  N_20 
ROOT
HETATM    1  C   UNL     1      40.946 -13.940   2.237  1.00  0.00     0.155 A 
HETATM    2  N   UNL     1      41.158 -15.185   2.801  1.00  0.00    -0.309 N 
HETATM    3  C   UNL     1      40.788 -15.038   4.116  1.00  0.00     0.192 A 
HETATM    4  N   UNL     1      40.429 -13.798   4.346  1.00  0.00    -0.123 NA
HETATM    5  N   UNL     1      40.519 -13.111   3.172  1.00  0.00    -0.132 NA
ENDROOT
BRANCH   1   6
HETATM    6  C   UNL     1      41.215 -13.539   0.828  1.00  0.00     0.256 C 
BRANCH   6   7
HETATM    7  O   UNL     1      40.236 -14.160  -0.000  1.00  0.00    -0.343 OA
BRANCH   7   8
HETATM    8  C   UNL     1      39.335 -13.302  -0.575  1.00  0.00     0.075 A 
HETATM    9  C   UNL     1      38.703 -13.747  -1.748  1.00  0.00    -0.029 A 
HETATM   10  C   UNL     1      38.973 -15.117  -2.305  1.00  0.00     0.051 C 
HETATM   11  C   UNL     1      37.750 -12.924  -2.368  1.00  0.00     0.009 A 
HETATM   12  C   UNL     1      37.457 -11.662  -1.851  1.00  0.00     0.001 A 
HETATM   13  C   UNL     1      38.113 -11.210  -0.709  1.00  0.00     0.003 A 
HETATM   14  C   UNL     1      39.053 -12.024  -0.075  1.00  0.00     0.037 A 
ENDBRANCH   7   8
ENDBRANCH   6   7
ENDBRANCH   1   6
BRANCH   2  15
HETATM   15  C   UNL     1      41.667 -16.381   2.145  1.00  0.00     0.137 C 
BRANCH  15  16
HETATM   16  C   UNL     1      43.117 -16.711   2.528  1.00  0.00     0.059 C 
BRANCH  16  17
HETATM   17  C   UNL     1      43.372 -18.117   3.014  1.00  0.00    -0.057 A 
HETATM   18  C   UNL     1      43.877 -18.373   4.296  1.00  0.00     0.007 A 
HETATM   19  C   UNL     1      44.192 -19.674   4.692  1.00  0.00     0.001 A 
HETATM   20  C   UNL     1      44.021 -20.738   3.809  1.00  0.00     0.000 A 
HETATM   21  C   UNL     1      43.526 -20.502   2.530  1.00  0.00     0.001 A 
HETATM   22  C   UNL     1      43.203 -19.201   2.134  1.00  0.00     0.007 A 
ENDBRANCH  16  17
ENDBRANCH  15  16
ENDBRANCH   2  15
BRANCH   3  23
HETATM   23  S   UNL     1      40.799 -16.292   5.305  1.00  0.00    -0.081 SA
BRANCH  23  24
HETATM   24  C   UNL     1      41.325 -15.373   6.783  1.00  0.00     0.185 C 
BRANCH  24  25
HETATM   25  C   UNL     1      42.699 -14.750   6.596  1.00  0.00     0.226 C 
HETATM   26  N   UNL     1      42.746 -13.386   6.804  1.00  0.00    -0.365 N 
HETATM   27  C   UNL     1      43.990 -12.666   6.712  1.00  0.00     0.149 C 
HETATM   28  H   UNL     1      42.021 -12.994   7.405  1.00  0.00     0.161 HD
HETATM   29  O   UNL     1      43.677 -15.412   6.254  1.00  0.00    -0.273 OA
ENDBRANCH  24  25
ENDBRANCH  23  24
ENDBRANCH   3  23
TORSDOF 9
ENDMDL
