MODEL 1
REMARK VINA RESULT:      -8.0      0.000      0.000
REMARK  7 active torsions:
REMARK  status: ('A' for Active; 'I' for Inactive)
REMARK    1  A    between atoms: C_2  and  C_3 
REMARK    2  A    between atoms: C_3  and  N_4 
REMARK    3  A    between atoms: C_3  and  C_20 
REMARK       I    between atoms: N_4  and  C_5 
REMARK       I    between atoms: C_5  and  N_6 
REMARK    4  A    between atoms: N_6  and  C_7 
REMARK    5  A    between atoms: C_7  and  C_8 
REMARK    6  A    between atoms: C_10  and  O_11 
REMARK    7  A    between atoms: O_11  and  C_12 
ROOT
HETATM    1  N   UNL     1      42.453 -16.325   4.322  1.00  0.00    -0.334 N 
HETATM    2  C   UNL     1      41.138 -16.275   3.998  1.00  0.00     0.316 C 
HETATM    3  N   UNL     1      40.296 -15.788   4.941  1.00  0.00    -0.339 N 
HETATM    4  O   UNL     1      40.681 -16.647   2.921  1.00  0.00    -0.247 OA
HETATM    5  H   UNL     1      42.736 -16.133   5.267  1.00  0.00     0.165 HD
HETATM    6  H   UNL     1      39.330 -15.804   4.640  1.00  0.00     0.164 HD
ENDROOT
BRANCH   3   7
HETATM    7  C   UNL     1      40.590 -15.134   6.197  1.00  0.00     0.163 C 
BRANCH   7   8
HETATM    8  C   UNL     1      40.914 -13.666   6.080  1.00  0.00    -0.035 A 
HETATM    9  C   UNL     1      42.220 -13.167   6.010  1.00  0.00     0.066 A 
HETATM   10  C   UNL     1      42.407 -11.793   5.953  1.00  0.00     0.164 A 
HETATM   11  N   UNL     1      41.404 -10.892   5.938  1.00  0.00    -0.237 NA
HETATM   12  C   UNL     1      40.152 -11.388   5.990  1.00  0.00     0.120 A 
HETATM   13  C   UNL     1      39.862 -12.743   6.062  1.00  0.00     0.028 A 
BRANCH  10  14
HETATM   14  O   UNL     1      43.714 -11.346   5.917  1.00  0.00    -0.329 OA
BRANCH  14  15
HETATM   15  C   UNL     1      44.487 -11.559   7.120  1.00  0.00     0.130 C 
HETATM   16  C   UNL     1      45.885 -10.885   7.179  1.00  0.00     0.032 C 
HETATM   17  C   UNL     1      45.596 -10.555   8.654  1.00  0.00     0.005 C 
HETATM   18  C   UNL     1      44.099 -10.646   8.313  1.00  0.00     0.032 C 
ENDBRANCH  14  15
ENDBRANCH  10  14
ENDBRANCH   7   8
ENDBRANCH   3   7
BRANCH   1  19
HETATM   19  C   UNL     1      43.477 -16.724   3.368  1.00  0.00     0.119 C 
BRANCH  19  20
HETATM   20  C   UNL     1      43.178 -16.165   1.966  1.00  0.00     0.025 C 
HETATM   21  C   UNL     1      43.500 -14.681   1.853  1.00  0.00     0.007 C 
ENDBRANCH  19  20
BRANCH  19  22
HETATM   22  C   UNL     1      43.598 -18.238   3.334  1.00  0.00    -0.033 A 
HETATM   23  C   UNL     1      43.238 -18.944   2.180  1.00  0.00     0.028 A 
HETATM   24  C   UNL     1      43.342 -20.326   2.180  1.00  0.00     0.116 A 
HETATM   25  N   UNL     1      43.777 -21.048   3.234  1.00  0.00    -0.273 NA
HETATM   26  C   UNL     1      44.128 -20.353   4.336  1.00  0.00     0.116 A 
HETATM   27  C   UNL     1      44.055 -18.972   4.435  1.00  0.00     0.028 A 
ENDBRANCH  19  22
ENDBRANCH   1  19
TORSDOF 7
ENDMDL
MODEL 2
REMARK VINA RESULT:      -8.0      2.443      3.818
REMARK  7 active torsions:
REMARK  status: ('A' for Active; 'I' for Inactive)
REMARK    1  A    between atoms: C_2  and  C_3 
REMARK    2  A    between atoms: C_3  and  N_4 
REMARK    3  A    between atoms: C_3  and  C_20 
REMARK       I    between atoms: N_4  and  C_5 
REMARK       I    between atoms: C_5  and  N_6 
REMARK    4  A    between atoms: N_6  and  C_7 
REMARK    5  A    between atoms: C_7  and  C_8 
REMARK    6  A    between atoms: C_10  and  O_11 
REMARK    7  A    between atoms: O_11  and  C_12 
ROOT
HETATM    1  N   UNL     1      42.236 -14.535   4.241  1.00  0.00    -0.334 N 
HETATM    2  C   UNL     1      42.423 -13.225   3.947  1.00  0.00     0.316 C 
HETATM    3  N   UNL     1      42.692 -12.400   4.986  1.00  0.00    -0.339 N 
HETATM    4  O   UNL     1      42.355 -12.759   2.814  1.00  0.00    -0.247 OA
HETATM    5  H   UNL     1      42.171 -14.820   5.203  1.00  0.00     0.165 HD
HETATM    6  H   UNL     1      42.794 -11.436   4.696  1.00  0.00     0.164 HD
ENDROOT
BRANCH   3   7
HETATM    7  C   UNL     1      42.994 -12.714   6.365  1.00  0.00     0.163 C 
BRANCH   7   8
HETATM    8  C   UNL     1      44.112 -11.899   6.965  1.00  0.00    -0.035 A 
HETATM    9  C   UNL     1      44.031 -11.283   8.219  1.00  0.00     0.066 A 
HETATM   10  C   UNL     1      45.102 -10.515   8.655  1.00  0.00     0.164 A 
HETATM   11  N   UNL     1      46.240 -10.335   7.954  1.00  0.00    -0.237 NA
HETATM   12  C   UNL     1      46.309 -10.947   6.756  1.00  0.00     0.120 A 
HETATM   13  C   UNL     1      45.289 -11.724   6.227  1.00  0.00     0.028 A 
BRANCH  10  14
HETATM   14  O   UNL     1      44.964  -9.901   9.885  1.00  0.00    -0.329 OA
BRANCH  14  15
HETATM   15  C   UNL     1      43.696 -10.098  10.550  1.00  0.00     0.130 C 
HETATM   16  C   UNL     1      43.701 -11.012  11.805  1.00  0.00     0.032 C 
HETATM   17  C   UNL     1      42.721 -10.021  12.457  1.00  0.00     0.005 C 
HETATM   18  C   UNL     1      43.275  -8.949  11.503  1.00  0.00     0.032 C 
ENDBRANCH  14  15
ENDBRANCH  10  14
ENDBRANCH   7   8
ENDBRANCH   3   7
BRANCH   1  19
HETATM   19  C   UNL     1      42.048 -15.547   3.212  1.00  0.00     0.119 C 
BRANCH  19  20
HETATM   20  C   UNL     1      40.560 -15.907   3.051  1.00  0.00     0.025 C 
HETATM   21  C   UNL     1      40.083 -15.762   1.612  1.00  0.00     0.007 C 
ENDBRANCH  19  20
BRANCH  19  22
HETATM   22  C   UNL     1      42.872 -16.781   3.538  1.00  0.00    -0.033 A 
HETATM   23  C   UNL     1      43.312 -17.005   4.848  1.00  0.00     0.028 A 
HETATM   24  C   UNL     1      44.076 -18.130   5.116  1.00  0.00     0.116 A 
HETATM   25  N   UNL     1      44.427 -19.041   4.183  1.00  0.00    -0.273 NA
HETATM   26  C   UNL     1      43.988 -18.816   2.927  1.00  0.00     0.116 A 
HETATM   27  C   UNL     1      43.224 -17.719   2.559  1.00  0.00     0.028 A 
ENDBRANCH  19  22
ENDBRANCH   1  19
TORSDOF 7
ENDMDL
MODEL 3
REMARK VINA RESULT:      -7.9      2.425      3.990
REMARK  7 active torsions:
REMARK  status: ('A' for Active; 'I' for Inactive)
REMARK    1  A    between atoms: C_2  and  C_3 
REMARK    2  A    between atoms: C_3  and  N_4 
REMARK    3  A    between atoms: C_3  and  C_20 
REMARK       I    between atoms: N_4  and  C_5 
REMARK       I    between atoms: C_5  and  N_6 
REMARK    4  A    between atoms: N_6  and  C_7 
REMARK    5  A    between atoms: C_7  and  C_8 
REMARK    6  A    between atoms: C_10  and  O_11 
REMARK    7  A    between atoms: O_11  and  C_12 
ROOT
HETATM    1  N   UNL     1      42.550 -14.609   5.442  1.00  0.00    -0.334 N 
HETATM    2  C   UNL     1      41.720 -13.626   5.015  1.00  0.00     0.316 C 
HETATM    3  N   UNL     1      42.279 -12.416   4.777  1.00  0.00    -0.339 N 
HETATM    4  O   UNL     1      40.513 -13.772   4.846  1.00  0.00    -0.247 OA
HETATM    5  H   UNL     1      43.498 -14.381   5.688  1.00  0.00     0.165 HD
HETATM    6  H   UNL     1      41.597 -11.727   4.487  1.00  0.00     0.164 HD
ENDROOT
BRANCH   3   7
HETATM    7  C   UNL     1      43.673 -12.032   4.729  1.00  0.00     0.163 C 
BRANCH   7   8
HETATM    8  C   UNL     1      44.217 -11.480   6.022  1.00  0.00    -0.035 A 
HETATM    9  C   UNL     1      43.407 -11.004   7.059  1.00  0.00     0.066 A 
HETATM   10  C   UNL     1      44.013 -10.471   8.188  1.00  0.00     0.164 A 
HETATM   11  N   UNL     1      45.348 -10.398   8.368  1.00  0.00    -0.237 NA
HETATM   12  C   UNL     1      46.114 -10.874   7.368  1.00  0.00     0.120 A 
HETATM   13  C   UNL     1      45.605 -11.413   6.195  1.00  0.00     0.028 A 
BRANCH  10  14
HETATM   14  O   UNL     1      43.173  -9.985   9.172  1.00  0.00    -0.329 OA
BRANCH  14  15
HETATM   15  C   UNL     1      43.820  -9.332  10.287  1.00  0.00     0.130 C 
HETATM   16  C   UNL     1      43.198  -7.992  10.767  1.00  0.00     0.032 C 
HETATM   17  C   UNL     1      43.468  -8.454  12.210  1.00  0.00     0.005 C 
HETATM   18  C   UNL     1      43.445  -9.898  11.682  1.00  0.00     0.032 C 
ENDBRANCH  14  15
ENDBRANCH  10  14
ENDBRANCH   7   8
ENDBRANCH   3   7
BRANCH   1  19
HETATM   19  C   UNL     1      42.104 -15.980   5.631  1.00  0.00     0.119 C 
BRANCH  19  20
HETATM   20  C   UNL     1      42.376 -16.460   7.068  1.00  0.00     0.025 C 
HETATM   21  C   UNL     1      43.021 -15.380   7.927  1.00  0.00     0.007 C 
ENDBRANCH  19  20
BRANCH  19  22
HETATM   22  C   UNL     1      42.776 -16.893   4.619  1.00  0.00    -0.033 A 
HETATM   23  C   UNL     1      43.697 -17.856   5.047  1.00  0.00     0.028 A 
HETATM   24  C   UNL     1      44.309 -18.665   4.102  1.00  0.00     0.116 A 
HETATM   25  N   UNL     1      44.069 -18.586   2.776  1.00  0.00    -0.273 NA
HETATM   26  C   UNL     1      43.173 -17.659   2.380  1.00  0.00     0.116 A 
HETATM   27  C   UNL     1      42.513 -16.801   3.247  1.00  0.00     0.028 A 
ENDBRANCH  19  22
ENDBRANCH   1  19
TORSDOF 7
ENDMDL
MODEL 4
REMARK VINA RESULT:      -7.6      2.784      4.713
REMARK  7 active torsions:
REMARK  status: ('A' for Active; 'I' for Inactive)
REMARK    1  A    between atoms: C_2  and  C_3 
REMARK    2  A    between atoms: C_3  and  N_4 
REMARK    3  A    between atoms: C_3  and  C_20 
REMARK       I    between atoms: N_4  and  C_5 
REMARK       I    between atoms: C_5  and  N_6 
REMARK    4  A    between atoms: N_6  and  C_7 
REMARK    5  A    between atoms: C_7  and  C_8 
REMARK    6  A    between atoms: C_10  and  O_11 
REMARK    7  A    between atoms: O_11  and  C_12 
ROOT
HETATM    1  N   UNL     1      42.053 -14.138   4.466  1.00  0.00    -0.334 N 
HETATM    2  C   UNL     1      41.415 -14.118   5.662  1.00  0.00     0.316 C 
HETATM    3  N   UNL     1      41.550 -12.994   6.406  1.00  0.00    -0.339 N 
HETATM    4  O   UNL     1      40.744 -15.048   6.099  1.00  0.00    -0.247 OA
HETATM    5  H   UNL     1      42.693 -13.398   4.236  1.00  0.00     0.165 HD
HETATM    6  H   UNL     1      41.070 -13.060   7.294  1.00  0.00     0.164 HD
ENDROOT
BRANCH   3   7
HETATM    7  C   UNL     1      42.127 -11.715   6.055  1.00  0.00     0.163 C 
BRANCH   7   8
HETATM    8  C   UNL     1      43.483 -11.450   6.657  1.00  0.00    -0.035 A 
HETATM    9  C   UNL     1      43.675 -11.067   7.989  1.00  0.00     0.066 A 
HETATM   10  C   UNL     1      44.964 -10.801   8.429  1.00  0.00     0.164 A 
HETATM   11  N   UNL     1      46.064 -10.910   7.656  1.00  0.00    -0.237 NA
HETATM   12  C   UNL     1      45.865 -11.295   6.381  1.00  0.00     0.120 A 
HETATM   13  C   UNL     1      44.616 -11.570   5.844  1.00  0.00     0.028 A 
BRANCH  10  14
HETATM   14  O   UNL     1      45.101 -10.396   9.742  1.00  0.00    -0.329 OA
BRANCH  14  15
HETATM   15  C   UNL     1      43.871 -10.130  10.452  1.00  0.00     0.130 C 
HETATM   16  C   UNL     1      43.637 -10.926  11.765  1.00  0.00     0.032 C 
HETATM   17  C   UNL     1      43.063  -9.635  12.374  1.00  0.00     0.005 C 
HETATM   18  C   UNL     1      43.890  -8.857  11.337  1.00  0.00     0.032 C 
ENDBRANCH  14  15
ENDBRANCH  10  14
ENDBRANCH   7   8
ENDBRANCH   3   7
BRANCH   1  19
HETATM   19  C   UNL     1      41.905 -15.235   3.521  1.00  0.00     0.119 C 
BRANCH  19  20
HETATM   20  C   UNL     1      43.248 -15.946   3.281  1.00  0.00     0.025 C 
HETATM   21  C   UNL     1      43.214 -17.408   3.707  1.00  0.00     0.007 C 
ENDBRANCH  19  20
BRANCH  19  22
HETATM   22  C   UNL     1      41.321 -14.724   2.215  1.00  0.00    -0.033 A 
HETATM   23  C   UNL     1      40.438 -15.525   1.482  1.00  0.00     0.028 A 
HETATM   24  C   UNL     1      39.931 -15.043   0.285  1.00  0.00     0.116 A 
HETATM   25  N   UNL     1      40.236 -13.831  -0.227  1.00  0.00    -0.273 NA
HETATM   26  C   UNL     1      41.082 -13.067   0.496  1.00  0.00     0.116 A 
HETATM   27  C   UNL     1      41.644 -13.463   1.700  1.00  0.00     0.028 A 
ENDBRANCH  19  22
ENDBRANCH   1  19
TORSDOF 7
ENDMDL
MODEL 5
REMARK VINA RESULT:      -7.5      3.769      6.266
REMARK  7 active torsions:
REMARK  status: ('A' for Active; 'I' for Inactive)
REMARK    1  A    between atoms: C_2  and  C_3 
REMARK    2  A    between atoms: C_3  and  N_4 
REMARK    3  A    between atoms: C_3  and  C_20 
REMARK       I    between atoms: N_4  and  C_5 
REMARK       I    between atoms: C_5  and  N_6 
REMARK    4  A    between atoms: N_6  and  C_7 
REMARK    5  A    between atoms: C_7  and  C_8 
REMARK    6  A    between atoms: C_10  and  O_11 
REMARK    7  A    between atoms: O_11  and  C_12 
ROOT
HETATM    1  N   UNL     1      41.921 -14.965   5.515  1.00  0.00    -0.334 N 
HETATM    2  C   UNL     1      40.592 -15.021   5.776  1.00  0.00     0.316 C 
HETATM    3  N   UNL     1      39.806 -14.126   5.130  1.00  0.00    -0.339 N 
HETATM    4  O   UNL     1      40.077 -15.818   6.555  1.00  0.00    -0.247 OA
HETATM    5  H   UNL     1      42.286 -14.201   4.973  1.00  0.00     0.165 HD
HETATM    6  H   UNL     1      38.832 -14.210   5.391  1.00  0.00     0.164 HD
ENDROOT
BRANCH   3   7
HETATM    7  C   UNL     1      40.129 -13.217   4.052  1.00  0.00     0.163 C 
BRANCH   7   8
HETATM    8  C   UNL     1      40.092 -13.834   2.677  1.00  0.00    -0.035 A 
HETATM    9  C   UNL     1      40.192 -13.092   1.496  1.00  0.00     0.066 A 
HETATM   10  C   UNL     1      40.097 -13.755   0.280  1.00  0.00     0.164 A 
HETATM   11  N   UNL     1      39.934 -15.088   0.156  1.00  0.00    -0.237 NA
HETATM   12  C   UNL     1      39.854 -15.791   1.302  1.00  0.00     0.120 A 
HETATM   13  C   UNL     1      39.925 -15.220   2.564  1.00  0.00     0.028 A 
BRANCH  10  14
HETATM   14  O   UNL     1      40.171 -12.977  -0.859  1.00  0.00    -0.329 OA
BRANCH  14  15
HETATM   15  C   UNL     1      38.986 -12.955  -1.686  1.00  0.00     0.130 C 
HETATM   16  C   UNL     1      37.787 -12.116  -1.165  1.00  0.00     0.032 C 
HETATM   17  C   UNL     1      37.557 -11.655  -2.615  1.00  0.00     0.005 C 
HETATM   18  C   UNL     1      39.041 -11.965  -2.878  1.00  0.00     0.032 C 
ENDBRANCH  14  15
ENDBRANCH  10  14
ENDBRANCH   7   8
ENDBRANCH   3   7
BRANCH   1  19
HETATM   19  C   UNL     1      42.863 -15.934   6.055  1.00  0.00     0.119 C 
BRANCH  19  20
HETATM   20  C   UNL     1      44.085 -15.235   6.676  1.00  0.00     0.025 C 
HETATM   21  C   UNL     1      43.947 -13.718   6.673  1.00  0.00     0.007 C 
ENDBRANCH  19  20
BRANCH  19  22
HETATM   22  C   UNL     1      43.290 -16.908   4.969  1.00  0.00    -0.033 A 
HETATM   23  C   UNL     1      44.011 -18.059   5.305  1.00  0.00     0.028 A 
HETATM   24  C   UNL     1      44.403 -18.923   4.294  1.00  0.00     0.116 A 
HETATM   25  N   UNL     1      44.129 -18.726   2.987  1.00  0.00    -0.273 NA
HETATM   26  C   UNL     1      43.426 -17.616   2.680  1.00  0.00     0.116 A 
HETATM   27  C   UNL     1      42.994 -16.690   3.618  1.00  0.00     0.028 A 
ENDBRANCH  19  22
ENDBRANCH   1  19
TORSDOF 7
ENDMDL
MODEL 6
REMARK VINA RESULT:      -7.5      2.889      6.478
REMARK  7 active torsions:
REMARK  status: ('A' for Active; 'I' for Inactive)
REMARK    1  A    between atoms: C_2  and  C_3 
REMARK    2  A    between atoms: C_3  and  N_4 
REMARK    3  A    between atoms: C_3  and  C_20 
REMARK       I    between atoms: N_4  and  C_5 
REMARK       I    between atoms: C_5  and  N_6 
REMARK    4  A    between atoms: N_6  and  C_7 
REMARK    5  A    between atoms: C_7  and  C_8 
REMARK    6  A    between atoms: C_10  and  O_11 
REMARK    7  A    between atoms: O_11  and  C_12 
ROOT
HETATM    1  N   UNL     1      42.044 -12.170   3.357  1.00  0.00    -0.334 N 
HETATM    2  C   UNL     1      43.197 -11.857   3.997  1.00  0.00     0.316 C 
HETATM    3  N   UNL     1      43.298 -12.238   5.293  1.00  0.00    -0.339 N 
HETATM    4  O   UNL     1      44.130 -11.254   3.475  1.00  0.00    -0.247 OA
HETATM    5  H   UNL     1      41.273 -12.541   3.885  1.00  0.00     0.165 HD
HETATM    6  H   UNL     1      44.173 -11.950   5.712  1.00  0.00     0.164 HD
ENDROOT
BRANCH   3   7
HETATM    7  C   UNL     1      42.437 -13.095   6.077  1.00  0.00     0.163 C 
BRANCH   7   8
HETATM    8  C   UNL     1      42.977 -14.482   6.313  1.00  0.00    -0.035 A 
HETATM    9  C   UNL     1      43.507 -15.287   5.299  1.00  0.00     0.066 A 
HETATM   10  C   UNL     1      43.934 -16.569   5.618  1.00  0.00     0.164 A 
HETATM   11  N   UNL     1      43.892 -17.093   6.860  1.00  0.00    -0.237 NA
HETATM   12  C   UNL     1      43.394 -16.300   7.829  1.00  0.00     0.120 A 
HETATM   13  C   UNL     1      42.930 -15.012   7.609  1.00  0.00     0.028 A 
BRANCH  10  14
HETATM   14  O   UNL     1      44.421 -17.338   4.579  1.00  0.00    -0.329 OA
BRANCH  14  15
HETATM   15  C   UNL     1      43.447 -18.149   3.885  1.00  0.00     0.130 C 
HETATM   16  C   UNL     1      43.208 -17.822   2.385  1.00  0.00     0.032 C 
HETATM   17  C   UNL     1      43.132 -19.337   2.129  1.00  0.00     0.005 C 
HETATM   18  C   UNL     1      43.971 -19.528   3.404  1.00  0.00     0.032 C 
ENDBRANCH  14  15
ENDBRANCH  10  14
ENDBRANCH   7   8
ENDBRANCH   3   7
BRANCH   1  19
HETATM   19  C   UNL     1      41.845 -11.918   1.938  1.00  0.00     0.119 C 
BRANCH  19  20
HETATM   20  C   UNL     1      41.081 -10.602   1.709  1.00  0.00     0.025 C 
HETATM   21  C   UNL     1      39.876 -10.464   2.630  1.00  0.00     0.007 C 
ENDBRANCH  19  20
BRANCH  19  22
HETATM   22  C   UNL     1      41.116 -13.087   1.297  1.00  0.00    -0.033 A 
HETATM   23  C   UNL     1      40.881 -14.254   2.033  1.00  0.00     0.028 A 
HETATM   24  C   UNL     1      40.228 -15.313   1.421  1.00  0.00     0.116 A 
HETATM   25  N   UNL     1      39.795 -15.291   0.143  1.00  0.00    -0.273 NA
HETATM   26  C   UNL     1      40.022 -14.156  -0.551  1.00  0.00     0.116 A 
HETATM   27  C   UNL     1      40.669 -13.047  -0.029  1.00  0.00     0.028 A 
ENDBRANCH  19  22
ENDBRANCH   1  19
TORSDOF 7
ENDMDL
MODEL 7
REMARK VINA RESULT:      -7.2      4.645      6.441
REMARK  7 active torsions:
REMARK  status: ('A' for Active; 'I' for Inactive)
REMARK    1  A    between atoms: C_2  and  C_3 
REMARK    2  A    between atoms: C_3  and  N_4 
REMARK    3  A    between atoms: C_3  and  C_20 
REMARK       I    between atoms: N_4  and  C_5 
REMARK       I    between atoms: C_5  and  N_6 
REMARK    4  A    between atoms: N_6  and  C_7 
REMARK    5  A    between atoms: C_7  and  C_8 
REMARK    6  A    between atoms: C_10  and  O_11 
REMARK    7  A    between atoms: O_11  and  C_12 
ROOT
HETATM    1  N   UNL     1      41.433 -15.140   2.697  1.00  0.00    -0.334 N 
HETATM    2  C   UNL     1      40.267 -14.447   2.682  1.00  0.00     0.316 C 
HETATM    3  N   UNL     1      39.601 -14.400   1.505  1.00  0.00    -0.339 N 
HETATM    4  O   UNL     1      39.801 -13.867   3.659  1.00  0.00    -0.247 OA
HETATM    5  H   UNL     1      41.820 -15.471   1.830  1.00  0.00     0.165 HD
HETATM    6  H   UNL     1      38.756 -13.846   1.562  1.00  0.00     0.164 HD
ENDROOT
BRANCH   3   7
HETATM    7  C   UNL     1      39.836 -15.126   0.276  1.00  0.00     0.163 C 
BRANCH   7   8
HETATM    8  C   UNL     1      39.646 -14.315  -0.980  1.00  0.00    -0.035 A 
HETATM    9  C   UNL     1      39.975 -12.959  -1.080  1.00  0.00     0.066 A 
HETATM   10  C   UNL     1      39.715 -12.294  -2.270  1.00  0.00     0.164 A 
HETATM   11  N   UNL     1      39.178 -12.878  -3.361  1.00  0.00    -0.237 NA
HETATM   12  C   UNL     1      38.881 -14.188  -3.254  1.00  0.00     0.120 A 
HETATM   13  C   UNL     1      39.091 -14.936  -2.105  1.00  0.00     0.028 A 
BRANCH  10  14
HETATM   14  O   UNL     1      40.027 -10.949  -2.311  1.00  0.00    -0.329 OA
BRANCH  14  15
HETATM   15  C   UNL     1      40.702 -10.423  -1.147  1.00  0.00     0.130 C 
HETATM   16  C   UNL     1      42.016  -9.633  -1.399  1.00  0.00     0.032 C 
HETATM   17  C   UNL     1      41.561  -8.646  -0.310  1.00  0.00     0.005 C 
HETATM   18  C   UNL     1      40.118  -9.094  -0.601  1.00  0.00     0.032 C 
ENDBRANCH  14  15
ENDBRANCH  10  14
ENDBRANCH   7   8
ENDBRANCH   3   7
BRANCH   1  19
HETATM   19  C   UNL     1      42.194 -15.362   3.917  1.00  0.00     0.119 C 
BRANCH  19  20
HETATM   20  C   UNL     1      43.199 -14.222   4.160  1.00  0.00     0.025 C 
HETATM   21  C   UNL     1      42.815 -13.357   5.353  1.00  0.00     0.007 C 
ENDBRANCH  19  20
BRANCH  19  22
HETATM   22  C   UNL     1      42.902 -16.705   3.853  1.00  0.00    -0.033 A 
HETATM   23  C   UNL     1      43.606 -17.179   4.965  1.00  0.00     0.028 A 
HETATM   24  C   UNL     1      44.257 -18.400   4.877  1.00  0.00     0.116 A 
HETATM   25  N   UNL     1      44.254 -19.175   3.772  1.00  0.00    -0.273 NA
HETATM   26  C   UNL     1      43.564 -18.708   2.710  1.00  0.00     0.116 A 
HETATM   27  C   UNL     1      42.886 -17.499   2.700  1.00  0.00     0.028 A 
ENDBRANCH  19  22
ENDBRANCH   1  19
TORSDOF 7
ENDMDL
MODEL 8
REMARK VINA RESULT:      -7.1      5.308      7.649
REMARK  7 active torsions:
REMARK  status: ('A' for Active; 'I' for Inactive)
REMARK    1  A    between atoms: C_2  and  C_3 
REMARK    2  A    between atoms: C_3  and  N_4 
REMARK    3  A    between atoms: C_3  and  C_20 
REMARK       I    between atoms: N_4  and  C_5 
REMARK       I    between atoms: C_5  and  N_6 
REMARK    4  A    between atoms: N_6  and  C_7 
REMARK    5  A    between atoms: C_7  and  C_8 
REMARK    6  A    between atoms: C_10  and  O_11 
REMARK    7  A    between atoms: O_11  and  C_12 
ROOT
HETATM    1  N   UNL     1      42.232 -16.516   1.936  1.00  0.00    -0.334 N 
HETATM    2  C   UNL     1      42.686 -15.316   1.498  1.00  0.00     0.316 C 
HETATM    3  N   UNL     1      41.786 -14.507   0.891  1.00  0.00    -0.339 N 
HETATM    4  O   UNL     1      43.848 -14.937   1.616  1.00  0.00    -0.247 OA
HETATM    5  H   UNL     1      41.305 -16.813   1.683  1.00  0.00     0.165 HD
HETATM    6  H   UNL     1      42.200 -13.642   0.569  1.00  0.00     0.164 HD
ENDROOT
BRANCH   3   7
HETATM    7  C   UNL     1      40.349 -14.635   0.784  1.00  0.00     0.163 C 
BRANCH   7   8
HETATM    8  C   UNL     1      39.761 -14.066  -0.482  1.00  0.00    -0.035 A 
HETATM    9  C   UNL     1      39.604 -12.695  -0.711  1.00  0.00     0.066 A 
HETATM   10  C   UNL     1      39.005 -12.279  -1.892  1.00  0.00     0.164 A 
HETATM   11  N   UNL     1      38.577 -13.116  -2.859  1.00  0.00    -0.237 NA
HETATM   12  C   UNL     1      38.748 -14.433  -2.631  1.00  0.00     0.120 A 
HETATM   13  C   UNL     1      39.323 -14.947  -1.478  1.00  0.00     0.028 A 
BRANCH  10  14
HETATM   14  O   UNL     1      38.843 -10.917  -2.061  1.00  0.00    -0.329 OA
BRANCH  14  15
HETATM   15  C   UNL     1      38.595 -10.475  -3.414  1.00  0.00     0.130 C 
HETATM   16  C   UNL     1      37.490  -9.400  -3.604  1.00  0.00     0.032 C 
HETATM   17  C   UNL     1      38.402  -8.733  -4.648  1.00  0.00     0.005 C 
HETATM   18  C   UNL     1      39.591  -9.411  -3.945  1.00  0.00     0.032 C 
ENDBRANCH  14  15
ENDBRANCH  10  14
ENDBRANCH   7   8
ENDBRANCH   3   7
BRANCH   1  19
HETATM   19  C   UNL     1      43.062 -17.434   2.699  1.00  0.00     0.119 C 
BRANCH  19  20
HETATM   20  C   UNL     1      42.696 -18.898   2.397  1.00  0.00     0.025 C 
HETATM   21  C   UNL     1      43.921 -19.801   2.334  1.00  0.00     0.007 C 
ENDBRANCH  19  20
BRANCH  19  22
HETATM   22  C   UNL     1      42.937 -17.140   4.184  1.00  0.00    -0.033 A 
HETATM   23  C   UNL     1      44.004 -17.417   5.046  1.00  0.00     0.028 A 
HETATM   24  C   UNL     1      43.859 -17.154   6.400  1.00  0.00     0.116 A 
HETATM   25  N   UNL     1      42.740 -16.638   6.950  1.00  0.00    -0.273 NA
HETATM   26  C   UNL     1      41.722 -16.368   6.105  1.00  0.00     0.116 A 
HETATM   27  C   UNL     1      41.770 -16.600   4.739  1.00  0.00     0.028 A 
ENDBRANCH  19  22
ENDBRANCH   1  19
TORSDOF 7
ENDMDL
MODEL 9
REMARK VINA RESULT:      -7.1      2.642      4.900
REMARK  7 active torsions:
REMARK  status: ('A' for Active; 'I' for Inactive)
REMARK    1  A    between atoms: C_2  and  C_3 
REMARK    2  A    between atoms: C_3  and  N_4 
REMARK    3  A    between atoms: C_3  and  C_20 
REMARK       I    between atoms: N_4  and  C_5 
REMARK       I    between atoms: C_5  and  N_6 
REMARK    4  A    between atoms: N_6  and  C_7 
REMARK    5  A    between atoms: C_7  and  C_8 
REMARK    6  A    between atoms: C_10  and  O_11 
REMARK    7  A    between atoms: O_11  and  C_12 
ROOT
HETATM    1  N   UNL     1      42.695 -12.827   4.660  1.00  0.00    -0.334 N 
HETATM    2  C   UNL     1      43.602 -11.942   4.177  1.00  0.00     0.316 C 
HETATM    3  N   UNL     1      44.517 -11.468   5.055  1.00  0.00    -0.339 N 
HETATM    4  O   UNL     1      43.629 -11.553   3.014  1.00  0.00    -0.247 OA
HETATM    5  H   UNL     1      42.648 -12.994   5.651  1.00  0.00     0.165 HD
HETATM    6  H   UNL     1      45.144 -10.795   4.632  1.00  0.00     0.164 HD
ENDROOT
BRANCH   3   7
HETATM    7  C   UNL     1      44.809 -11.887   6.408  1.00  0.00     0.163 C 
BRANCH   7   8
HETATM    8  C   UNL     1      44.777 -10.779   7.430  1.00  0.00    -0.035 A 
HETATM    9  C   UNL     1      43.612 -10.366   8.084  1.00  0.00     0.066 A 
HETATM   10  C   UNL     1      43.686  -9.303   8.973  1.00  0.00     0.164 A 
HETATM   11  N   UNL     1      44.824  -8.643   9.270  1.00  0.00    -0.237 NA
HETATM   12  C   UNL     1      45.941  -9.062   8.644  1.00  0.00     0.120 A 
HETATM   13  C   UNL     1      45.967 -10.106   7.731  1.00  0.00     0.028 A 
BRANCH  10  14
HETATM   14  O   UNL     1      42.504  -8.910   9.572  1.00  0.00    -0.329 OA
BRANCH  14  15
HETATM   15  C   UNL     1      42.136  -9.628  10.770  1.00  0.00     0.130 C 
HETATM   16  C   UNL     1      43.282 -10.349  11.531  1.00  0.00     0.032 C 
HETATM   17  C   UNL     1      42.622  -9.886  12.842  1.00  0.00     0.005 C 
HETATM   18  C   UNL     1      41.976  -8.746  12.036  1.00  0.00     0.032 C 
ENDBRANCH  14  15
ENDBRANCH  10  14
ENDBRANCH   7   8
ENDBRANCH   3   7
BRANCH   1  19
HETATM   19  C   UNL     1      41.726 -13.496   3.806  1.00  0.00     0.119 C 
BRANCH  19  20
HETATM   20  C   UNL     1      40.408 -13.755   4.557  1.00  0.00     0.025 C 
HETATM   21  C   UNL     1      40.391 -13.110   5.936  1.00  0.00     0.007 C 
ENDBRANCH  19  20
BRANCH  19  22
HETATM   22  C   UNL     1      42.309 -14.793   3.271  1.00  0.00    -0.033 A 
HETATM   23  C   UNL     1      42.349 -15.931   4.085  1.00  0.00     0.028 A 
HETATM   24  C   UNL     1      42.901 -17.098   3.580  1.00  0.00     0.116 A 
HETATM   25  N   UNL     1      43.409 -17.212   2.334  1.00  0.00    -0.273 NA
HETATM   26  C   UNL     1      43.356 -16.109   1.559  1.00  0.00     0.116 A 
HETATM   27  C   UNL     1      42.828 -14.896   1.975  1.00  0.00     0.028 A 
ENDBRANCH  19  22
ENDBRANCH   1  19
TORSDOF 7
ENDMDL
MODEL 10
REMARK VINA RESULT:      -7.1      2.889      6.286
REMARK  7 active torsions:
REMARK  status: ('A' for Active; 'I' for Inactive)
REMARK    1  A    between atoms: C_2  and  C_3 
REMARK    2  A    between atoms: C_3  and  N_4 
REMARK    3  A    between atoms: C_3  and  C_20 
REMARK       I    between atoms: N_4  and  C_5 
REMARK       I    between atoms: C_5  and  N_6 
REMARK    4  A    between atoms: N_6  and  C_7 
REMARK    5  A    between atoms: C_7  and  C_8 
REMARK    6  A    between atoms: C_10  and  O_11 
REMARK    7  A    between atoms: O_11  and  C_12 
ROOT
HETATM    1  N   UNL     1      41.084 -11.818   4.367  1.00  0.00    -0.334 N 
HETATM    2  C   UNL     1      40.778 -10.545   4.015  1.00  0.00     0.316 C 
HETATM    3  N   UNL     1      39.705 -10.378   3.206  1.00  0.00    -0.339 N 
HETATM    4  O   UNL     1      41.414  -9.560   4.379  1.00  0.00    -0.247 OA
HETATM    5  H   UNL     1      40.604 -12.581   3.922  1.00  0.00     0.165 HD
HETATM    6  H   UNL     1      39.552  -9.407   2.965  1.00  0.00     0.164 HD
ENDROOT
BRANCH   3   7
HETATM    7  C   UNL     1      38.703 -11.332   2.786  1.00  0.00     0.163 C 
BRANCH   7   8
HETATM    8  C   UNL     1      39.152 -12.279   1.702  1.00  0.00    -0.035 A 
HETATM    9  C   UNL     1      39.715 -13.534   1.958  1.00  0.00     0.066 A 
HETATM   10  C   UNL     1      40.139 -14.307   0.886  1.00  0.00     0.164 A 
HETATM   11  N   UNL     1      40.024 -13.937  -0.406  1.00  0.00    -0.237 NA
HETATM   12  C   UNL     1      39.466 -12.733  -0.637  1.00  0.00     0.120 A 
HETATM   13  C   UNL     1      39.023 -11.882   0.365  1.00  0.00     0.028 A 
BRANCH  10  14
HETATM   14  O   UNL     1      40.718 -15.524   1.189  1.00  0.00    -0.329 OA
BRANCH  14  15
HETATM   15  C   UNL     1      41.743 -15.499   2.207  1.00  0.00     0.130 C 
HETATM   16  C   UNL     1      41.782 -16.703   3.187  1.00  0.00     0.032 C 
HETATM   17  C   UNL     1      43.317 -16.651   3.095  1.00  0.00     0.005 C 
HETATM   18  C   UNL     1      43.145 -15.960   1.731  1.00  0.00     0.032 C 
ENDBRANCH  14  15
ENDBRANCH  10  14
ENDBRANCH   7   8
ENDBRANCH   3   7
BRANCH   1  19
HETATM   19  C   UNL     1      42.142 -12.133   5.315  1.00  0.00     0.119 C 
BRANCH  19  20
HETATM   20  C   UNL     1      43.526 -12.072   4.645  1.00  0.00     0.025 C 
HETATM   21  C   UNL     1      43.475 -12.467   3.175  1.00  0.00     0.007 C 
ENDBRANCH  19  20
BRANCH  19  22
HETATM   22  C   UNL     1      41.899 -13.499   5.933  1.00  0.00    -0.033 A 
HETATM   23  C   UNL     1      40.644 -14.108   5.815  1.00  0.00     0.028 A 
HETATM   24  C   UNL     1      40.443 -15.348   6.402  1.00  0.00     0.116 A 
HETATM   25  N   UNL     1      41.392 -16.019   7.088  1.00  0.00    -0.273 NA
HETATM   26  C   UNL     1      42.599 -15.423   7.186  1.00  0.00     0.116 A 
HETATM   27  C   UNL     1      42.896 -14.184   6.638  1.00  0.00     0.028 A 
ENDBRANCH  19  22
ENDBRANCH   1  19
TORSDOF 7
ENDMDL
