MODEL 1
REMARK VINA RESULT:      -9.2      0.000      0.000
REMARK  5 active torsions:
REMARK  status: ('A' for Active; 'I' for Inactive)
REMARK    1  A    between atoms: C_7  and  C_8 
REMARK    2  A    between atoms: C_10  and  N_11 
REMARK       I    between atoms: N_11  and  C_12 
REMARK    3  A    between atoms: C_12  and  C_13 
REMARK    4  A    between atoms: C_15  and  O_16 
REMARK    5  A    between atoms: C_19  and  O_20 
ROOT
HETATM    1  C   UNL     1      44.375  -9.843   9.621  1.00  0.00     0.019 A 
HETATM    2  C   UNL     1      44.083 -10.966   8.828  1.00  0.00     0.045 A 
HETATM    3  C   UNL     1      44.818 -11.261   7.675  1.00  0.00     0.035 A 
HETATM    4  C   UNL     1      45.866 -10.412   7.311  1.00  0.00     0.029 A 
HETATM    5  C   UNL     1      46.162  -9.281   8.079  1.00  0.00     0.003 A 
HETATM    6  C   UNL     1      45.421  -9.000   9.228  1.00  0.00     0.016 A 
ENDROOT
BRANCH   3   7
HETATM    7  N   UNL     1      44.591 -12.415   6.887  1.00  0.00    -0.323 N 
HETATM    8  C   UNL     1      43.411 -12.731   6.228  1.00  0.00     0.256 C 
HETATM    9  O   UNL     1      42.482 -11.949   6.048  1.00  0.00    -0.267 OA
HETATM   10  H   UNL     1      45.379 -13.036   6.798  1.00  0.00     0.169 HD
BRANCH   8  11
HETATM   11  C   UNL     1      43.253 -14.125   5.694  1.00  0.00     0.037 A 
HETATM   12  C   UNL     1      42.859 -14.239   4.347  1.00  0.00     0.054 A 
HETATM   13  C   UNL     1      42.626 -15.483   3.769  1.00  0.00     0.071 A 
HETATM   14  C   UNL     1      42.800 -16.628   4.544  1.00  0.00     0.073 A 
HETATM   15  C   UNL     1      43.199 -16.542   5.881  1.00  0.00     0.071 A 
HETATM   16  C   UNL     1      43.422 -15.289   6.459  1.00  0.00     0.054 A 
BRANCH  13  17
HETATM   17  O   UNL     1      42.224 -15.708   2.482  1.00  0.00    -0.356 OA
HETATM   18  C   UNL     1      43.241 -16.001   1.531  1.00  0.00     0.210 C 
ENDBRANCH  13  17
BRANCH  15  19
HETATM   19  O   UNL     1      43.322 -17.751   6.508  1.00  0.00    -0.356 OA
HETATM   20  C   UNL     1      43.725 -18.864   5.720  1.00  0.00     0.210 C 
ENDBRANCH  15  19
ENDBRANCH   8  11
ENDBRANCH   3   7
BRANCH   1  21
HETATM   21  C   UNL     1      43.631  -9.576  10.852  1.00  0.00     0.181 A 
HETATM   22  N   UNL     1      42.547 -10.168  11.327  1.00  0.00    -0.221 NA
HETATM   23  C   UNL     1      42.269  -9.461  12.472  1.00  0.00     0.093 A 
HETATM   24  C   UNL     1      43.213  -8.467  12.653  1.00  0.00     0.107 A 
HETATM   25  C   UNL     1      41.234  -9.581  13.409  1.00  0.00     0.035 A 
HETATM   26  C   UNL     1      43.231  -7.562  13.707  1.00  0.00     0.046 A 
HETATM   27  O   UNL     1      44.093  -8.537  11.620  1.00  0.00    -0.289 OA
HETATM   28  C   UNL     1      42.196  -7.690  14.648  1.00  0.00    -0.059 A 
HETATM   29  C   UNL     1      42.116  -6.718  15.792  1.00  0.00     0.048 C 
HETATM   30  C   UNL     1      41.209  -8.681  14.489  1.00  0.00     0.009 A 
ENDBRANCH   1  21
TORSDOF 5
ENDMDL
MODEL 2
REMARK VINA RESULT:      -9.2      0.209      2.043
REMARK  5 active torsions:
REMARK  status: ('A' for Active; 'I' for Inactive)
REMARK    1  A    between atoms: C_7  and  C_8 
REMARK    2  A    between atoms: C_10  and  N_11 
REMARK       I    between atoms: N_11  and  C_12 
REMARK    3  A    between atoms: C_12  and  C_13 
REMARK    4  A    between atoms: C_15  and  O_16 
REMARK    5  A    between atoms: C_19  and  O_20 
ROOT
HETATM    1  C   UNL     1      44.360  -9.827   9.665  1.00  0.00     0.019 A 
HETATM    2  C   UNL     1      44.046 -10.935   8.860  1.00  0.00     0.045 A 
HETATM    3  C   UNL     1      44.780 -11.238   7.708  1.00  0.00     0.035 A 
HETATM    4  C   UNL     1      45.850 -10.411   7.357  1.00  0.00     0.029 A 
HETATM    5  C   UNL     1      46.168  -9.294   8.137  1.00  0.00     0.003 A 
HETATM    6  C   UNL     1      45.428  -9.006   9.285  1.00  0.00     0.016 A 
ENDROOT
BRANCH   3   7
HETATM    7  N   UNL     1      44.530 -12.379   6.908  1.00  0.00    -0.323 N 
HETATM    8  C   UNL     1      43.478 -12.533   6.017  1.00  0.00     0.256 C 
HETATM    9  O   UNL     1      42.753 -11.621   5.630  1.00  0.00    -0.267 OA
HETATM   10  H   UNL     1      45.203 -13.123   7.001  1.00  0.00     0.169 HD
BRANCH   8  11
HETATM   11  C   UNL     1      43.201 -13.909   5.484  1.00  0.00     0.037 A 
HETATM   12  C   UNL     1      43.390 -14.977   6.383  1.00  0.00     0.054 A 
HETATM   13  C   UNL     1      43.218 -16.297   5.975  1.00  0.00     0.071 A 
HETATM   14  C   UNL     1      42.842 -16.551   4.658  1.00  0.00     0.073 A 
HETATM   15  C   UNL     1      42.640 -15.508   3.750  1.00  0.00     0.071 A 
HETATM   16  C   UNL     1      42.823 -14.185   4.162  1.00  0.00     0.054 A 
BRANCH  13  17
HETATM   17  O   UNL     1      43.393 -17.406   6.754  1.00  0.00    -0.356 OA
HETATM   18  C   UNL     1      43.536 -18.652   6.080  1.00  0.00     0.210 C 
ENDBRANCH  13  17
BRANCH  15  19
HETATM   19  O   UNL     1      42.277 -15.918   2.496  1.00  0.00    -0.356 OA
HETATM   20  C   UNL     1      43.302 -16.020   1.515  1.00  0.00     0.210 C 
ENDBRANCH  15  19
ENDBRANCH   8  11
ENDBRANCH   3   7
BRANCH   1  21
HETATM   21  C   UNL     1      43.616  -9.554  10.894  1.00  0.00     0.181 A 
HETATM   22  N   UNL     1      42.535 -10.146  11.374  1.00  0.00    -0.221 NA
HETATM   23  C   UNL     1      42.255  -9.432  12.514  1.00  0.00     0.093 A 
HETATM   24  C   UNL     1      43.195  -8.433  12.687  1.00  0.00     0.107 A 
HETATM   25  C   UNL     1      41.221  -9.549  13.453  1.00  0.00     0.035 A 
HETATM   26  C   UNL     1      43.210  -7.519  13.734  1.00  0.00     0.046 A 
HETATM   27  O   UNL     1      44.075  -8.507  11.654  1.00  0.00    -0.289 OA
HETATM   28  C   UNL     1      42.177  -7.644  14.677  1.00  0.00    -0.059 A 
HETATM   29  C   UNL     1      42.093  -6.664  15.813  1.00  0.00     0.048 C 
HETATM   30  C   UNL     1      41.194  -8.640  14.526  1.00  0.00     0.009 A 
ENDBRANCH   1  21
TORSDOF 5
ENDMDL
MODEL 3
REMARK VINA RESULT:      -8.7      1.743      2.016
REMARK  5 active torsions:
REMARK  status: ('A' for Active; 'I' for Inactive)
REMARK    1  A    between atoms: C_7  and  C_8 
REMARK    2  A    between atoms: C_10  and  N_11 
REMARK       I    between atoms: N_11  and  C_12 
REMARK    3  A    between atoms: C_12  and  C_13 
REMARK    4  A    between atoms: C_15  and  O_16 
REMARK    5  A    between atoms: C_19  and  O_20 
ROOT
HETATM    1  C   UNL     1      44.279 -10.136   8.398  1.00  0.00     0.019 A 
HETATM    2  C   UNL     1      43.589 -11.038   7.570  1.00  0.00     0.045 A 
HETATM    3  C   UNL     1      44.250 -11.794   6.596  1.00  0.00     0.035 A 
HETATM    4  C   UNL     1      45.631 -11.641   6.451  1.00  0.00     0.029 A 
HETATM    5  C   UNL     1      46.333 -10.738   7.256  1.00  0.00     0.003 A 
HETATM    6  C   UNL     1      45.660  -9.991   8.225  1.00  0.00     0.016 A 
ENDROOT
BRANCH   3   7
HETATM    7  N   UNL     1      43.597 -12.755   5.787  1.00  0.00    -0.323 N 
HETATM    8  C   UNL     1      43.289 -14.056   6.156  1.00  0.00     0.256 C 
HETATM    9  O   UNL     1      43.334 -14.483   7.307  1.00  0.00    -0.267 OA
HETATM   10  H   UNL     1      43.325 -12.431   4.872  1.00  0.00     0.169 HD
BRANCH   8  11
HETATM   11  C   UNL     1      42.873 -15.015   5.080  1.00  0.00     0.037 A 
HETATM   12  C   UNL     1      41.673 -14.715   4.405  1.00  0.00     0.054 A 
HETATM   13  C   UNL     1      41.165 -15.569   3.430  1.00  0.00     0.071 A 
HETATM   14  C   UNL     1      41.869 -16.730   3.119  1.00  0.00     0.073 A 
HETATM   15  C   UNL     1      43.067 -17.045   3.768  1.00  0.00     0.071 A 
HETATM   16  C   UNL     1      43.567 -16.189   4.753  1.00  0.00     0.054 A 
BRANCH  13  17
HETATM   17  O   UNL     1      40.005 -15.388   2.730  1.00  0.00    -0.356 OA
HETATM   18  C   UNL     1      40.089 -15.474   1.311  1.00  0.00     0.210 C 
ENDBRANCH  13  17
BRANCH  15  19
HETATM   19  O   UNL     1      43.637 -18.218   3.355  1.00  0.00    -0.356 OA
HETATM   20  C   UNL     1      43.037 -18.891   2.255  1.00  0.00     0.210 C 
ENDBRANCH  15  19
ENDBRANCH   8  11
ENDBRANCH   3   7
BRANCH   1  21
HETATM   21  C   UNL     1      43.581  -9.391   9.446  1.00  0.00     0.181 A 
HETATM   22  N   UNL     1      42.471  -8.676   9.375  1.00  0.00    -0.221 NA
HETATM   23  C   UNL     1      42.334  -8.164  10.644  1.00  0.00     0.093 A 
HETATM   24  C   UNL     1      43.372  -8.606  11.443  1.00  0.00     0.107 A 
HETATM   25  C   UNL     1      41.375  -7.310  11.202  1.00  0.00     0.035 A 
HETATM   26  C   UNL     1      43.549  -8.276  12.782  1.00  0.00     0.046 A 
HETATM   27  O   UNL     1      44.174  -9.398  10.684  1.00  0.00    -0.289 OA
HETATM   28  C   UNL     1      42.581  -7.425  13.340  1.00  0.00    -0.059 A 
HETATM   29  C   UNL     1      42.726  -6.981  14.768  1.00  0.00     0.048 C 
HETATM   30  C   UNL     1      41.518  -6.944  12.552  1.00  0.00     0.009 A 
ENDBRANCH   1  21
TORSDOF 5
ENDMDL
MODEL 4
REMARK VINA RESULT:      -8.7      1.784      2.719
REMARK  5 active torsions:
REMARK  status: ('A' for Active; 'I' for Inactive)
REMARK    1  A    between atoms: C_7  and  C_8 
REMARK    2  A    between atoms: C_10  and  N_11 
REMARK       I    between atoms: N_11  and  C_12 
REMARK    3  A    between atoms: C_12  and  C_13 
REMARK    4  A    between atoms: C_15  and  O_16 
REMARK    5  A    between atoms: C_19  and  O_20 
ROOT
HETATM    1  C   UNL     1      44.453  -9.942   8.334  1.00  0.00     0.019 A 
HETATM    2  C   UNL     1      43.674 -10.792   7.531  1.00  0.00     0.045 A 
HETATM    3  C   UNL     1      44.254 -11.636   6.577  1.00  0.00     0.035 A 
HETATM    4  C   UNL     1      45.643 -11.624   6.428  1.00  0.00     0.029 A 
HETATM    5  C   UNL     1      46.434 -10.774   7.208  1.00  0.00     0.003 A 
HETATM    6  C   UNL     1      45.841  -9.939   8.157  1.00  0.00     0.016 A 
ENDROOT
BRANCH   3   7
HETATM    7  N   UNL     1      43.507 -12.548   5.793  1.00  0.00    -0.323 N 
HETATM    8  C   UNL     1      43.189 -13.852   6.145  1.00  0.00     0.256 C 
HETATM    9  O   UNL     1      43.313 -14.319   7.274  1.00  0.00    -0.267 OA
HETATM   10  H   UNL     1      43.173 -12.185   4.915  1.00  0.00     0.169 HD
BRANCH   8  11
HETATM   11  C   UNL     1      42.655 -14.760   5.076  1.00  0.00     0.037 A 
HETATM   12  C   UNL     1      43.316 -15.994   4.916  1.00  0.00     0.054 A 
HETATM   13  C   UNL     1      42.941 -16.885   3.915  1.00  0.00     0.071 A 
HETATM   14  C   UNL     1      41.886 -16.544   3.071  1.00  0.00     0.073 A 
HETATM   15  C   UNL     1      41.208 -15.330   3.216  1.00  0.00     0.071 A 
HETATM   16  C   UNL     1      41.596 -14.435   4.217  1.00  0.00     0.054 A 
BRANCH  13  17
HETATM   17  O   UNL     1      43.523 -18.094   3.658  1.00  0.00    -0.356 OA
HETATM   18  C   UNL     1      43.215 -18.706   2.410  1.00  0.00     0.210 C 
ENDBRANCH  13  17
BRANCH  15  19
HETATM   19  O   UNL     1      40.199 -15.140   2.312  1.00  0.00    -0.356 OA
HETATM   20  C   UNL     1      39.656 -13.831   2.198  1.00  0.00     0.210 C 
ENDBRANCH  15  19
ENDBRANCH   8  11
ENDBRANCH   3   7
BRANCH   1  21
HETATM   21  C   UNL     1      43.835  -9.104   9.362  1.00  0.00     0.181 A 
HETATM   22  N   UNL     1      43.053  -8.045   9.229  1.00  0.00    -0.221 NA
HETATM   23  C   UNL     1      42.835  -7.640  10.524  1.00  0.00     0.093 A 
HETATM   24  C   UNL     1      43.490  -8.488  11.399  1.00  0.00     0.107 A 
HETATM   25  C   UNL     1      42.110  -6.564  11.051  1.00  0.00     0.035 A 
HETATM   26  C   UNL     1      43.488  -8.366  12.784  1.00  0.00     0.046 A 
HETATM   27  O   UNL     1      44.130  -9.432  10.662  1.00  0.00    -0.289 OA
HETATM   28  C   UNL     1      42.755  -7.290  13.308  1.00  0.00    -0.059 A 
HETATM   29  C   UNL     1      42.742  -7.061  14.793  1.00  0.00     0.048 C 
HETATM   30  C   UNL     1      42.086  -6.399  12.447  1.00  0.00     0.009 A 
ENDBRANCH   1  21
TORSDOF 5
ENDMDL
MODEL 5
REMARK VINA RESULT:      -8.6      1.825      9.951
REMARK  5 active torsions:
REMARK  status: ('A' for Active; 'I' for Inactive)
REMARK    1  A    between atoms: C_7  and  C_8 
REMARK    2  A    between atoms: C_10  and  N_11 
REMARK       I    between atoms: N_11  and  C_12 
REMARK    3  A    between atoms: C_12  and  C_13 
REMARK    4  A    between atoms: C_15  and  O_16 
REMARK    5  A    between atoms: C_19  and  O_20 
ROOT
HETATM    1  C   UNL     1      44.401 -12.098   6.973  1.00  0.00     0.019 A 
HETATM    2  C   UNL     1      43.801 -11.448   8.064  1.00  0.00     0.045 A 
HETATM    3  C   UNL     1      44.422 -10.375   8.712  1.00  0.00     0.035 A 
HETATM    4  C   UNL     1      45.671  -9.947   8.255  1.00  0.00     0.029 A 
HETATM    5  C   UNL     1      46.291 -10.591   7.179  1.00  0.00     0.003 A 
HETATM    6  C   UNL     1      45.658 -11.660   6.542  1.00  0.00     0.016 A 
ENDROOT
BRANCH   3   7
HETATM    7  N   UNL     1      43.820  -9.658   9.775  1.00  0.00    -0.323 N 
HETATM    8  C   UNL     1      43.531 -10.163  11.035  1.00  0.00     0.256 C 
HETATM    9  O   UNL     1      43.962 -11.225  11.476  1.00  0.00    -0.267 OA
HETATM   10  H   UNL     1      43.612  -8.693   9.577  1.00  0.00     0.169 HD
BRANCH   8  11
HETATM   11  C   UNL     1      42.629  -9.359  11.926  1.00  0.00     0.037 A 
HETATM   12  C   UNL     1      43.260  -8.563  12.901  1.00  0.00     0.054 A 
HETATM   13  C   UNL     1      42.517  -7.825  13.817  1.00  0.00     0.071 A 
HETATM   14  C   UNL     1      41.126  -7.875  13.750  1.00  0.00     0.073 A 
HETATM   15  C   UNL     1      40.476  -8.650  12.785  1.00  0.00     0.071 A 
HETATM   16  C   UNL     1      41.228  -9.396  11.874  1.00  0.00     0.054 A 
BRANCH  13  17
HETATM   17  O   UNL     1      43.023  -7.038  14.814  1.00  0.00    -0.356 OA
HETATM   18  C   UNL     1      42.183  -6.803  15.939  1.00  0.00     0.210 C 
ENDBRANCH  13  17
BRANCH  15  19
HETATM   19  O   UNL     1      39.111  -8.596  12.850  1.00  0.00    -0.356 OA
HETATM   20  C   UNL     1      38.511  -7.328  13.079  1.00  0.00     0.210 C 
ENDBRANCH  15  19
ENDBRANCH   8  11
ENDBRANCH   3   7
BRANCH   1  21
HETATM   21  C   UNL     1      43.715 -13.185   6.274  1.00  0.00     0.181 A 
HETATM   22  N   UNL     1      43.809 -14.492   6.450  1.00  0.00    -0.221 NA
HETATM   23  C   UNL     1      42.989 -15.010   5.476  1.00  0.00     0.093 A 
HETATM   24  C   UNL     1      42.414 -13.982   4.750  1.00  0.00     0.107 A 
HETATM   25  C   UNL     1      42.682 -16.330   5.126  1.00  0.00     0.035 A 
HETATM   26  C   UNL     1      41.537 -14.147   3.685  1.00  0.00     0.046 A 
HETATM   27  O   UNL     1      42.872 -12.808   5.259  1.00  0.00    -0.289 OA
HETATM   28  C   UNL     1      41.226 -15.472   3.342  1.00  0.00    -0.059 A 
HETATM   29  C   UNL     1      40.323 -15.738   2.171  1.00  0.00     0.048 C 
HETATM   30  C   UNL     1      41.802 -16.544   4.050  1.00  0.00     0.009 A 
ENDBRANCH   1  21
TORSDOF 5
ENDMDL
MODEL 6
REMARK VINA RESULT:      -8.6      2.892     10.352
REMARK  5 active torsions:
REMARK  status: ('A' for Active; 'I' for Inactive)
REMARK    1  A    between atoms: C_7  and  C_8 
REMARK    2  A    between atoms: C_10  and  N_11 
REMARK       I    between atoms: N_11  and  C_12 
REMARK    3  A    between atoms: C_12  and  C_13 
REMARK    4  A    between atoms: C_15  and  O_16 
REMARK    5  A    between atoms: C_19  and  O_20 
ROOT
HETATM    1  C   UNL     1      42.589 -14.589   2.768  1.00  0.00     0.019 A 
HETATM    2  C   UNL     1      42.718 -13.738   3.879  1.00  0.00     0.045 A 
HETATM    3  C   UNL     1      42.340 -12.392   3.820  1.00  0.00     0.035 A 
HETATM    4  C   UNL     1      41.823 -11.892   2.622  1.00  0.00     0.029 A 
HETATM    5  C   UNL     1      41.701 -12.720   1.502  1.00  0.00     0.003 A 
HETATM    6  C   UNL     1      42.080 -14.061   1.576  1.00  0.00     0.016 A 
ENDROOT
BRANCH   3   7
HETATM    7  N   UNL     1      42.400 -11.521   4.935  1.00  0.00    -0.323 N 
HETATM    8  C   UNL     1      43.557 -11.081   5.563  1.00  0.00     0.256 C 
HETATM    9  O   UNL     1      44.688 -11.200   5.101  1.00  0.00    -0.267 OA
HETATM   10  H   UNL     1      41.509 -11.192   5.270  1.00  0.00     0.169 HD
BRANCH   8  11
HETATM   11  C   UNL     1      43.423 -10.412   6.899  1.00  0.00     0.037 A 
HETATM   12  C   UNL     1      43.971 -11.099   8.000  1.00  0.00     0.054 A 
HETATM   13  C   UNL     1      43.850 -10.596   9.292  1.00  0.00     0.071 A 
HETATM   14  C   UNL     1      43.183  -9.388   9.485  1.00  0.00     0.073 A 
HETATM   15  C   UNL     1      42.638  -8.683   8.408  1.00  0.00     0.071 A 
HETATM   16  C   UNL     1      42.755  -9.198   7.113  1.00  0.00     0.054 A 
BRANCH  13  17
HETATM   17  O   UNL     1      44.324 -11.186  10.431  1.00  0.00    -0.356 OA
HETATM   18  C   UNL     1      43.693 -10.825  11.655  1.00  0.00     0.210 C 
ENDBRANCH  13  17
BRANCH  15  19
HETATM   19  O   UNL     1      42.014  -7.518   8.758  1.00  0.00    -0.356 OA
HETATM   20  C   UNL     1      42.727  -6.613   9.590  1.00  0.00     0.210 C 
ENDBRANCH  15  19
ENDBRANCH   8  11
ENDBRANCH   3   7
BRANCH   1  21
HETATM   21  C   UNL     1      42.940 -16.006   2.862  1.00  0.00     0.181 A 
HETATM   22  N   UNL     1      42.928 -16.941   1.927  1.00  0.00    -0.221 NA
HETATM   23  C   UNL     1      43.291 -18.081   2.604  1.00  0.00     0.093 A 
HETATM   24  C   UNL     1      43.524 -17.783   3.934  1.00  0.00     0.107 A 
HETATM   25  C   UNL     1      43.435 -19.407   2.179  1.00  0.00     0.035 A 
HETATM   26  C   UNL     1      43.902 -18.702   4.906  1.00  0.00     0.046 A 
HETATM   27  O   UNL     1      43.306 -16.453   4.107  1.00  0.00    -0.289 OA
HETATM   28  C   UNL     1      44.053 -20.029   4.475  1.00  0.00    -0.059 A 
HETATM   29  C   UNL     1      44.412 -21.093   5.474  1.00  0.00     0.048 C 
HETATM   30  C   UNL     1      43.811 -20.372   3.131  1.00  0.00     0.009 A 
ENDBRANCH   1  21
TORSDOF 5
ENDMDL
MODEL 7
REMARK VINA RESULT:      -8.6      1.824      9.752
REMARK  5 active torsions:
REMARK  status: ('A' for Active; 'I' for Inactive)
REMARK    1  A    between atoms: C_7  and  C_8 
REMARK    2  A    between atoms: C_10  and  N_11 
REMARK       I    between atoms: N_11  and  C_12 
REMARK    3  A    between atoms: C_12  and  C_13 
REMARK    4  A    between atoms: C_15  and  O_16 
REMARK    5  A    between atoms: C_19  and  O_20 
ROOT
HETATM    1  C   UNL     1      44.441 -12.109   6.876  1.00  0.00     0.019 A 
HETATM    2  C   UNL     1      43.887 -11.494   8.011  1.00  0.00     0.045 A 
HETATM    3  C   UNL     1      44.535 -10.442   8.666  1.00  0.00     0.035 A 
HETATM    4  C   UNL     1      45.764  -9.999   8.172  1.00  0.00     0.029 A 
HETATM    5  C   UNL     1      46.340 -10.609   7.052  1.00  0.00     0.003 A 
HETATM    6  C   UNL     1      45.680 -11.657   6.408  1.00  0.00     0.016 A 
ENDROOT
BRANCH   3   7
HETATM    7  N   UNL     1      43.977  -9.760   9.775  1.00  0.00    -0.323 N 
HETATM    8  C   UNL     1      43.874 -10.256  11.067  1.00  0.00     0.256 C 
HETATM    9  O   UNL     1      44.453 -11.257  11.478  1.00  0.00    -0.267 OA
HETATM   10  H   UNL     1      43.653  -8.825   9.584  1.00  0.00     0.169 HD
BRANCH   8  11
HETATM   11  C   UNL     1      42.993  -9.521  12.035  1.00  0.00     0.037 A 
HETATM   12  C   UNL     1      41.679 -10.009  12.179  1.00  0.00     0.054 A 
HETATM   13  C   UNL     1      40.762  -9.366  13.005  1.00  0.00     0.071 A 
HETATM   14  C   UNL     1      41.165  -8.231  13.704  1.00  0.00     0.073 A 
HETATM   15  C   UNL     1      42.466  -7.733  13.585  1.00  0.00     0.071 A 
HETATM   16  C   UNL     1      43.380  -8.377  12.747  1.00  0.00     0.054 A 
BRANCH  13  17
HETATM   17  O   UNL     1      39.462  -9.739  13.203  1.00  0.00    -0.356 OA
HETATM   18  C   UNL     1      39.139 -11.105  12.962  1.00  0.00     0.210 C 
ENDBRANCH  13  17
BRANCH  15  19
HETATM   19  O   UNL     1      42.708  -6.612  14.331  1.00  0.00    -0.356 OA
HETATM   20  C   UNL     1      41.590  -5.822  14.715  1.00  0.00     0.210 C 
ENDBRANCH  15  19
ENDBRANCH   8  11
ENDBRANCH   3   7
BRANCH   1  21
HETATM   21  C   UNL     1      43.727 -13.173   6.172  1.00  0.00     0.181 A 
HETATM   22  N   UNL     1      43.701 -14.474   6.411  1.00  0.00    -0.221 NA
HETATM   23  C   UNL     1      42.920 -14.975   5.397  1.00  0.00     0.093 A 
HETATM   24  C   UNL     1      42.488 -13.944   4.583  1.00  0.00     0.107 A 
HETATM   25  C   UNL     1      42.536 -16.284   5.081  1.00  0.00     0.035 A 
HETATM   26  C   UNL     1      41.685 -14.094   3.459  1.00  0.00     0.046 A 
HETATM   27  O   UNL     1      42.997 -12.784   5.076  1.00  0.00    -0.289 OA
HETATM   28  C   UNL     1      41.296 -15.407   3.149  1.00  0.00    -0.059 A 
HETATM   29  C   UNL     1      40.468 -15.660   1.921  1.00  0.00     0.048 C 
HETATM   30  C   UNL     1      41.728 -16.483   3.947  1.00  0.00     0.009 A 
ENDBRANCH   1  21
TORSDOF 5
ENDMDL
MODEL 8
REMARK VINA RESULT:      -8.5      2.255     10.168
REMARK  5 active torsions:
REMARK  status: ('A' for Active; 'I' for Inactive)
REMARK    1  A    between atoms: C_7  and  C_8 
REMARK    2  A    between atoms: C_10  and  N_11 
REMARK       I    between atoms: N_11  and  C_12 
REMARK    3  A    between atoms: C_12  and  C_13 
REMARK    4  A    between atoms: C_15  and  O_16 
REMARK    5  A    between atoms: C_19  and  O_20 
ROOT
HETATM    1  C   UNL     1      42.953 -13.397   3.991  1.00  0.00     0.019 A 
HETATM    2  C   UNL     1      43.078 -12.615   5.151  1.00  0.00     0.045 A 
HETATM    3  C   UNL     1      42.845 -11.236   5.135  1.00  0.00     0.035 A 
HETATM    4  C   UNL     1      42.480 -10.631   3.930  1.00  0.00     0.029 A 
HETATM    5  C   UNL     1      42.365 -11.390   2.761  1.00  0.00     0.003 A 
HETATM    6  C   UNL     1      42.599 -12.766   2.793  1.00  0.00     0.016 A 
ENDROOT
BRANCH   3   7
HETATM    7  N   UNL     1      42.902 -10.427   6.296  1.00  0.00    -0.323 N 
HETATM    8  C   UNL     1      43.900 -10.458   7.261  1.00  0.00     0.256 C 
HETATM    9  O   UNL     1      44.981 -11.025   7.127  1.00  0.00    -0.267 OA
HETATM   10  H   UNL     1      42.149  -9.765   6.396  1.00  0.00     0.169 HD
BRANCH   8  11
HETATM   11  C   UNL     1      43.645  -9.753   8.561  1.00  0.00     0.037 A 
HETATM   12  C   UNL     1      43.572  -8.347   8.506  1.00  0.00     0.054 A 
HETATM   13  C   UNL     1      43.399  -7.592   9.662  1.00  0.00     0.071 A 
HETATM   14  C   UNL     1      43.287  -8.249  10.885  1.00  0.00     0.073 A 
HETATM   15  C   UNL     1      43.347  -9.644  10.965  1.00  0.00     0.071 A 
HETATM   16  C   UNL     1      43.531 -10.397   9.802  1.00  0.00     0.054 A 
BRANCH  13  17
HETATM   17  O   UNL     1      43.334  -6.228   9.727  1.00  0.00    -0.356 OA
HETATM   18  C   UNL     1      42.048  -5.636   9.577  1.00  0.00     0.210 C 
ENDBRANCH  13  17
BRANCH  15  19
HETATM   19  O   UNL     1      43.225 -10.139  12.234  1.00  0.00    -0.356 OA
HETATM   20  C   UNL     1      42.469  -9.378  13.167  1.00  0.00     0.210 C 
ENDBRANCH  15  19
ENDBRANCH   8  11
ENDBRANCH   3   7
BRANCH   1  21
HETATM   21  C   UNL     1      43.150 -14.846   4.035  1.00  0.00     0.181 A 
HETATM   22  N   UNL     1      43.537 -15.614   5.040  1.00  0.00    -0.221 NA
HETATM   23  C   UNL     1      43.603 -16.868   4.482  1.00  0.00     0.093 A 
HETATM   24  C   UNL     1      43.237 -16.810   3.150  1.00  0.00     0.107 A 
HETATM   25  C   UNL     1      43.974 -18.106   5.021  1.00  0.00     0.035 A 
HETATM   26  C   UNL     1      43.199 -17.895   2.282  1.00  0.00     0.046 A 
HETATM   27  O   UNL     1      42.941 -15.517   2.856  1.00  0.00    -0.289 OA
HETATM   28  C   UNL     1      43.565 -19.135   2.828  1.00  0.00    -0.059 A 
HETATM   29  C   UNL     1      43.597 -20.350   1.943  1.00  0.00     0.048 C 
HETATM   30  C   UNL     1      43.956 -19.231   4.176  1.00  0.00     0.009 A 
ENDBRANCH   1  21
TORSDOF 5
ENDMDL
MODEL 9
REMARK VINA RESULT:      -8.5      6.410     10.696
REMARK  5 active torsions:
REMARK  status: ('A' for Active; 'I' for Inactive)
REMARK    1  A    between atoms: C_7  and  C_8 
REMARK    2  A    between atoms: C_10  and  N_11 
REMARK       I    between atoms: N_11  and  C_12 
REMARK    3  A    between atoms: C_12  and  C_13 
REMARK    4  A    between atoms: C_15  and  O_16 
REMARK    5  A    between atoms: C_19  and  O_20 
ROOT
HETATM    1  C   UNL     1      40.499 -12.698  -0.923  1.00  0.00     0.019 A 
HETATM    2  C   UNL     1      41.054 -13.183   0.273  1.00  0.00     0.045 A 
HETATM    3  C   UNL     1      40.742 -14.455   0.765  1.00  0.00     0.035 A 
HETATM    4  C   UNL     1      39.853 -15.254   0.042  1.00  0.00     0.029 A 
HETATM    5  C   UNL     1      39.278 -14.783  -1.143  1.00  0.00     0.003 A 
HETATM    6  C   UNL     1      39.601 -13.512  -1.622  1.00  0.00     0.016 A 
ENDROOT
BRANCH   3   7
HETATM    7  N   UNL     1      41.329 -14.999   1.933  1.00  0.00    -0.323 N 
HETATM    8  C   UNL     1      42.450 -15.816   1.975  1.00  0.00     0.256 C 
HETATM    9  O   UNL     1      43.220 -15.991   1.035  1.00  0.00    -0.267 OA
HETATM   10  H   UNL     1      40.883 -14.738   2.798  1.00  0.00     0.169 HD
BRANCH   8  11
HETATM   11  C   UNL     1      42.749 -16.537   3.257  1.00  0.00     0.037 A 
HETATM   12  C   UNL     1      42.181 -15.995   4.427  1.00  0.00     0.054 A 
HETATM   13  C   UNL     1      42.443 -16.551   5.676  1.00  0.00     0.071 A 
HETATM   14  C   UNL     1      43.273 -17.668   5.755  1.00  0.00     0.073 A 
HETATM   15  C   UNL     1      43.840 -18.229   4.608  1.00  0.00     0.071 A 
HETATM   16  C   UNL     1      43.582 -17.661   3.357  1.00  0.00     0.054 A 
BRANCH  13  17
HETATM   17  O   UNL     1      41.963 -16.097   6.872  1.00  0.00    -0.356 OA
HETATM   18  C   UNL     1      42.887 -15.429   7.725  1.00  0.00     0.210 C 
ENDBRANCH  13  17
BRANCH  15  19
HETATM   19  O   UNL     1      44.632 -19.318   4.849  1.00  0.00    -0.356 OA
HETATM   20  C   UNL     1      43.994 -20.583   4.966  1.00  0.00     0.210 C 
ENDBRANCH  15  19
ENDBRANCH   8  11
ENDBRANCH   3   7
BRANCH   1  21
HETATM   21  C   UNL     1      40.875 -11.386  -1.450  1.00  0.00     0.181 A 
HETATM   22  N   UNL     1      40.588 -10.831  -2.615  1.00  0.00    -0.221 NA
HETATM   23  C   UNL     1      41.257  -9.631  -2.576  1.00  0.00     0.093 A 
HETATM   24  C   UNL     1      41.919  -9.501  -1.369  1.00  0.00     0.107 A 
HETATM   25  C   UNL     1      41.370  -8.601  -3.518  1.00  0.00     0.035 A 
HETATM   26  C   UNL     1      42.700  -8.413  -0.998  1.00  0.00     0.046 A 
HETATM   27  O   UNL     1      41.676 -10.621  -0.639  1.00  0.00    -0.289 OA
HETATM   28  C   UNL     1      42.805  -7.379  -1.941  1.00  0.00    -0.059 A 
HETATM   29  C   UNL     1      43.670  -6.188  -1.636  1.00  0.00     0.048 C 
HETATM   30  C   UNL     1      42.156  -7.482  -3.186  1.00  0.00     0.009 A 
ENDBRANCH   1  21
TORSDOF 5
ENDMDL
MODEL 10
REMARK VINA RESULT:      -8.4      7.384     10.985
REMARK  5 active torsions:
REMARK  status: ('A' for Active; 'I' for Inactive)
REMARK    1  A    between atoms: C_7  and  C_8 
REMARK    2  A    between atoms: C_10  and  N_11 
REMARK       I    between atoms: N_11  and  C_12 
REMARK    3  A    between atoms: C_12  and  C_13 
REMARK    4  A    between atoms: C_15  and  O_16 
REMARK    5  A    between atoms: C_19  and  O_20 
ROOT
HETATM    1  C   UNL     1      40.311 -12.065  -1.726  1.00  0.00     0.019 A 
HETATM    2  C   UNL     1      40.972 -12.832  -0.751  1.00  0.00     0.045 A 
HETATM    3  C   UNL     1      40.545 -14.122  -0.419  1.00  0.00     0.035 A 
HETATM    4  C   UNL     1      39.433 -14.652  -1.078  1.00  0.00     0.029 A 
HETATM    5  C   UNL     1      38.754 -13.898  -2.041  1.00  0.00     0.003 A 
HETATM    6  C   UNL     1      39.192 -12.613  -2.363  1.00  0.00     0.016 A 
ENDROOT
BRANCH   3   7
HETATM    7  N   UNL     1      41.222 -14.945   0.514  1.00  0.00    -0.323 N 
HETATM    8  C   UNL     1      40.870 -15.127   1.844  1.00  0.00     0.256 C 
HETATM    9  O   UNL     1      39.799 -14.783   2.335  1.00  0.00    -0.267 OA
HETATM   10  H   UNL     1      42.014 -15.448   0.146  1.00  0.00     0.169 HD
BRANCH   8  11
HETATM   11  C   UNL     1      41.865 -15.790   2.751  1.00  0.00     0.037 A 
HETATM   12  C   UNL     1      42.473 -16.964   2.263  1.00  0.00     0.054 A 
HETATM   13  C   UNL     1      43.364 -17.690   3.046  1.00  0.00     0.071 A 
HETATM   14  C   UNL     1      43.661 -17.232   4.329  1.00  0.00     0.073 A 
HETATM   15  C   UNL     1      43.078 -16.066   4.832  1.00  0.00     0.071 A 
HETATM   16  C   UNL     1      42.175 -15.346   4.045  1.00  0.00     0.054 A 
BRANCH  13  17
HETATM   17  O   UNL     1      43.994 -18.847   2.682  1.00  0.00    -0.356 OA
HETATM   18  C   UNL     1      43.183 -19.873   2.120  1.00  0.00     0.210 C 
ENDBRANCH  13  17
BRANCH  15  19
HETATM   19  O   UNL     1      43.466 -15.750   6.105  1.00  0.00    -0.356 OA
HETATM   20  C   UNL     1      44.436 -16.585   6.725  1.00  0.00     0.210 C 
ENDBRANCH  15  19
ENDBRANCH   8  11
ENDBRANCH   3   7
BRANCH   1  21
HETATM   21  C   UNL     1      40.801 -10.738  -2.098  1.00  0.00     0.181 A 
HETATM   22  N   UNL     1      40.577 -10.033  -3.195  1.00  0.00    -0.221 NA
HETATM   23  C   UNL     1      41.340  -8.904  -3.016  1.00  0.00     0.093 A 
HETATM   24  C   UNL     1      41.993  -8.966  -1.798  1.00  0.00     0.107 A 
HETATM   25  C   UNL     1      41.550  -7.787  -3.833  1.00  0.00     0.035 A 
HETATM   26  C   UNL     1      42.853  -7.995  -1.301  1.00  0.00     0.046 A 
HETATM   27  O   UNL     1      41.649 -10.137  -1.201  1.00  0.00    -0.289 OA
HETATM   28  C   UNL     1      43.056  -6.873  -2.120  1.00  0.00    -0.059 A 
HETATM   29  C   UNL     1      44.010  -5.799  -1.677  1.00  0.00     0.048 C 
HETATM   30  C   UNL     1      42.419  -6.782  -3.372  1.00  0.00     0.009 A 
ENDBRANCH   1  21
TORSDOF 5
ENDMDL
