MODEL 1
REMARK VINA RESULT:      -9.5      0.000      0.000
REMARK  4 active torsions:
REMARK  status: ('A' for Active; 'I' for Inactive)
REMARK    1  A    between atoms: C_5  and  N_6 
REMARK       I    between atoms: N_6  and  C_7 
REMARK    2  A    between atoms: C_7  and  C_8 
REMARK    3  A    between atoms: N_10  and  C_11 
REMARK    4  A    between atoms: C_12  and  O_13 
ROOT
HETATM    1  C   UNL     1      43.137 -15.690   5.026  1.00  0.00     0.086 A 
HETATM    2  C   UNL     1      42.507 -15.473   3.698  1.00  0.00     0.186 A 
HETATM    3  N   UNL     1      42.015 -14.321   3.352  1.00  0.00    -0.221 NA
HETATM    4  O   UNL     1      42.465 -16.551   2.821  1.00  0.00    -0.290 OA
HETATM    5  C   UNL     1      43.038 -17.790   3.145  1.00  0.00     0.088 A 
HETATM    6  C   UNL     1      43.662 -17.979   4.372  1.00  0.00    -0.001 A 
HETATM    7  C   UNL     1      42.956 -18.807   2.198  1.00  0.00     0.038 A 
HETATM    8  C   UNL     1      43.517 -20.048   2.489  1.00  0.00     0.003 A 
HETATM    9  C   UNL     1      44.151 -20.258   3.716  1.00  0.00     0.001 A 
HETATM   10  C   UNL     1      44.224 -19.225   4.657  1.00  0.00     0.014 A 
HETATM   11  C   UNL     1      43.687 -16.880   5.322  1.00  0.00     0.035 A 
ENDROOT
BRANCH   1  12
HETATM   12  C   UNL     1      43.176 -14.646   6.115  1.00  0.00     0.260 C 
HETATM   13  N   UNL     1      43.605 -13.402   5.707  1.00  0.00    -0.323 N 
HETATM   14  H   UNL     1      43.918 -13.326   4.737  1.00  0.00     0.169 HD
HETATM   15  O   UNL     1      42.824 -14.937   7.257  1.00  0.00    -0.267 OA
BRANCH  13  16
HETATM   16  C   UNL     1      43.630 -12.200   6.441  1.00  0.00     0.035 A 
HETATM   17  C   UNL     1      42.584 -11.279   6.473  1.00  0.00     0.030 A 
HETATM   18  C   UNL     1      42.711 -10.086   7.196  1.00  0.00     0.009 A 
HETATM   19  C   UNL     1      43.882  -9.802   7.907  1.00  0.00    -0.062 A 
HETATM   20  C   UNL     1      44.029  -8.500   8.636  1.00  0.00     0.048 C 
HETATM   21  C   UNL     1      44.931 -10.724   7.873  1.00  0.00     0.009 A 
HETATM   22  C   UNL     1      44.802 -11.915   7.150  1.00  0.00     0.030 A 
ENDBRANCH  13  16
ENDBRANCH   1  12
BRANCH   3  23
HETATM   23  C   UNL     1      41.412 -14.197   2.087  1.00  0.00     0.093 A 
HETATM   24  C   UNL     1      41.495 -13.019   1.326  1.00  0.00     0.097 A 
HETATM   25  C   UNL     1      40.796 -12.900   0.121  1.00  0.00     0.039 A 
HETATM   26  C   UNL     1      40.030 -13.965  -0.352  1.00  0.00     0.003 A 
HETATM   27  C   UNL     1      39.943 -15.141   0.390  1.00  0.00     0.002 A 
HETATM   28  C   UNL     1      40.622 -15.251   1.606  1.00  0.00     0.034 A 
BRANCH  24  29
HETATM   29  O   UNL     1      42.171 -11.901   1.743  1.00  0.00    -0.354 OA
HETATM   30  C   UNL     1      41.572 -10.702   1.256  1.00  0.00     0.210 C 
ENDBRANCH  24  29
ENDBRANCH   3  23
TORSDOF 4
ENDMDL
MODEL 2
REMARK VINA RESULT:      -9.4      1.953      6.539
REMARK  4 active torsions:
REMARK  status: ('A' for Active; 'I' for Inactive)
REMARK    1  A    between atoms: C_5  and  N_6 
REMARK       I    between atoms: N_6  and  C_7 
REMARK    2  A    between atoms: C_7  and  C_8 
REMARK    3  A    between atoms: N_10  and  C_11 
REMARK    4  A    between atoms: C_12  and  O_13 
ROOT
HETATM    1  C   UNL     1      41.717 -15.218   2.222  1.00  0.00     0.086 A 
HETATM    2  C   UNL     1      42.471 -14.659   3.374  1.00  0.00     0.186 A 
HETATM    3  N   UNL     1      42.317 -13.428   3.761  1.00  0.00    -0.221 NA
HETATM    4  O   UNL     1      43.351 -15.504   4.040  1.00  0.00    -0.290 OA
HETATM    5  C   UNL     1      43.495 -16.853   3.679  1.00  0.00     0.088 A 
HETATM    6  C   UNL     1      42.760 -17.385   2.627  1.00  0.00    -0.001 A 
HETATM    7  C   UNL     1      44.393 -17.624   4.412  1.00  0.00     0.038 A 
HETATM    8  C   UNL     1      44.558 -18.967   4.081  1.00  0.00     0.003 A 
HETATM    9  C   UNL     1      43.825 -19.521   3.028  1.00  0.00     0.001 A 
HETATM   10  C   UNL     1      42.928 -18.732   2.301  1.00  0.00     0.014 A 
HETATM   11  C   UNL     1      41.861 -16.513   1.891  1.00  0.00     0.035 A 
ENDROOT
BRANCH   1  12
HETATM   12  C   UNL     1      40.798 -14.402   1.347  1.00  0.00     0.260 C 
HETATM   13  N   UNL     1      41.437 -13.533   0.491  1.00  0.00    -0.323 N 
HETATM   14  H   UNL     1      42.453 -13.474   0.580  1.00  0.00     0.169 HD
HETATM   15  O   UNL     1      39.580 -14.556   1.425  1.00  0.00    -0.267 OA
BRANCH  13  16
HETATM   16  C   UNL     1      40.877 -12.739  -0.529  1.00  0.00     0.035 A 
HETATM   17  C   UNL     1      40.410 -13.237  -1.745  1.00  0.00     0.030 A 
HETATM   18  C   UNL     1      39.908 -12.367  -2.722  1.00  0.00     0.009 A 
HETATM   19  C   UNL     1      39.856 -10.989  -2.493  1.00  0.00    -0.062 A 
HETATM   20  C   UNL     1      39.365 -10.062  -3.565  1.00  0.00     0.048 C 
HETATM   21  C   UNL     1      40.326 -10.489  -1.277  1.00  0.00     0.009 A 
HETATM   22  C   UNL     1      40.826 -11.358  -0.302  1.00  0.00     0.030 A 
ENDBRANCH  13  16
ENDBRANCH   1  12
BRANCH   3  23
HETATM   23  C   UNL     1      43.083 -12.961   4.845  1.00  0.00     0.093 A 
HETATM   24  C   UNL     1      42.846 -13.376   6.167  1.00  0.00     0.097 A 
HETATM   25  C   UNL     1      43.560 -12.812   7.228  1.00  0.00     0.039 A 
HETATM   26  C   UNL     1      44.538 -11.849   6.980  1.00  0.00     0.003 A 
HETATM   27  C   UNL     1      44.786 -11.433   5.674  1.00  0.00     0.002 A 
HETATM   28  C   UNL     1      44.056 -11.979   4.616  1.00  0.00     0.034 A 
BRANCH  24  29
HETATM   29  O   UNL     1      41.862 -14.269   6.510  1.00  0.00    -0.354 OA
HETATM   30  C   UNL     1      42.374 -15.359   7.274  1.00  0.00     0.210 C 
ENDBRANCH  24  29
ENDBRANCH   3  23
TORSDOF 4
ENDMDL
MODEL 3
REMARK VINA RESULT:      -9.2      2.586      7.139
REMARK  4 active torsions:
REMARK  status: ('A' for Active; 'I' for Inactive)
REMARK    1  A    between atoms: C_5  and  N_6 
REMARK       I    between atoms: N_6  and  C_7 
REMARK    2  A    between atoms: C_7  and  C_8 
REMARK    3  A    between atoms: N_10  and  C_11 
REMARK    4  A    between atoms: C_12  and  O_13 
ROOT
HETATM    1  C   UNL     1      40.461 -14.747   1.383  1.00  0.00     0.086 A 
HETATM    2  C   UNL     1      40.422 -13.350   1.887  1.00  0.00     0.186 A 
HETATM    3  N   UNL     1      40.781 -13.049   3.100  1.00  0.00    -0.221 NA
HETATM    4  O   UNL     1      39.994 -12.360   1.012  1.00  0.00    -0.290 OA
HETATM    5  C   UNL     1      39.654 -12.648  -0.320  1.00  0.00     0.088 A 
HETATM    6  C   UNL     1      39.729 -13.949  -0.801  1.00  0.00    -0.001 A 
HETATM    7  C   UNL     1      39.246 -11.588  -1.125  1.00  0.00     0.038 A 
HETATM    8  C   UNL     1      38.904 -11.841  -2.452  1.00  0.00     0.003 A 
HETATM    9  C   UNL     1      38.976 -13.142  -2.956  1.00  0.00     0.001 A 
HETATM   10  C   UNL     1      39.387 -14.195  -2.132  1.00  0.00     0.014 A 
HETATM   11  C   UNL     1      40.139 -15.008   0.105  1.00  0.00     0.035 A 
ENDROOT
BRANCH   1  12
HETATM   12  C   UNL     1      40.816 -15.938   2.240  1.00  0.00     0.260 C 
HETATM   13  N   UNL     1      42.044 -16.499   1.967  1.00  0.00    -0.323 N 
HETATM   14  H   UNL     1      42.557 -16.106   1.177  1.00  0.00     0.169 HD
HETATM   15  O   UNL     1      40.036 -16.322   3.109  1.00  0.00    -0.267 OA
BRANCH  13  16
HETATM   16  C   UNL     1      42.712 -17.524   2.666  1.00  0.00     0.035 A 
HETATM   17  C   UNL     1      42.942 -18.801   2.156  1.00  0.00     0.030 A 
HETATM   18  C   UNL     1      43.578 -19.773   2.939  1.00  0.00     0.009 A 
HETATM   19  C   UNL     1      44.003 -19.479   4.239  1.00  0.00    -0.062 A 
HETATM   20  C   UNL     1      44.637 -20.542   5.086  1.00  0.00     0.048 C 
HETATM   21  C   UNL     1      43.772 -18.200   4.750  1.00  0.00     0.009 A 
HETATM   22  C   UNL     1      43.137 -17.231   3.968  1.00  0.00     0.030 A 
ENDBRANCH  13  16
ENDBRANCH   1  12
BRANCH   3  23
HETATM   23  C   UNL     1      40.695 -11.707   3.515  1.00  0.00     0.093 A 
HETATM   24  C   UNL     1      41.763 -10.806   3.374  1.00  0.00     0.097 A 
HETATM   25  C   UNL     1      41.675  -9.511   3.892  1.00  0.00     0.039 A 
HETATM   26  C   UNL     1      40.508  -9.091   4.532  1.00  0.00     0.003 A 
HETATM   27  C   UNL     1      39.440  -9.973   4.674  1.00  0.00     0.002 A 
HETATM   28  C   UNL     1      39.538 -11.275   4.177  1.00  0.00     0.034 A 
BRANCH  24  29
HETATM   29  O   UNL     1      42.969 -11.151   2.817  1.00  0.00    -0.354 OA
HETATM   30  C   UNL     1      43.922 -11.537   3.805  1.00  0.00     0.210 C 
ENDBRANCH  24  29
ENDBRANCH   3  23
TORSDOF 4
ENDMDL
MODEL 4
REMARK VINA RESULT:      -9.1      2.486      7.336
REMARK  4 active torsions:
REMARK  status: ('A' for Active; 'I' for Inactive)
REMARK    1  A    between atoms: C_5  and  N_6 
REMARK       I    between atoms: N_6  and  C_7 
REMARK    2  A    between atoms: C_7  and  C_8 
REMARK    3  A    between atoms: N_10  and  C_11 
REMARK    4  A    between atoms: C_12  and  O_13 
ROOT
HETATM    1  C   UNL     1      42.826 -13.015   6.392  1.00  0.00     0.086 A 
HETATM    2  C   UNL     1      41.886 -11.937   5.989  1.00  0.00     0.186 A 
HETATM    3  N   UNL     1      40.816 -12.184   5.293  1.00  0.00    -0.221 NA
HETATM    4  O   UNL     1      42.183 -10.640   6.391  1.00  0.00    -0.290 OA
HETATM    5  C   UNL     1      43.301 -10.352   7.190  1.00  0.00     0.088 A 
HETATM    6  C   UNL     1      44.157 -11.367   7.599  1.00  0.00    -0.001 A 
HETATM    7  C   UNL     1      43.510  -9.024   7.552  1.00  0.00     0.038 A 
HETATM    8  C   UNL     1      44.609  -8.705   8.347  1.00  0.00     0.003 A 
HETATM    9  C   UNL     1      45.480  -9.713   8.770  1.00  0.00     0.001 A 
HETATM   10  C   UNL     1      45.255 -11.042   8.397  1.00  0.00     0.014 A 
HETATM   11  C   UNL     1      43.889 -12.727   7.161  1.00  0.00     0.035 A 
ENDROOT
BRANCH   1  12
HETATM   12  C   UNL     1      42.687 -14.453   5.955  1.00  0.00     0.260 C 
HETATM   13  N   UNL     1      43.078 -14.703   4.659  1.00  0.00    -0.323 N 
HETATM   14  H   UNL     1      43.354 -13.891   4.104  1.00  0.00     0.169 HD
HETATM   15  O   UNL     1      42.265 -15.296   6.745  1.00  0.00    -0.267 OA
BRANCH  13  16
HETATM   16  C   UNL     1      43.193 -15.944   4.002  1.00  0.00     0.035 A 
HETATM   17  C   UNL     1      42.563 -16.257   2.798  1.00  0.00     0.030 A 
HETATM   18  C   UNL     1      42.697 -17.534   2.238  1.00  0.00     0.009 A 
HETATM   19  C   UNL     1      43.472 -18.513   2.868  1.00  0.00    -0.062 A 
HETATM   20  C   UNL     1      43.568 -19.892   2.286  1.00  0.00     0.048 C 
HETATM   21  C   UNL     1      44.102 -18.201   4.075  1.00  0.00     0.009 A 
HETATM   22  C   UNL     1      43.967 -16.926   4.633  1.00  0.00     0.030 A 
ENDBRANCH  13  16
ENDBRANCH   1  12
BRANCH   3  23
HETATM   23  C   UNL     1      39.986 -11.108   4.929  1.00  0.00     0.093 A 
HETATM   24  C   UNL     1      38.950 -10.644   5.757  1.00  0.00     0.097 A 
HETATM   25  C   UNL     1      38.081  -9.642   5.315  1.00  0.00     0.039 A 
HETATM   26  C   UNL     1      38.254  -9.072   4.054  1.00  0.00     0.003 A 
HETATM   27  C   UNL     1      39.281  -9.519   3.226  1.00  0.00     0.002 A 
HETATM   28  C   UNL     1      40.133 -10.537   3.658  1.00  0.00     0.034 A 
BRANCH  24  29
HETATM   29  O   UNL     1      38.666 -11.189   6.984  1.00  0.00    -0.354 OA
HETATM   30  C   UNL     1      39.111 -10.356   8.053  1.00  0.00     0.210 C 
ENDBRANCH  24  29
ENDBRANCH   3  23
TORSDOF 4
ENDMDL
MODEL 5
REMARK VINA RESULT:      -9.0      2.084      7.083
REMARK  4 active torsions:
REMARK  status: ('A' for Active; 'I' for Inactive)
REMARK    1  A    between atoms: C_5  and  N_6 
REMARK       I    between atoms: N_6  and  C_7 
REMARK    2  A    between atoms: C_7  and  C_8 
REMARK    3  A    between atoms: N_10  and  C_11 
REMARK    4  A    between atoms: C_12  and  O_13 
ROOT
HETATM    1  C   UNL     1      43.173 -13.456   6.442  1.00  0.00     0.086 A 
HETATM    2  C   UNL     1      42.122 -12.500   6.008  1.00  0.00     0.186 A 
HETATM    3  N   UNL     1      41.057 -12.894   5.374  1.00  0.00    -0.221 NA
HETATM    4  O   UNL     1      42.308 -11.157   6.309  1.00  0.00    -0.290 OA
HETATM    5  C   UNL     1      43.420 -10.711   7.041  1.00  0.00     0.088 A 
HETATM    6  C   UNL     1      44.382 -11.611   7.481  1.00  0.00    -0.001 A 
HETATM    7  C   UNL     1      43.514  -9.347   7.304  1.00  0.00     0.038 A 
HETATM    8  C   UNL     1      44.605  -8.873   8.030  1.00  0.00     0.003 A 
HETATM    9  C   UNL     1      45.582  -9.763   8.484  1.00  0.00     0.001 A 
HETATM   10  C   UNL     1      45.472 -11.130   8.209  1.00  0.00     0.014 A 
HETATM   11  C   UNL     1      44.230 -13.017   7.146  1.00  0.00     0.035 A 
ENDROOT
BRANCH   1  12
HETATM   12  C   UNL     1      43.157 -14.928   6.108  1.00  0.00     0.260 C 
HETATM   13  N   UNL     1      43.166 -15.214   4.761  1.00  0.00    -0.323 N 
HETATM   14  H   UNL     1      43.112 -14.415   4.127  1.00  0.00     0.169 HD
HETATM   15  O   UNL     1      43.152 -15.762   7.012  1.00  0.00    -0.267 OA
BRANCH  13  16
HETATM   16  C   UNL     1      43.284 -16.470   4.134  1.00  0.00     0.035 A 
HETATM   17  C   UNL     1      44.132 -17.488   4.569  1.00  0.00     0.030 A 
HETATM   18  C   UNL     1      44.219 -18.691   3.857  1.00  0.00     0.009 A 
HETATM   19  C   UNL     1      43.451 -18.899   2.707  1.00  0.00    -0.062 A 
HETATM   20  C   UNL     1      43.589 -20.170   1.923  1.00  0.00     0.048 C 
HETATM   21  C   UNL     1      42.603 -17.879   2.270  1.00  0.00     0.009 A 
HETATM   22  C   UNL     1      42.517 -16.678   2.981  1.00  0.00     0.030 A 
ENDBRANCH  13  16
ENDBRANCH   1  12
BRANCH   3  23
HETATM   23  C   UNL     1      40.116 -11.928   4.973  1.00  0.00     0.093 A 
HETATM   24  C   UNL     1      40.066 -11.424   3.663  1.00  0.00     0.097 A 
HETATM   25  C   UNL     1      39.185 -10.391   3.330  1.00  0.00     0.039 A 
HETATM   26  C   UNL     1      38.324  -9.869   4.295  1.00  0.00     0.003 A 
HETATM   27  C   UNL     1      38.359 -10.362   5.597  1.00  0.00     0.002 A 
HETATM   28  C   UNL     1      39.256 -11.378   5.934  1.00  0.00     0.034 A 
BRANCH  24  29
HETATM   29  O   UNL     1      40.918 -11.833   2.668  1.00  0.00    -0.354 OA
HETATM   30  C   UNL     1      41.837 -10.807   2.297  1.00  0.00     0.210 C 
ENDBRANCH  24  29
ENDBRANCH   3  23
TORSDOF 4
ENDMDL
MODEL 6
REMARK VINA RESULT:      -8.9     15.790     17.318
REMARK  4 active torsions:
REMARK  status: ('A' for Active; 'I' for Inactive)
REMARK    1  A    between atoms: C_5  and  N_6 
REMARK       I    between atoms: N_6  and  C_7 
REMARK    2  A    between atoms: C_7  and  C_8 
REMARK    3  A    between atoms: N_10  and  C_11 
REMARK    4  A    between atoms: C_12  and  O_13 
ROOT
HETATM    1  C   UNL     1      46.103 -29.246   0.548  1.00  0.00     0.086 A 
HETATM    2  C   UNL     1      44.885 -30.095   0.580  1.00  0.00     0.186 A 
HETATM    3  N   UNL     1      44.517 -30.727   1.655  1.00  0.00    -0.221 NA
HETATM    4  O   UNL     1      44.134 -30.190  -0.586  1.00  0.00    -0.290 OA
HETATM    5  C   UNL     1      44.475 -29.475  -1.745  1.00  0.00     0.088 A 
HETATM    6  C   UNL     1      45.593 -28.650  -1.761  1.00  0.00    -0.001 A 
HETATM    7  C   UNL     1      43.657 -29.625  -2.860  1.00  0.00     0.038 A 
HETATM    8  C   UNL     1      43.967 -28.927  -4.025  1.00  0.00     0.003 A 
HETATM    9  C   UNL     1      45.086 -28.090  -4.060  1.00  0.00     0.001 A 
HETATM   10  C   UNL     1      45.898 -27.951  -2.930  1.00  0.00     0.014 A 
HETATM   11  C   UNL     1      46.416 -28.562  -0.566  1.00  0.00     0.035 A 
ENDROOT
BRANCH   1  12
HETATM   12  C   UNL     1      47.065 -29.118   1.703  1.00  0.00     0.260 C 
HETATM   13  N   UNL     1      47.764 -30.266   2.002  1.00  0.00    -0.323 N 
HETATM   14  H   UNL     1      47.517 -31.100   1.467  1.00  0.00     0.169 HD
HETATM   15  O   UNL     1      47.185 -28.041   2.286  1.00  0.00    -0.267 OA
BRANCH  13  16
HETATM   16  C   UNL     1      48.816 -30.437   2.924  1.00  0.00     0.035 A 
HETATM   17  C   UNL     1      50.128 -30.020   2.705  1.00  0.00     0.030 A 
HETATM   18  C   UNL     1      51.121 -30.270   3.661  1.00  0.00     0.009 A 
HETATM   19  C   UNL     1      50.814 -30.931   4.855  1.00  0.00    -0.062 A 
HETATM   20  C   UNL     1      51.893 -31.240   5.849  1.00  0.00     0.048 C 
HETATM   21  C   UNL     1      49.500 -31.351   5.073  1.00  0.00     0.009 A 
HETATM   22  C   UNL     1      48.510 -31.100   4.118  1.00  0.00     0.030 A 
ENDBRANCH  13  16
ENDBRANCH   1  12
BRANCH   3  23
HETATM   23  C   UNL     1      43.364 -31.532   1.603  1.00  0.00     0.093 A 
HETATM   24  C   UNL     1      42.149 -31.144   2.192  1.00  0.00     0.097 A 
HETATM   25  C   UNL     1      41.056 -32.016   2.209  1.00  0.00     0.039 A 
HETATM   26  C   UNL     1      41.155 -33.274   1.613  1.00  0.00     0.003 A 
HETATM   27  C   UNL     1      42.353 -33.668   1.021  1.00  0.00     0.002 A 
HETATM   28  C   UNL     1      43.452 -32.806   1.026  1.00  0.00     0.034 A 
BRANCH  24  29
HETATM   29  O   UNL     1      41.981 -29.955   2.855  1.00  0.00    -0.354 OA
HETATM   30  C   UNL     1      41.404 -30.141   4.146  1.00  0.00     0.210 C 
ENDBRANCH  24  29
ENDBRANCH   3  23
TORSDOF 4
ENDMDL
MODEL 7
REMARK VINA RESULT:      -8.7      2.988      7.177
REMARK  4 active torsions:
REMARK  status: ('A' for Active; 'I' for Inactive)
REMARK    1  A    between atoms: C_5  and  N_6 
REMARK       I    between atoms: N_6  and  C_7 
REMARK    2  A    between atoms: C_7  and  C_8 
REMARK    3  A    between atoms: N_10  and  C_11 
REMARK    4  A    between atoms: C_12  and  O_13 
ROOT
HETATM    1  C   UNL     1      41.226 -14.122   1.115  1.00  0.00     0.086 A 
HETATM    2  C   UNL     1      40.727 -12.823   1.635  1.00  0.00     0.186 A 
HETATM    3  N   UNL     1      41.229 -12.272   2.700  1.00  0.00    -0.221 NA
HETATM    4  O   UNL     1      39.699 -12.200   0.937  1.00  0.00    -0.290 OA
HETATM    5  C   UNL     1      39.176 -12.744  -0.247  1.00  0.00     0.088 A 
HETATM    6  C   UNL     1      39.671 -13.939  -0.754  1.00  0.00    -0.001 A 
HETATM    7  C   UNL     1      38.155 -12.043  -0.883  1.00  0.00     0.038 A 
HETATM    8  C   UNL     1      37.616 -12.555  -2.061  1.00  0.00     0.003 A 
HETATM    9  C   UNL     1      38.102 -13.754  -2.588  1.00  0.00     0.001 A 
HETATM   10  C   UNL     1      39.128 -14.446  -1.936  1.00  0.00     0.014 A 
HETATM   11  C   UNL     1      40.720 -14.628  -0.022  1.00  0.00     0.035 A 
ENDROOT
BRANCH   1  12
HETATM   12  C   UNL     1      42.270 -14.957   1.813  1.00  0.00     0.260 C 
HETATM   13  N   UNL     1      41.777 -16.050   2.491  1.00  0.00    -0.323 N 
HETATM   14  H   UNL     1      40.760 -16.148   2.515  1.00  0.00     0.169 HD
HETATM   15  O   UNL     1      43.458 -14.647   1.734  1.00  0.00    -0.267 OA
BRANCH  13  16
HETATM   16  C   UNL     1      42.493 -17.084   3.125  1.00  0.00     0.035 A 
HETATM   17  C   UNL     1      42.913 -17.048   4.454  1.00  0.00     0.030 A 
HETATM   18  C   UNL     1      43.660 -18.104   4.991  1.00  0.00     0.009 A 
HETATM   19  C   UNL     1      43.988 -19.217   4.210  1.00  0.00    -0.062 A 
HETATM   20  C   UNL     1      44.831 -20.319   4.779  1.00  0.00     0.048 C 
HETATM   21  C   UNL     1      43.569 -19.253   2.879  1.00  0.00     0.009 A 
HETATM   22  C   UNL     1      42.823 -18.198   2.344  1.00  0.00     0.030 A 
ENDBRANCH  13  16
ENDBRANCH   1  12
BRANCH   3  23
HETATM   23  C   UNL     1      40.689 -11.051   3.147  1.00  0.00     0.093 A 
HETATM   24  C   UNL     1      39.669 -10.989   4.111  1.00  0.00     0.097 A 
HETATM   25  C   UNL     1      39.087  -9.764   4.452  1.00  0.00     0.039 A 
HETATM   26  C   UNL     1      39.536  -8.586   3.856  1.00  0.00     0.003 A 
HETATM   27  C   UNL     1      40.550  -8.634   2.903  1.00  0.00     0.002 A 
HETATM   28  C   UNL     1      41.115  -9.860   2.544  1.00  0.00     0.034 A 
BRANCH  24  29
HETATM   29  O   UNL     1      39.123 -12.101   4.701  1.00  0.00    -0.354 OA
HETATM   30  C   UNL     1      39.770 -12.424   5.930  1.00  0.00     0.210 C 
ENDBRANCH  24  29
ENDBRANCH   3  23
TORSDOF 4
ENDMDL
MODEL 8
REMARK VINA RESULT:      -8.3      2.654      6.090
REMARK  4 active torsions:
REMARK  status: ('A' for Active; 'I' for Inactive)
REMARK    1  A    between atoms: C_5  and  N_6 
REMARK       I    between atoms: N_6  and  C_7 
REMARK    2  A    between atoms: C_7  and  C_8 
REMARK    3  A    between atoms: N_10  and  C_11 
REMARK    4  A    between atoms: C_12  and  O_13 
ROOT
HETATM    1  C   UNL     1      39.451 -12.116   1.311  1.00  0.00     0.086 A 
HETATM    2  C   UNL     1      40.225 -13.384   1.341  1.00  0.00     0.186 A 
HETATM    3  N   UNL     1      40.975 -13.705   2.353  1.00  0.00    -0.221 NA
HETATM    4  O   UNL     1      40.117 -14.231   0.244  1.00  0.00    -0.290 OA
HETATM    5  C   UNL     1      39.272 -13.936  -0.837  1.00  0.00     0.088 A 
HETATM    6  C   UNL     1      38.518 -12.769  -0.845  1.00  0.00    -0.001 A 
HETATM    7  C   UNL     1      39.222 -14.851  -1.884  1.00  0.00     0.038 A 
HETATM    8  C   UNL     1      38.391 -14.589  -2.971  1.00  0.00     0.003 A 
HETATM    9  C   UNL     1      37.622 -13.422  -2.997  1.00  0.00     0.001 A 
HETATM   10  C   UNL     1      37.686 -12.513  -1.936  1.00  0.00     0.014 A 
HETATM   11  C   UNL     1      38.641 -11.849   0.272  1.00  0.00     0.035 A 
ENDROOT
BRANCH   1  12
HETATM   12  C   UNL     1      39.537 -11.057   2.382  1.00  0.00     0.260 C 
HETATM   13  N   UNL     1      39.529 -11.539   3.672  1.00  0.00    -0.323 N 
HETATM   14  H   UNL     1      39.397 -12.546   3.779  1.00  0.00     0.169 HD
HETATM   15  O   UNL     1      39.621  -9.871   2.067  1.00  0.00    -0.267 OA
BRANCH  13  16
HETATM   16  C   UNL     1      39.725 -10.829   4.873  1.00  0.00     0.035 A 
HETATM   17  C   UNL     1      38.768 -10.004   5.463  1.00  0.00     0.030 A 
HETATM   18  C   UNL     1      39.064  -9.301   6.637  1.00  0.00     0.009 A 
HETATM   19  C   UNL     1      40.317  -9.420   7.246  1.00  0.00    -0.062 A 
HETATM   20  C   UNL     1      40.642  -8.624   8.474  1.00  0.00     0.048 C 
HETATM   21  C   UNL     1      41.277 -10.246   6.655  1.00  0.00     0.009 A 
HETATM   22  C   UNL     1      40.980 -10.948   5.482  1.00  0.00     0.030 A 
ENDBRANCH  13  16
ENDBRANCH   1  12
BRANCH   3  23
HETATM   23  C   UNL     1      41.698 -14.911   2.299  1.00  0.00     0.093 A 
HETATM   24  C   UNL     1      41.323 -16.047   3.037  1.00  0.00     0.097 A 
HETATM   25  C   UNL     1      42.124 -17.192   3.038  1.00  0.00     0.039 A 
HETATM   26  C   UNL     1      43.295 -17.227   2.280  1.00  0.00     0.003 A 
HETATM   27  C   UNL     1      43.676 -16.110   1.540  1.00  0.00     0.002 A 
HETATM   28  C   UNL     1      42.888 -14.958   1.559  1.00  0.00     0.034 A 
BRANCH  24  29
HETATM   29  O   UNL     1      40.224 -16.080   3.858  1.00  0.00    -0.354 OA
HETATM   30  C   UNL     1      40.588 -16.225   5.230  1.00  0.00     0.210 C 
ENDBRANCH  24  29
ENDBRANCH   3  23
TORSDOF 4
ENDMDL
MODEL 9
REMARK VINA RESULT:      -8.3      1.844      6.868
REMARK  4 active torsions:
REMARK  status: ('A' for Active; 'I' for Inactive)
REMARK    1  A    between atoms: C_5  and  N_6 
REMARK       I    between atoms: N_6  and  C_7 
REMARK    2  A    between atoms: C_7  and  C_8 
REMARK    3  A    between atoms: N_10  and  C_11 
REMARK    4  A    between atoms: C_12  and  O_13 
ROOT
HETATM    1  C   UNL     1      42.496 -14.083   3.832  1.00  0.00     0.086 A 
HETATM    2  C   UNL     1      43.101 -13.321   4.954  1.00  0.00     0.186 A 
HETATM    3  N   UNL     1      43.164 -12.022   4.945  1.00  0.00    -0.221 NA
HETATM    4  O   UNL     1      43.596 -14.044   6.033  1.00  0.00    -0.290 OA
HETATM    5  C   UNL     1      43.490 -15.442   6.095  1.00  0.00     0.088 A 
HETATM    6  C   UNL     1      42.889 -16.151   5.063  1.00  0.00    -0.001 A 
HETATM    7  C   UNL     1      44.006 -16.078   7.221  1.00  0.00     0.038 A 
HETATM    8  C   UNL     1      43.914 -17.466   7.314  1.00  0.00     0.003 A 
HETATM    9  C   UNL     1      43.311 -18.196   6.287  1.00  0.00     0.001 A 
HETATM   10  C   UNL     1      42.799 -17.541   5.163  1.00  0.00     0.014 A 
HETATM   11  C   UNL     1      42.397 -15.421   3.907  1.00  0.00     0.035 A 
ENDROOT
BRANCH   1  12
HETATM   12  C   UNL     1      42.001 -13.446   2.557  1.00  0.00     0.260 C 
HETATM   13  N   UNL     1      40.908 -14.063   1.991  1.00  0.00    -0.323 N 
HETATM   14  H   UNL     1      40.586 -14.921   2.443  1.00  0.00     0.169 HD
HETATM   15  O   UNL     1      42.561 -12.445   2.114  1.00  0.00    -0.267 OA
BRANCH  13  16
HETATM   16  C   UNL     1      40.139 -13.643   0.887  1.00  0.00     0.035 A 
HETATM   17  C   UNL     1      39.429 -12.444   0.836  1.00  0.00     0.030 A 
HETATM   18  C   UNL     1      38.654 -12.126  -0.287  1.00  0.00     0.009 A 
HETATM   19  C   UNL     1      38.586 -12.997  -1.379  1.00  0.00    -0.062 A 
HETATM   20  C   UNL     1      37.713 -12.672  -2.553  1.00  0.00     0.048 C 
HETATM   21  C   UNL     1      39.295 -14.199  -1.327  1.00  0.00     0.009 A 
HETATM   22  C   UNL     1      40.069 -14.515  -0.205  1.00  0.00     0.030 A 
ENDBRANCH  13  16
ENDBRANCH   1  12
BRANCH   3  23
HETATM   23  C   UNL     1      43.773 -11.369   6.033  1.00  0.00     0.093 A 
HETATM   24  C   UNL     1      43.043 -10.589   6.946  1.00  0.00     0.097 A 
HETATM   25  C   UNL     1      43.698  -9.872   7.952  1.00  0.00     0.039 A 
HETATM   26  C   UNL     1      45.085  -9.950   8.076  1.00  0.00     0.003 A 
HETATM   27  C   UNL     1      45.820 -10.724   7.182  1.00  0.00     0.002 A 
HETATM   28  C   UNL     1      45.167 -11.420   6.162  1.00  0.00     0.034 A 
BRANCH  24  29
HETATM   29  O   UNL     1      41.686 -10.404   6.860  1.00  0.00    -0.354 OA
HETATM   30  C   UNL     1      41.353  -9.225   6.130  1.00  0.00     0.210 C 
ENDBRANCH  24  29
ENDBRANCH   3  23
TORSDOF 4
ENDMDL
MODEL 10
REMARK VINA RESULT:      -8.1      3.668      6.663
REMARK  4 active torsions:
REMARK  status: ('A' for Active; 'I' for Inactive)
REMARK    1  A    between atoms: C_5  and  N_6 
REMARK       I    between atoms: N_6  and  C_7 
REMARK    2  A    between atoms: C_7  and  C_8 
REMARK    3  A    between atoms: N_10  and  C_11 
REMARK    4  A    between atoms: C_12  and  O_13 
ROOT
HETATM    1  C   UNL     1      40.713 -13.723   0.800  1.00  0.00     0.086 A 
HETATM    2  C   UNL     1      40.257 -12.317   0.660  1.00  0.00     0.186 A 
HETATM    3  N   UNL     1      40.650 -11.383   1.475  1.00  0.00    -0.221 NA
HETATM    4  O   UNL     1      39.391 -12.021  -0.387  1.00  0.00    -0.290 OA
HETATM    5  C   UNL     1      38.994 -12.996  -1.315  1.00  0.00     0.088 A 
HETATM    6  C   UNL     1      39.453 -14.303  -1.205  1.00  0.00    -0.001 A 
HETATM    7  C   UNL     1      38.134 -12.603  -2.336  1.00  0.00     0.038 A 
HETATM    8  C   UNL     1      37.723 -13.547  -3.274  1.00  0.00     0.003 A 
HETATM    9  C   UNL     1      38.176 -14.866  -3.183  1.00  0.00     0.001 A 
HETATM   10  C   UNL     1      39.039 -15.244  -2.150  1.00  0.00     0.014 A 
HETATM   11  C   UNL     1      40.329 -14.646  -0.098  1.00  0.00     0.035 A 
ENDROOT
BRANCH   1  12
HETATM   12  C   UNL     1      41.577 -14.214   1.936  1.00  0.00     0.260 C 
HETATM   13  N   UNL     1      40.955 -15.091   2.797  1.00  0.00    -0.323 N 
HETATM   14  H   UNL     1      39.963 -15.266   2.627  1.00  0.00     0.169 HD
HETATM   15  O   UNL     1      42.744 -13.838   2.025  1.00  0.00    -0.267 OA
BRANCH  13  16
HETATM   16  C   UNL     1      41.518 -15.818   3.864  1.00  0.00     0.035 A 
HETATM   17  C   UNL     1      41.136 -15.679   5.198  1.00  0.00     0.030 A 
HETATM   18  C   UNL     1      41.781 -16.412   6.201  1.00  0.00     0.009 A 
HETATM   19  C   UNL     1      42.811 -17.305   5.884  1.00  0.00    -0.062 A 
HETATM   20  C   UNL     1      43.530 -18.047   6.971  1.00  0.00     0.048 C 
HETATM   21  C   UNL     1      43.195 -17.443   4.549  1.00  0.00     0.009 A 
HETATM   22  C   UNL     1      42.549 -16.710   3.548  1.00  0.00     0.030 A 
ENDBRANCH  13  16
ENDBRANCH   1  12
BRANCH   3  23
HETATM   23  C   UNL     1      40.157 -10.078   1.294  1.00  0.00     0.093 A 
HETATM   24  C   UNL     1      40.868  -9.098   0.581  1.00  0.00     0.097 A 
HETATM   25  C   UNL     1      40.393  -7.784   0.512  1.00  0.00     0.039 A 
HETATM   26  C   UNL     1      39.190  -7.442   1.128  1.00  0.00     0.003 A 
HETATM   27  C   UNL     1      38.473  -8.406   1.834  1.00  0.00     0.002 A 
HETATM   28  C   UNL     1      38.960  -9.712   1.923  1.00  0.00     0.034 A 
BRANCH  24  29
HETATM   29  O   UNL     1      42.088  -9.329  -0.002  1.00  0.00    -0.354 OA
HETATM   30  C   UNL     1      41.987  -9.459  -1.418  1.00  0.00     0.210 C 
ENDBRANCH  24  29
ENDBRANCH   3  23
TORSDOF 4
ENDMDL
