MODEL 1
REMARK VINA RESULT:      -8.8      0.000      0.000
REMARK  6 active torsions:
REMARK  status: ('A' for Active; 'I' for Inactive)
REMARK    1  A    between atoms: C_6  and  C_7 
REMARK    2  A    between atoms: N_8  and  N_9 
REMARK       I    between atoms: N_9  and  C_10 
REMARK    3  A    between atoms: C_10  and  C_11 
REMARK    4  A    between atoms: C_14  and  O_15 
REMARK    5  A    between atoms: O_15  and  C_16 
REMARK    6  A    between atoms: C_16  and  C_17 
ROOT
HETATM    1  C   UNL     1      42.672 -12.059   3.573  1.00  0.00     0.244 C 
HETATM    2  N   UNL     1      42.830 -12.598   4.920  1.00  0.00    -0.225 N 
HETATM    3  C   UNL     1      42.667 -13.940   5.210  1.00  0.00     0.276 C 
HETATM    4  O   UNL     1      42.530 -14.365   6.357  1.00  0.00    -0.266 OA
HETATM    5  C   UNL     1      42.719 -14.851   4.047  1.00  0.00     0.060 A 
HETATM    6  C   UNL     1      43.152 -14.314   2.825  1.00  0.00     0.045 A 
HETATM    7  N   UNL     1      43.477 -12.954   2.721  1.00  0.00    -0.362 N 
HETATM    8  C   UNL     1      42.432 -16.212   4.186  1.00  0.00     0.019 A 
HETATM    9  C   UNL     1      42.589 -17.058   3.091  1.00  0.00     0.001 A 
HETATM   10  C   UNL     1      43.056 -16.546   1.878  1.00  0.00     0.002 A 
HETATM   11  C   UNL     1      43.351 -15.184   1.751  1.00  0.00     0.030 A 
HETATM   12  H   UNL     1      43.636 -12.605   1.788  1.00  0.00     0.162 HD
ENDROOT
BRANCH   2  13
HETATM   13  N   UNL     1      43.001 -11.723   6.016  1.00  0.00    -0.258 N 
HETATM   14  C   UNL     1      44.235 -11.190   6.333  1.00  0.00     0.270 C 
HETATM   15  O   UNL     1      45.212 -11.143   5.596  1.00  0.00    -0.266 OA
HETATM   16  H   UNL     1      42.298 -11.850   6.742  1.00  0.00     0.190 HD
BRANCH  14  17
HETATM   17  C   UNL     1      44.298 -10.562   7.675  1.00  0.00     0.033 A 
HETATM   18  C   UNL     1      45.495 -10.514   8.397  1.00  0.00     0.020 A 
HETATM   19  C   UNL     1      45.515  -9.941   9.675  1.00  0.00     0.038 A 
HETATM   20  C   UNL     1      44.344  -9.421  10.232  1.00  0.00     0.069 A 
HETATM   21  C   UNL     1      43.156  -9.463   9.495  1.00  0.00     0.038 A 
HETATM   22  C   UNL     1      43.130 -10.022   8.216  1.00  0.00     0.020 A 
BRANCH  20  23
HETATM   23  O   UNL     1      44.225  -8.854  11.470  1.00  0.00    -0.348 OA
BRANCH  23  24
HETATM   24  C   UNL     1      42.941  -8.352  11.836  1.00  0.00     0.202 C 
BRANCH  24  25
HETATM   25  C   UNL     1      42.916  -8.231  13.330  1.00  0.00    -0.011 C 
HETATM   26  C   UNL     1      43.263  -7.132  14.013  1.00  0.00     0.009 C 
ENDBRANCH  24  25
ENDBRANCH  23  24
ENDBRANCH  20  23
ENDBRANCH  14  17
ENDBRANCH   2  13
BRANCH   1  27
HETATM   27  C   UNL     1      41.219 -11.903   3.040  1.00  0.00    -0.009 A 
HETATM   28  C   UNL     1      40.207 -11.102   3.629  1.00  0.00    -0.051 A 
HETATM   29  C   UNL     1      38.937 -11.001   3.011  1.00  0.00     0.014 A 
HETATM   30  C   UNL     1      40.383 -10.295   4.885  1.00  0.00     0.049 C 
HETATM   31  C   UNL     1      38.640 -11.646   1.811  1.00  0.00    -0.061 A 
HETATM   32  C   UNL     1      37.302 -11.474   1.156  1.00  0.00     0.048 C 
HETATM   33  C   UNL     1      39.639 -12.387   1.197  1.00  0.00     0.007 A 
HETATM   34  C   UNL     1      40.897 -12.505   1.795  1.00  0.00     0.012 A 
ENDBRANCH   1  27
TORSDOF 6
ENDMDL
MODEL 2
REMARK VINA RESULT:      -8.8      4.113      8.972
REMARK  6 active torsions:
REMARK  status: ('A' for Active; 'I' for Inactive)
REMARK    1  A    between atoms: C_6  and  C_7 
REMARK    2  A    between atoms: N_8  and  N_9 
REMARK       I    between atoms: N_9  and  C_10 
REMARK    3  A    between atoms: C_10  and  C_11 
REMARK    4  A    between atoms: C_14  and  O_15 
REMARK    5  A    between atoms: O_15  and  C_16 
REMARK    6  A    between atoms: C_16  and  C_17 
ROOT
HETATM    1  C   UNL     1      41.628 -14.285   4.395  1.00  0.00     0.244 C 
HETATM    2  N   UNL     1      41.861 -14.758   3.035  1.00  0.00    -0.225 N 
HETATM    3  C   UNL     1      42.722 -15.800   2.745  1.00  0.00     0.276 C 
HETATM    4  O   UNL     1      43.132 -16.033   1.608  1.00  0.00    -0.266 OA
HETATM    5  C   UNL     1      43.084 -16.660   3.891  1.00  0.00     0.060 A 
HETATM    6  C   UNL     1      42.359 -16.491   5.081  1.00  0.00     0.045 A 
HETATM    7  N   UNL     1      41.363 -15.509   5.173  1.00  0.00    -0.362 N 
HETATM    8  C   UNL     1      44.052 -17.661   3.762  1.00  0.00     0.019 A 
HETATM    9  C   UNL     1      44.295 -18.518   4.833  1.00  0.00     0.001 A 
HETATM   10  C   UNL     1      43.555 -18.387   6.010  1.00  0.00     0.002 A 
HETATM   11  C   UNL     1      42.581 -17.389   6.127  1.00  0.00     0.030 A 
HETATM   12  H   UNL     1      40.986 -15.342   6.093  1.00  0.00     0.162 HD
ENDROOT
BRANCH   2  13
HETATM   13  N   UNL     1      41.324 -14.049   1.937  1.00  0.00    -0.258 N 
HETATM   14  C   UNL     1      40.417 -14.629   1.073  1.00  0.00     0.270 C 
HETATM   15  O   UNL     1      39.759 -15.639   1.287  1.00  0.00    -0.266 OA
HETATM   16  H   UNL     1      41.929 -13.297   1.613  1.00  0.00     0.190 HD
BRANCH  14  17
HETATM   17  C   UNL     1      40.204 -13.869  -0.183  1.00  0.00     0.033 A 
HETATM   18  C   UNL     1      39.441 -14.397  -1.229  1.00  0.00     0.020 A 
HETATM   19  C   UNL     1      39.284 -13.668  -2.415  1.00  0.00     0.038 A 
HETATM   20  C   UNL     1      39.891 -12.418  -2.557  1.00  0.00     0.069 A 
HETATM   21  C   UNL     1      40.642 -11.894  -1.500  1.00  0.00     0.038 A 
HETATM   22  C   UNL     1      40.793 -12.609  -0.311  1.00  0.00     0.020 A 
BRANCH  20  23
HETATM   23  O   UNL     1      39.832 -11.616  -3.663  1.00  0.00    -0.348 OA
BRANCH  23  24
HETATM   24  C   UNL     1      39.484 -10.249  -3.460  1.00  0.00     0.202 C 
BRANCH  24  25
HETATM   25  C   UNL     1      40.528  -9.414  -4.138  1.00  0.00    -0.011 C 
HETATM   26  C   UNL     1      41.351  -8.563  -3.512  1.00  0.00     0.009 C 
ENDBRANCH  24  25
ENDBRANCH  23  24
ENDBRANCH  20  23
ENDBRANCH  14  17
ENDBRANCH   2  13
BRANCH   1  27
HETATM   27  C   UNL     1      42.746 -13.418   5.043  1.00  0.00    -0.009 A 
HETATM   28  C   UNL     1      43.346 -12.274   4.456  1.00  0.00    -0.051 A 
HETATM   29  C   UNL     1      44.317 -11.538   5.177  1.00  0.00     0.014 A 
HETATM   30  C   UNL     1      43.004 -11.738   3.094  1.00  0.00     0.049 C 
HETATM   31  C   UNL     1      44.698 -11.878   6.475  1.00  0.00    -0.061 A 
HETATM   32  C   UNL     1      45.689 -11.044   7.229  1.00  0.00     0.048 C 
HETATM   33  C   UNL     1      44.077 -12.961   7.080  1.00  0.00     0.007 A 
HETATM   34  C   UNL     1      43.122 -13.706   6.382  1.00  0.00     0.012 A 
ENDBRANCH   1  27
TORSDOF 6
ENDMDL
MODEL 3
REMARK VINA RESULT:      -8.7      2.211      4.741
REMARK  6 active torsions:
REMARK  status: ('A' for Active; 'I' for Inactive)
REMARK    1  A    between atoms: C_6  and  C_7 
REMARK    2  A    between atoms: N_8  and  N_9 
REMARK       I    between atoms: N_9  and  C_10 
REMARK    3  A    between atoms: C_10  and  C_11 
REMARK    4  A    between atoms: C_14  and  O_15 
REMARK    5  A    between atoms: O_15  and  C_16 
REMARK    6  A    between atoms: C_16  and  C_17 
ROOT
HETATM    1  C   UNL     1      41.326 -14.995   4.097  1.00  0.00     0.244 C 
HETATM    2  N   UNL     1      41.923 -13.675   3.928  1.00  0.00    -0.225 N 
HETATM    3  C   UNL     1      42.110 -13.094   2.687  1.00  0.00     0.276 C 
HETATM    4  O   UNL     1      42.842 -12.121   2.507  1.00  0.00    -0.266 OA
HETATM    5  C   UNL     1      41.325 -13.688   1.585  1.00  0.00     0.060 A 
HETATM    6  C   UNL     1      40.317 -14.602   1.929  1.00  0.00     0.045 A 
HETATM    7  N   UNL     1      40.107 -14.958   3.268  1.00  0.00    -0.362 N 
HETATM    8  C   UNL     1      41.524 -13.285   0.261  1.00  0.00     0.019 A 
HETATM    9  C   UNL     1      40.698 -13.793  -0.739  1.00  0.00     0.001 A 
HETATM   10  C   UNL     1      39.666 -14.673  -0.408  1.00  0.00     0.002 A 
HETATM   11  C   UNL     1      39.467 -15.063   0.921  1.00  0.00     0.030 A 
HETATM   12  H   UNL     1      39.472 -15.724   3.431  1.00  0.00     0.162 HD
ENDROOT
BRANCH   2  13
HETATM   13  N   UNL     1      42.485 -13.005   5.038  1.00  0.00    -0.258 N 
HETATM   14  C   UNL     1      41.805 -12.001   5.699  1.00  0.00     0.270 C 
HETATM   15  O   UNL     1      40.603 -11.778   5.633  1.00  0.00    -0.266 OA
HETATM   16  H   UNL     1      43.503 -13.019   5.040  1.00  0.00     0.190 HD
BRANCH  14  17
HETATM   17  C   UNL     1      42.649 -11.200   6.619  1.00  0.00     0.033 A 
HETATM   18  C   UNL     1      42.297  -9.895   6.975  1.00  0.00     0.020 A 
HETATM   19  C   UNL     1      43.131  -9.154   7.822  1.00  0.00     0.038 A 
HETATM   20  C   UNL     1      44.314  -9.713   8.309  1.00  0.00     0.069 A 
HETATM   21  C   UNL     1      44.651 -11.025   7.957  1.00  0.00     0.038 A 
HETATM   22  C   UNL     1      43.819 -11.774   7.122  1.00  0.00     0.020 A 
BRANCH  20  23
HETATM   23  O   UNL     1      45.221  -9.095   9.124  1.00  0.00    -0.348 OA
BRANCH  23  24
HETATM   24  C   UNL     1      45.370  -9.612  10.445  1.00  0.00     0.202 C 
BRANCH  24  25
HETATM   25  C   UNL     1      44.134  -9.248  11.212  1.00  0.00    -0.011 C 
HETATM   26  C   UNL     1      43.326 -10.126  11.819  1.00  0.00     0.009 C 
ENDBRANCH  24  25
ENDBRANCH  23  24
ENDBRANCH  20  23
ENDBRANCH  14  17
ENDBRANCH   2  13
BRANCH   1  27
HETATM   27  C   UNL     1      42.219 -16.223   3.759  1.00  0.00    -0.009 A 
HETATM   28  C   UNL     1      43.254 -16.739   4.580  1.00  0.00    -0.051 A 
HETATM   29  C   UNL     1      43.958 -17.902   4.181  1.00  0.00     0.014 A 
HETATM   30  C   UNL     1      43.665 -16.154   5.902  1.00  0.00     0.049 C 
HETATM   31  C   UNL     1      43.654 -18.591   3.007  1.00  0.00    -0.061 A 
HETATM   32  C   UNL     1      44.383 -19.849   2.643  1.00  0.00     0.048 C 
HETATM   33  C   UNL     1      42.606 -18.128   2.225  1.00  0.00     0.007 A 
HETATM   34  C   UNL     1      41.905 -16.977   2.598  1.00  0.00     0.012 A 
ENDBRANCH   1  27
TORSDOF 6
ENDMDL
MODEL 4
REMARK VINA RESULT:      -8.5      6.719      8.962
REMARK  6 active torsions:
REMARK  status: ('A' for Active; 'I' for Inactive)
REMARK    1  A    between atoms: C_6  and  C_7 
REMARK    2  A    between atoms: N_8  and  N_9 
REMARK       I    between atoms: N_9  and  C_10 
REMARK    3  A    between atoms: C_10  and  C_11 
REMARK    4  A    between atoms: C_14  and  O_15 
REMARK    5  A    between atoms: O_15  and  C_16 
REMARK    6  A    between atoms: C_16  and  C_17 
ROOT
HETATM    1  C   UNL     1      40.073 -11.796  -1.321  1.00  0.00     0.244 C 
HETATM    2  N   UNL     1      39.802 -12.310   0.016  1.00  0.00    -0.225 N 
HETATM    3  C   UNL     1      38.793 -11.808   0.818  1.00  0.00     0.276 C 
HETATM    4  O   UNL     1      38.721 -12.035   2.025  1.00  0.00    -0.266 OA
HETATM    5  C   UNL     1      37.763 -11.013   0.116  1.00  0.00     0.060 A 
HETATM    6  C   UNL     1      37.772 -11.038  -1.287  1.00  0.00     0.045 A 
HETATM    7  N   UNL     1      38.754 -11.760  -1.979  1.00  0.00    -0.362 N 
HETATM    8  C   UNL     1      36.769 -10.335   0.828  1.00  0.00     0.019 A 
HETATM    9  C   UNL     1      35.757  -9.679   0.131  1.00  0.00     0.001 A 
HETATM   10  C   UNL     1      35.729  -9.728  -1.265  1.00  0.00     0.002 A 
HETATM   11  C   UNL     1      36.723 -10.416  -1.969  1.00  0.00     0.030 A 
HETATM   12  H   UNL     1      38.792 -11.617  -2.977  1.00  0.00     0.162 HD
ENDROOT
BRANCH   2  13
HETATM   13  N   UNL     1      40.679 -13.247   0.606  1.00  0.00    -0.258 N 
HETATM   14  C   UNL     1      40.439 -14.605   0.543  1.00  0.00     0.270 C 
HETATM   15  O   UNL     1      39.676 -15.169  -0.231  1.00  0.00    -0.266 OA
HETATM   16  H   UNL     1      41.217 -12.859   1.379  1.00  0.00     0.190 HD
BRANCH  14  17
HETATM   17  C   UNL     1      41.269 -15.412   1.470  1.00  0.00     0.033 A 
HETATM   18  C   UNL     1      42.622 -15.652   1.210  1.00  0.00     0.020 A 
HETATM   19  C   UNL     1      43.371 -16.444   2.089  1.00  0.00     0.038 A 
HETATM   20  C   UNL     1      42.772 -16.997   3.222  1.00  0.00     0.069 A 
HETATM   21  C   UNL     1      41.421 -16.741   3.480  1.00  0.00     0.038 A 
HETATM   22  C   UNL     1      40.670 -15.943   2.615  1.00  0.00     0.020 A 
BRANCH  20  23
HETATM   23  O   UNL     1      43.383 -17.799   4.146  1.00  0.00    -0.348 OA
BRANCH  23  24
HETATM   24  C   UNL     1      44.408 -18.671   3.676  1.00  0.00     0.202 C 
BRANCH  24  25
HETATM   25  C   UNL     1      43.750 -19.953   3.261  1.00  0.00    -0.011 C 
HETATM   26  C   UNL     1      43.382 -20.252   2.008  1.00  0.00     0.009 C 
ENDBRANCH  24  25
ENDBRANCH  23  24
ENDBRANCH  20  23
ENDBRANCH  14  17
ENDBRANCH   2  13
BRANCH   1  27
HETATM   27  C   UNL     1      40.806 -10.427  -1.417  1.00  0.00    -0.009 A 
HETATM   28  C   UNL     1      40.932  -9.640  -2.590  1.00  0.00    -0.051 A 
HETATM   29  C   UNL     1      41.576  -8.381  -2.531  1.00  0.00     0.014 A 
HETATM   30  C   UNL     1      40.391 -10.029  -3.938  1.00  0.00     0.049 C 
HETATM   31  C   UNL     1      42.080  -7.858  -1.340  1.00  0.00    -0.061 A 
HETATM   32  C   UNL     1      42.709  -6.497  -1.303  1.00  0.00     0.048 C 
HETATM   33  C   UNL     1      41.913  -8.593  -0.176  1.00  0.00     0.007 A 
HETATM   34  C   UNL     1      41.286  -9.842  -0.216  1.00  0.00     0.012 A 
ENDBRANCH   1  27
TORSDOF 6
ENDMDL
MODEL 5
REMARK VINA RESULT:      -8.5     18.707     20.595
REMARK  6 active torsions:
REMARK  status: ('A' for Active; 'I' for Inactive)
REMARK    1  A    between atoms: C_6  and  C_7 
REMARK    2  A    between atoms: N_8  and  N_9 
REMARK       I    between atoms: N_9  and  C_10 
REMARK    3  A    between atoms: C_10  and  C_11 
REMARK    4  A    between atoms: C_14  and  O_15 
REMARK    5  A    between atoms: O_15  and  C_16 
REMARK    6  A    between atoms: C_16  and  C_17 
ROOT
HETATM    1  C   UNL     1      44.525 -29.348  -0.931  1.00  0.00     0.244 C 
HETATM    2  N   UNL     1      44.521 -30.329   0.148  1.00  0.00    -0.225 N 
HETATM    3  C   UNL     1      45.619 -31.116   0.445  1.00  0.00     0.276 C 
HETATM    4  O   UNL     1      45.551 -32.117   1.157  1.00  0.00    -0.266 OA
HETATM    5  C   UNL     1      46.905 -30.645  -0.111  1.00  0.00     0.060 A 
HETATM    6  C   UNL     1      46.935 -29.359  -0.671  1.00  0.00     0.045 A 
HETATM    7  N   UNL     1      45.770 -28.582  -0.730  1.00  0.00    -0.362 N 
HETATM    8  C   UNL     1      48.063 -31.421  -0.002  1.00  0.00     0.019 A 
HETATM    9  C   UNL     1      49.276 -30.902  -0.447  1.00  0.00     0.001 A 
HETATM   10  C   UNL     1      49.330 -29.609  -0.971  1.00  0.00     0.002 A 
HETATM   11  C   UNL     1      48.168 -28.836  -1.067  1.00  0.00     0.030 A 
HETATM   12  H   UNL     1      45.827 -27.734  -1.274  1.00  0.00     0.162 HD
ENDROOT
BRANCH   2  13
HETATM   13  N   UNL     1      43.321 -30.622   0.833  1.00  0.00    -0.258 N 
HETATM   14  C   UNL     1      43.038 -30.071   2.068  1.00  0.00     0.270 C 
HETATM   15  O   UNL     1      43.581 -29.092   2.563  1.00  0.00    -0.266 OA
HETATM   16  H   UNL     1      42.921 -31.520   0.571  1.00  0.00     0.190 HD
BRANCH  14  17
HETATM   17  C   UNL     1      41.909 -30.720   2.777  1.00  0.00     0.033 A 
HETATM   18  C   UNL     1      41.674 -30.484   4.135  1.00  0.00     0.020 A 
HETATM   19  C   UNL     1      40.618 -31.136   4.784  1.00  0.00     0.038 A 
HETATM   20  C   UNL     1      39.802 -32.025   4.081  1.00  0.00     0.069 A 
HETATM   21  C   UNL     1      40.038 -32.245   2.720  1.00  0.00     0.038 A 
HETATM   22  C   UNL     1      41.081 -31.589   2.063  1.00  0.00     0.020 A 
BRANCH  20  23
HETATM   23  O   UNL     1      38.754 -32.736   4.597  1.00  0.00    -0.348 OA
BRANCH  23  24
HETATM   24  C   UNL     1      38.074 -33.627   3.716  1.00  0.00     0.202 C 
BRANCH  24  25
HETATM   25  C   UNL     1      36.687 -33.817   4.252  1.00  0.00    -0.011 C 
HETATM   26  C   UNL     1      35.685 -32.941   4.105  1.00  0.00     0.009 C 
ENDBRANCH  24  25
ENDBRANCH  23  24
ENDBRANCH  20  23
ENDBRANCH  14  17
ENDBRANCH   2  13
BRANCH   1  27
HETATM   27  C   UNL     1      44.410 -29.894  -2.384  1.00  0.00    -0.009 A 
HETATM   28  C   UNL     1      44.667 -29.154  -3.565  1.00  0.00    -0.051 A 
HETATM   29  C   UNL     1      44.581 -29.787  -4.829  1.00  0.00     0.014 A 
HETATM   30  C   UNL     1      45.070 -27.706  -3.592  1.00  0.00     0.049 C 
HETATM   31  C   UNL     1      44.273 -31.141  -4.964  1.00  0.00    -0.061 A 
HETATM   32  C   UNL     1      44.242 -31.791  -6.314  1.00  0.00     0.048 C 
HETATM   33  C   UNL     1      44.075 -31.888  -3.813  1.00  0.00     0.007 A 
HETATM   34  C   UNL     1      44.148 -31.279  -2.556  1.00  0.00     0.012 A 
ENDBRANCH   1  27
TORSDOF 6
ENDMDL
MODEL 6
REMARK VINA RESULT:      -8.2      6.857      9.337
REMARK  6 active torsions:
REMARK  status: ('A' for Active; 'I' for Inactive)
REMARK    1  A    between atoms: C_6  and  C_7 
REMARK    2  A    between atoms: N_8  and  N_9 
REMARK       I    between atoms: N_9  and  C_10 
REMARK    3  A    between atoms: C_10  and  C_11 
REMARK    4  A    between atoms: C_14  and  O_15 
REMARK    5  A    between atoms: O_15  and  C_16 
REMARK    6  A    between atoms: C_16  and  C_17 
ROOT
HETATM    1  C   UNL     1      39.832 -11.703  -2.297  1.00  0.00     0.244 C 
HETATM    2  N   UNL     1      39.480 -12.081  -0.932  1.00  0.00    -0.225 N 
HETATM    3  C   UNL     1      38.433 -11.497  -0.243  1.00  0.00     0.276 C 
HETATM    4  O   UNL     1      38.291 -11.603   0.974  1.00  0.00    -0.266 OA
HETATM    5  C   UNL     1      37.453 -10.770  -1.078  1.00  0.00     0.060 A 
HETATM    6  C   UNL     1      37.540 -10.933  -2.468  1.00  0.00     0.045 A 
HETATM    7  N   UNL     1      38.552 -11.726  -3.029  1.00  0.00    -0.362 N 
HETATM    8  C   UNL     1      36.427 -10.020  -0.494  1.00  0.00     0.019 A 
HETATM    9  C   UNL     1      35.463  -9.432  -1.309  1.00  0.00     0.001 A 
HETATM   10  C   UNL     1      35.514  -9.618  -2.692  1.00  0.00     0.002 A 
HETATM   11  C   UNL     1      36.538 -10.377  -3.267  1.00  0.00     0.030 A 
HETATM   12  H   UNL     1      38.648 -11.682  -4.032  1.00  0.00     0.162 HD
ENDROOT
BRANCH   2  13
HETATM   13  N   UNL     1      40.313 -12.959  -0.204  1.00  0.00    -0.258 N 
HETATM   14  C   UNL     1      40.075 -14.319  -0.164  1.00  0.00     0.270 C 
HETATM   15  O   UNL     1      39.365 -14.951  -0.937  1.00  0.00    -0.266 OA
HETATM   16  H   UNL     1      40.797 -12.503   0.567  1.00  0.00     0.190 HD
BRANCH  14  17
HETATM   17  C   UNL     1      40.838 -15.038   0.884  1.00  0.00     0.033 A 
HETATM   18  C   UNL     1      42.235 -14.997   0.922  1.00  0.00     0.020 A 
HETATM   19  C   UNL     1      42.928 -15.712   1.907  1.00  0.00     0.038 A 
HETATM   20  C   UNL     1      42.228 -16.469   2.849  1.00  0.00     0.069 A 
HETATM   21  C   UNL     1      40.830 -16.494   2.810  1.00  0.00     0.038 A 
HETATM   22  C   UNL     1      40.132 -15.774   1.838  1.00  0.00     0.020 A 
BRANCH  20  23
HETATM   23  O   UNL     1      42.781 -17.224   3.846  1.00  0.00    -0.348 OA
BRANCH  23  24
HETATM   24  C   UNL     1      43.780 -18.170   3.470  1.00  0.00     0.202 C 
BRANCH  24  25
HETATM   25  C   UNL     1      43.221 -18.989   2.345  1.00  0.00    -0.011 C 
HETATM   26  C   UNL     1      43.549 -20.262   2.092  1.00  0.00     0.009 C 
ENDBRANCH  24  25
ENDBRANCH  23  24
ENDBRANCH  20  23
ENDBRANCH  14  17
ENDBRANCH   2  13
BRANCH   1  27
HETATM   27  C   UNL     1      40.584 -10.353  -2.485  1.00  0.00    -0.009 A 
HETATM   28  C   UNL     1      41.377  -9.708  -1.502  1.00  0.00    -0.051 A 
HETATM   29  C   UNL     1      42.057  -8.507  -1.819  1.00  0.00     0.014 A 
HETATM   30  C   UNL     1      41.592 -10.226  -0.107  1.00  0.00     0.049 C 
HETATM   31  C   UNL     1      42.000  -7.933  -3.089  1.00  0.00    -0.061 A 
HETATM   32  C   UNL     1      42.776  -6.690  -3.405  1.00  0.00     0.048 C 
HETATM   33  C   UNL     1      41.274  -8.585  -4.074  1.00  0.00     0.007 A 
HETATM   34  C   UNL     1      40.589  -9.768  -3.778  1.00  0.00     0.012 A 
ENDBRANCH   1  27
TORSDOF 6
ENDMDL
MODEL 7
REMARK VINA RESULT:      -8.1      2.363      4.751
REMARK  6 active torsions:
REMARK  status: ('A' for Active; 'I' for Inactive)
REMARK    1  A    between atoms: C_6  and  C_7 
REMARK    2  A    between atoms: N_8  and  N_9 
REMARK       I    between atoms: N_9  and  C_10 
REMARK    3  A    between atoms: C_10  and  C_11 
REMARK    4  A    between atoms: C_14  and  O_15 
REMARK    5  A    between atoms: O_15  and  C_16 
REMARK    6  A    between atoms: C_16  and  C_17 
ROOT
HETATM    1  C   UNL     1      40.385 -14.221   3.614  1.00  0.00     0.244 C 
HETATM    2  N   UNL     1      40.838 -12.836   3.674  1.00  0.00    -0.225 N 
HETATM    3  C   UNL     1      41.279 -12.147   2.559  1.00  0.00     0.276 C 
HETATM    4  O   UNL     1      41.907 -11.091   2.630  1.00  0.00    -0.266 OA
HETATM    5  C   UNL     1      40.899 -12.737   1.258  1.00  0.00     0.060 A 
HETATM    6  C   UNL     1      39.956 -13.776   1.270  1.00  0.00     0.045 A 
HETATM    7  N   UNL     1      39.439 -14.252   2.483  1.00  0.00    -0.362 N 
HETATM    8  C   UNL     1      41.396 -12.216   0.060  1.00  0.00     0.019 A 
HETATM    9  C   UNL     1      40.939 -12.733  -1.151  1.00  0.00     0.001 A 
HETATM   10  C   UNL     1      39.972 -13.740  -1.156  1.00  0.00     0.002 A 
HETATM   11  C   UNL     1      39.472 -14.248   0.048  1.00  0.00     0.030 A 
HETATM   12  H   UNL     1      38.883 -15.093   2.431  1.00  0.00     0.162 HD
ENDROOT
BRANCH   2  13
HETATM   13  N   UNL     1      40.993 -12.196   4.923  1.00  0.00    -0.258 N 
HETATM   14  C   UNL     1      40.007 -11.385   5.450  1.00  0.00     0.270 C 
HETATM   15  O   UNL     1      38.833 -11.356   5.102  1.00  0.00    -0.266 OA
HETATM   16  H   UNL     1      41.968 -12.044   5.176  1.00  0.00     0.190 HD
BRANCH  14  17
HETATM   17  C   UNL     1      40.452 -10.552   6.594  1.00  0.00     0.033 A 
HETATM   18  C   UNL     1      41.781 -10.135   6.712  1.00  0.00     0.020 A 
HETATM   19  C   UNL     1      42.178  -9.375   7.819  1.00  0.00     0.038 A 
HETATM   20  C   UNL     1      41.251  -9.035   8.808  1.00  0.00     0.069 A 
HETATM   21  C   UNL     1      39.921  -9.448   8.673  1.00  0.00     0.038 A 
HETATM   22  C   UNL     1      39.516 -10.196   7.566  1.00  0.00     0.020 A 
BRANCH  20  23
HETATM   23  O   UNL     1      41.510  -8.317   9.942  1.00  0.00    -0.348 OA
BRANCH  23  24
HETATM   24  C   UNL     1      41.460  -9.018  11.183  1.00  0.00     0.202 C 
BRANCH  24  25
HETATM   25  C   UNL     1      42.770  -9.727  11.351  1.00  0.00    -0.011 C 
HETATM   26  C   UNL     1      43.964  -9.124  11.396  1.00  0.00     0.009 C 
ENDBRANCH  24  25
ENDBRANCH  23  24
ENDBRANCH  20  23
ENDBRANCH  14  17
ENDBRANCH   2  13
BRANCH   1  27
HETATM   27  C   UNL     1      41.481 -15.318   3.483  1.00  0.00    -0.009 A 
HETATM   28  C   UNL     1      42.592 -15.480   4.349  1.00  0.00    -0.051 A 
HETATM   29  C   UNL     1      43.489 -16.558   4.154  1.00  0.00     0.014 A 
HETATM   30  C   UNL     1      42.894 -14.590   5.523  1.00  0.00     0.049 C 
HETATM   31  C   UNL     1      43.310 -17.502   3.142  1.00  0.00    -0.061 A 
HETATM   32  C   UNL     1      44.250 -18.661   2.996  1.00  0.00     0.048 C 
HETATM   33  C   UNL     1      42.196 -17.386   2.324  1.00  0.00     0.007 A 
HETATM   34  C   UNL     1      41.303 -16.324   2.496  1.00  0.00     0.012 A 
ENDBRANCH   1  27
TORSDOF 6
ENDMDL
MODEL 8
REMARK VINA RESULT:      -7.8      5.636      8.328
REMARK  6 active torsions:
REMARK  status: ('A' for Active; 'I' for Inactive)
REMARK    1  A    between atoms: C_6  and  C_7 
REMARK    2  A    between atoms: N_8  and  N_9 
REMARK       I    between atoms: N_9  and  C_10 
REMARK    3  A    between atoms: C_10  and  C_11 
REMARK    4  A    between atoms: C_14  and  O_15 
REMARK    5  A    between atoms: O_15  and  C_16 
REMARK    6  A    between atoms: C_16  and  C_17 
ROOT
HETATM    1  C   UNL     1      40.291 -11.730  -1.479  1.00  0.00     0.244 C 
HETATM    2  N   UNL     1      39.896 -12.246  -0.172  1.00  0.00    -0.225 N 
HETATM    3  C   UNL     1      38.807 -11.757   0.525  1.00  0.00     0.276 C 
HETATM    4  O   UNL     1      38.621 -11.984   1.720  1.00  0.00    -0.266 OA
HETATM    5  C   UNL     1      37.840 -10.977  -0.276  1.00  0.00     0.060 A 
HETATM    6  C   UNL     1      37.986 -11.004  -1.672  1.00  0.00     0.045 A 
HETATM    7  N   UNL     1      39.041 -11.714  -2.262  1.00  0.00    -0.362 N 
HETATM    8  C   UNL     1      36.771 -10.313   0.333  1.00  0.00     0.019 A 
HETATM    9  C   UNL     1      35.823  -9.673  -0.462  1.00  0.00     0.001 A 
HETATM   10  C   UNL     1      35.933  -9.723  -1.853  1.00  0.00     0.002 A 
HETATM   11  C   UNL     1      37.001 -10.399  -2.455  1.00  0.00     0.030 A 
HETATM   12  H   UNL     1      39.175 -11.571  -3.252  1.00  0.00     0.162 HD
ENDROOT
BRANCH   2  13
HETATM   13  N   UNL     1      40.725 -13.169   0.503  1.00  0.00    -0.258 N 
HETATM   14  C   UNL     1      40.449 -14.523   0.508  1.00  0.00     0.270 C 
HETATM   15  O   UNL     1      39.700 -15.110  -0.262  1.00  0.00    -0.266 OA
HETATM   16  H   UNL     1      41.244 -12.751   1.273  1.00  0.00     0.190 HD
BRANCH  14  17
HETATM   17  C   UNL     1      41.222 -15.296   1.511  1.00  0.00     0.033 A 
HETATM   18  C   UNL     1      42.575 -15.587   1.316  1.00  0.00     0.020 A 
HETATM   19  C   UNL     1      43.269 -16.345   2.267  1.00  0.00     0.038 A 
HETATM   20  C   UNL     1      42.613 -16.815   3.407  1.00  0.00     0.069 A 
HETATM   21  C   UNL     1      41.262 -16.508   3.598  1.00  0.00     0.038 A 
HETATM   22  C   UNL     1      40.566 -15.742   2.661  1.00  0.00     0.020 A 
BRANCH  20  23
HETATM   23  O   UNL     1      43.167 -17.577   4.398  1.00  0.00    -0.348 OA
BRANCH  23  24
HETATM   24  C   UNL     1      44.270 -17.020   5.109  1.00  0.00     0.202 C 
BRANCH  24  25
HETATM   25  C   UNL     1      43.722 -16.344   6.330  1.00  0.00    -0.011 C 
HETATM   26  C   UNL     1      43.906 -16.770   7.586  1.00  0.00     0.009 C 
ENDBRANCH  24  25
ENDBRANCH  23  24
ENDBRANCH  20  23
ENDBRANCH  14  17
ENDBRANCH   2  13
BRANCH   1  27
HETATM   27  C   UNL     1      41.010 -10.351  -1.506  1.00  0.00    -0.009 A 
HETATM   28  C   UNL     1      41.195  -9.541  -2.655  1.00  0.00    -0.051 A 
HETATM   29  C   UNL     1      41.819  -8.275  -2.535  1.00  0.00     0.014 A 
HETATM   30  C   UNL     1      40.742  -9.912  -4.040  1.00  0.00     0.049 C 
HETATM   31  C   UNL     1      42.244  -7.768  -1.307  1.00  0.00    -0.061 A 
HETATM   32  C   UNL     1      42.851  -6.402  -1.209  1.00  0.00     0.048 C 
HETATM   33  C   UNL     1      42.016  -8.527  -0.168  1.00  0.00     0.007 A 
HETATM   34  C   UNL     1      41.409  -9.782  -0.268  1.00  0.00     0.012 A 
ENDBRANCH   1  27
TORSDOF 6
ENDMDL
MODEL 9
REMARK VINA RESULT:      -7.8      3.878      8.866
REMARK  6 active torsions:
REMARK  status: ('A' for Active; 'I' for Inactive)
REMARK    1  A    between atoms: C_6  and  C_7 
REMARK    2  A    between atoms: N_8  and  N_9 
REMARK       I    between atoms: N_9  and  C_10 
REMARK    3  A    between atoms: C_10  and  C_11 
REMARK    4  A    between atoms: C_14  and  O_15 
REMARK    5  A    between atoms: O_15  and  C_16 
REMARK    6  A    between atoms: C_16  and  C_17 
ROOT
HETATM    1  C   UNL     1      40.852 -14.835   4.436  1.00  0.00     0.244 C 
HETATM    2  N   UNL     1      41.120 -15.423   3.128  1.00  0.00    -0.225 N 
HETATM    3  C   UNL     1      42.147 -16.322   2.911  1.00  0.00     0.276 C 
HETATM    4  O   UNL     1      42.553 -16.616   1.787  1.00  0.00    -0.266 OA
HETATM    5  C   UNL     1      42.700 -16.958   4.126  1.00  0.00     0.060 A 
HETATM    6  C   UNL     1      41.998 -16.776   5.327  1.00  0.00     0.045 A 
HETATM    7  N   UNL     1      40.843 -15.983   5.362  1.00  0.00    -0.362 N 
HETATM    8  C   UNL     1      43.830 -17.779   4.057  1.00  0.00     0.019 A 
HETATM    9  C   UNL     1      44.263 -18.441   5.204  1.00  0.00     0.001 A 
HETATM   10  C   UNL     1      43.552 -18.301   6.398  1.00  0.00     0.002 A 
HETATM   11  C   UNL     1      42.417 -17.486   6.455  1.00  0.00     0.030 A 
HETATM   12  H   UNL     1      40.474 -15.774   6.277  1.00  0.00     0.162 HD
ENDROOT
BRANCH   2  13
HETATM   13  N   UNL     1      40.425 -14.960   1.989  1.00  0.00    -0.258 N 
HETATM   14  C   UNL     1      40.847 -13.850   1.283  1.00  0.00     0.270 C 
HETATM   15  O   UNL     1      41.958 -13.337   1.340  1.00  0.00    -0.266 OA
HETATM   16  H   UNL     1      39.442 -15.222   1.987  1.00  0.00     0.190 HD
BRANCH  14  17
HETATM   17  C   UNL     1      39.845 -13.321   0.327  1.00  0.00     0.033 A 
HETATM   18  C   UNL     1      39.130 -12.150   0.599  1.00  0.00     0.020 A 
HETATM   19  C   UNL     1      38.168 -11.693  -0.310  1.00  0.00     0.038 A 
HETATM   20  C   UNL     1      37.917 -12.405  -1.486  1.00  0.00     0.069 A 
HETATM   21  C   UNL     1      38.646 -13.568  -1.754  1.00  0.00     0.038 A 
HETATM   22  C   UNL     1      39.615 -14.023  -0.858  1.00  0.00     0.020 A 
BRANCH  20  23
HETATM   23  O   UNL     1      36.996 -12.079  -2.443  1.00  0.00    -0.348 OA
BRANCH  23  24
HETATM   24  C   UNL     1      36.971 -10.725  -2.888  1.00  0.00     0.202 C 
BRANCH  24  25
HETATM   25  C   UNL     1      35.634 -10.155  -2.517  1.00  0.00    -0.011 C 
HETATM   26  C   UNL     1      34.661  -9.861  -3.388  1.00  0.00     0.009 C 
ENDBRANCH  24  25
ENDBRANCH  23  24
ENDBRANCH  20  23
ENDBRANCH  14  17
ENDBRANCH   2  13
BRANCH   1  27
HETATM   27  C   UNL     1      41.815 -13.711   4.917  1.00  0.00    -0.009 A 
HETATM   28  C   UNL     1      41.600 -12.318   4.756  1.00  0.00    -0.051 A 
HETATM   29  C   UNL     1      42.529 -11.394   5.292  1.00  0.00     0.014 A 
HETATM   30  C   UNL     1      40.408 -11.714   4.068  1.00  0.00     0.049 C 
HETATM   31  C   UNL     1      43.656 -11.800   6.007  1.00  0.00    -0.061 A 
HETATM   32  C   UNL     1      44.590 -10.793   6.606  1.00  0.00     0.048 C 
HETATM   33  C   UNL     1      43.846 -13.157   6.219  1.00  0.00     0.007 A 
HETATM   34  C   UNL     1      42.944 -14.086   5.691  1.00  0.00     0.012 A 
ENDBRANCH   1  27
TORSDOF 6
ENDMDL
MODEL 10
REMARK VINA RESULT:      -7.7      3.167      8.559
REMARK  6 active torsions:
REMARK  status: ('A' for Active; 'I' for Inactive)
REMARK    1  A    between atoms: C_6  and  C_7 
REMARK    2  A    between atoms: N_8  and  N_9 
REMARK       I    between atoms: N_9  and  C_10 
REMARK    3  A    between atoms: C_10  and  C_11 
REMARK    4  A    between atoms: C_14  and  O_15 
REMARK    5  A    between atoms: O_15  and  C_16 
REMARK    6  A    between atoms: C_16  and  C_17 
ROOT
HETATM    1  C   UNL     1      41.761 -12.542   5.930  1.00  0.00     0.244 C 
HETATM    2  N   UNL     1      41.853 -13.063   4.571  1.00  0.00    -0.225 N 
HETATM    3  C   UNL     1      42.654 -14.140   4.238  1.00  0.00     0.276 C 
HETATM    4  O   UNL     1      42.950 -14.420   3.076  1.00  0.00    -0.266 OA
HETATM    5  C   UNL     1      43.095 -14.976   5.374  1.00  0.00     0.060 A 
HETATM    6  C   UNL     1      42.489 -14.749   6.618  1.00  0.00     0.045 A 
HETATM    7  N   UNL     1      41.534 -13.734   6.769  1.00  0.00    -0.362 N 
HETATM    8  C   UNL     1      44.018 -16.010   5.189  1.00  0.00     0.019 A 
HETATM    9  C   UNL     1      44.335 -16.841   6.261  1.00  0.00     0.001 A 
HETATM   10  C   UNL     1      43.711 -16.653   7.496  1.00  0.00     0.002 A 
HETATM   11  C   UNL     1      42.781 -15.621   7.669  1.00  0.00     0.030 A 
HETATM   12  H   UNL     1      41.249 -13.527   7.714  1.00  0.00     0.162 HD
ENDROOT
BRANCH   2  13
HETATM   13  N   UNL     1      41.237 -12.371   3.504  1.00  0.00    -0.258 N 
HETATM   14  C   UNL     1      39.865 -12.358   3.344  1.00  0.00     0.270 C 
HETATM   15  O   UNL     1      39.036 -12.647   4.197  1.00  0.00    -0.266 OA
HETATM   16  H   UNL     1      41.846 -12.258   2.697  1.00  0.00     0.190 HD
BRANCH  14  17
HETATM   17  C   UNL     1      39.414 -11.865   2.021  1.00  0.00     0.033 A 
HETATM   18  C   UNL     1      40.301 -11.757   0.945  1.00  0.00     0.020 A 
HETATM   19  C   UNL     1      39.851 -11.259  -0.283  1.00  0.00     0.038 A 
HETATM   20  C   UNL     1      38.519 -10.865  -0.438  1.00  0.00     0.069 A 
HETATM   21  C   UNL     1      37.637 -10.988   0.641  1.00  0.00     0.038 A 
HETATM   22  C   UNL     1      38.076 -11.495   1.866  1.00  0.00     0.020 A 
BRANCH  20  23
HETATM   23  O   UNL     1      37.959 -10.348  -1.572  1.00  0.00    -0.348 OA
BRANCH  23  24
HETATM   24  C   UNL     1      38.126 -11.090  -2.778  1.00  0.00     0.202 C 
BRANCH  24  25
HETATM   25  C   UNL     1      37.161 -12.237  -2.736  1.00  0.00    -0.011 C 
HETATM   26  C   UNL     1      37.513 -13.529  -2.702  1.00  0.00     0.009 C 
ENDBRANCH  24  25
ENDBRANCH  23  24
ENDBRANCH  20  23
ENDBRANCH  14  17
ENDBRANCH   2  13
BRANCH   1  27
HETATM   27  C   UNL     1      42.959 -11.692   6.444  1.00  0.00    -0.009 A 
HETATM   28  C   UNL     1      42.856 -10.459   7.138  1.00  0.00    -0.051 A 
HETATM   29  C   UNL     1      44.026  -9.811   7.603  1.00  0.00     0.014 A 
HETATM   30  C   UNL     1      41.560  -9.770   7.464  1.00  0.00     0.049 C 
HETATM   31  C   UNL     1      45.298 -10.355   7.428  1.00  0.00    -0.061 A 
HETATM   32  C   UNL     1      46.511  -9.668   7.980  1.00  0.00     0.048 C 
HETATM   33  C   UNL     1      45.406 -11.587   6.800  1.00  0.00     0.007 A 
HETATM   34  C   UNL     1      44.263 -12.239   6.327  1.00  0.00     0.012 A 
ENDBRANCH   1  27
TORSDOF 6
ENDMDL
