MODEL 1
REMARK VINA RESULT:      -8.1      0.000      0.000
REMARK  8 active torsions:
REMARK  status: ('A' for Active; 'I' for Inactive)
REMARK    1  A    between atoms: C_2  and  O_3 
REMARK    2  A    between atoms: O_3  and  C_4 
REMARK    3  A    between atoms: C_5  and  N_6 
REMARK       I    between atoms: N_6  and  C_7 
REMARK    4  A    between atoms: C_7  and  C_8 
REMARK    5  A    between atoms: N_11  and  C_12 
REMARK    6  A    between atoms: C_12  and  C_13 
REMARK       I    between atoms: C_13  and  N_14 
REMARK    7  A    between atoms: N_14  and  C_15 
REMARK    8  A    between atoms: C_23  and  N_24 
ROOT
HETATM    1  C   UNL     1      41.619 -13.386   5.978  1.00  0.00     0.187 A 
HETATM    2  N   UNL     1      41.430 -12.029   5.797  1.00  0.00    -0.150 NA
HETATM    3  N   UNL     1      42.558 -11.399   6.078  1.00  0.00     0.007 NA
HETATM    4  N   UNL     1      43.457 -12.330   6.434  1.00  0.00    -0.248 N 
HETATM    5  C   UNL     1      42.904 -13.588   6.472  1.00  0.00     0.151 A 
ENDROOT
BRANCH   1   6
HETATM    6  C   UNL     1      40.514 -14.315   5.758  1.00  0.00     0.280 C 
HETATM    7  N   UNL     1      40.626 -15.417   4.940  1.00  0.00    -0.319 N 
HETATM    8  H   UNL     1      39.922 -16.106   5.174  1.00  0.00     0.169 HD
HETATM    9  O   UNL     1      39.464 -14.214   6.402  1.00  0.00    -0.265 OA
BRANCH   7  10
HETATM   10  C   UNL     1      41.430 -15.703   3.819  1.00  0.00     0.068 A 
HETATM   11  C   UNL     1      42.547 -16.559   3.810  1.00  0.00     0.095 A 
HETATM   12  C   UNL     1      43.211 -16.794   2.596  1.00  0.00     0.039 A 
HETATM   13  C   UNL     1      42.808 -16.154   1.422  1.00  0.00     0.003 A 
HETATM   14  C   UNL     1      41.750 -15.254   1.448  1.00  0.00     0.002 A 
HETATM   15  C   UNL     1      41.073 -15.022   2.643  1.00  0.00     0.032 A 
BRANCH  11  16
HETATM   16  O   UNL     1      42.976 -17.050   5.015  1.00  0.00    -0.349 OA
BRANCH  16  17
HETATM   17  C   UNL     1      44.237 -17.717   5.055  1.00  0.00     0.171 C 
HETATM   18  C   UNL     1      43.989 -19.204   5.220  1.00  0.00     0.034 C 
ENDBRANCH  16  17
ENDBRANCH  11  16
ENDBRANCH   7  10
ENDBRANCH   1   6
BRANCH   5  19
HETATM   19  N   UNL     1      43.581 -14.670   6.920  1.00  0.00    -0.382 N 
HETATM   20  H   UNL     1      44.127 -15.309   6.335  1.00  0.00     0.157 HD
HETATM   21  H   UNL     1      43.509 -14.984   7.886  1.00  0.00     0.157 HD
ENDBRANCH   5  19
BRANCH   4  22
HETATM   22  C   UNL     1      44.827 -11.921   6.621  1.00  0.00     0.251 C 
BRANCH  22  23
HETATM   23  C   UNL     1      45.026 -11.095   7.864  1.00  0.00     0.241 C 
HETATM   24  N   UNL     1      43.900 -10.999   8.665  1.00  0.00    -0.326 N 
HETATM   25  H   UNL     1      43.160 -11.676   8.505  1.00  0.00     0.169 HD
HETATM   26  O   UNL     1      46.119 -10.577   8.093  1.00  0.00    -0.271 OA
BRANCH  24  27
HETATM   27  C   UNL     1      43.720 -10.128   9.758  1.00  0.00     0.034 A 
HETATM   28  C   UNL     1      43.603  -8.740   9.628  1.00  0.00     0.031 A 
HETATM   29  C   UNL     1      43.376  -7.937  10.751  1.00  0.00     0.026 A 
HETATM   30  C   UNL     1      43.269  -8.518  12.010  1.00  0.00     0.034 A 
HETATM   31 CL   UNL     1      42.984  -7.530  13.388  1.00  0.00    -0.084 Cl
HETATM   32  C   UNL     1      43.384  -9.898  12.155  1.00  0.00     0.026 A 
HETATM   33  C   UNL     1      43.603 -10.701  11.031  1.00  0.00     0.031 A 
ENDBRANCH  24  27
ENDBRANCH  22  23
ENDBRANCH   4  22
TORSDOF 8
ENDMDL
MODEL 2
REMARK VINA RESULT:      -8.1      0.804      1.577
REMARK  8 active torsions:
REMARK  status: ('A' for Active; 'I' for Inactive)
REMARK    1  A    between atoms: C_2  and  O_3 
REMARK    2  A    between atoms: O_3  and  C_4 
REMARK    3  A    between atoms: C_5  and  N_6 
REMARK       I    between atoms: N_6  and  C_7 
REMARK    4  A    between atoms: C_7  and  C_8 
REMARK    5  A    between atoms: N_11  and  C_12 
REMARK    6  A    between atoms: C_12  and  C_13 
REMARK       I    between atoms: C_13  and  N_14 
REMARK    7  A    between atoms: N_14  and  C_15 
REMARK    8  A    between atoms: C_23  and  N_24 
ROOT
HETATM    1  C   UNL     1      41.950 -14.284   6.419  1.00  0.00     0.187 A 
HETATM    2  N   UNL     1      42.943 -14.654   7.307  1.00  0.00    -0.150 NA
HETATM    3  N   UNL     1      43.816 -13.667   7.409  1.00  0.00     0.007 NA
HETATM    4  N   UNL     1      43.397 -12.678   6.603  1.00  0.00    -0.248 N 
HETATM    5  C   UNL     1      42.277 -13.038   5.891  1.00  0.00     0.151 A 
ENDROOT
BRANCH   1   6
HETATM    6  C   UNL     1      40.867 -15.210   6.103  1.00  0.00     0.280 C 
HETATM    7  N   UNL     1      40.995 -16.202   5.155  1.00  0.00    -0.319 N 
HETATM    8  H   UNL     1      40.313 -16.933   5.314  1.00  0.00     0.169 HD
HETATM    9  O   UNL     1      39.825 -15.218   6.768  1.00  0.00    -0.265 OA
BRANCH   7  10
HETATM   10  C   UNL     1      41.787 -16.327   3.998  1.00  0.00     0.068 A 
HETATM   11  C   UNL     1      42.861 -17.222   3.834  1.00  0.00     0.095 A 
HETATM   12  C   UNL     1      43.517 -17.274   2.595  1.00  0.00     0.039 A 
HETATM   13  C   UNL     1      43.149 -16.421   1.552  1.00  0.00     0.003 A 
HETATM   14  C   UNL     1      42.137 -15.489   1.740  1.00  0.00     0.002 A 
HETATM   15  C   UNL     1      41.468 -15.436   2.961  1.00  0.00     0.032 A 
BRANCH  11  16
HETATM   16  O   UNL     1      43.262 -17.936   4.933  1.00  0.00    -0.349 OA
BRANCH  16  17
HETATM   17  C   UNL     1      44.369 -18.824   4.787  1.00  0.00     0.171 C 
HETATM   18  C   UNL     1      43.949 -20.199   5.271  1.00  0.00     0.034 C 
ENDBRANCH  16  17
ENDBRANCH  11  16
ENDBRANCH   7  10
ENDBRANCH   1   6
BRANCH   5  19
HETATM   19  N   UNL     1      41.743 -12.256   4.926  1.00  0.00    -0.382 N 
HETATM   20  H   UNL     1      41.432 -12.583   4.006  1.00  0.00     0.157 HD
HETATM   21  H   UNL     1      41.704 -11.243   5.019  1.00  0.00     0.157 HD
ENDBRANCH   5  19
BRANCH   4  22
HETATM   22  C   UNL     1      44.080 -11.411   6.664  1.00  0.00     0.251 C 
BRANCH  22  23
HETATM   23  C   UNL     1      44.333 -10.951   8.076  1.00  0.00     0.241 C 
HETATM   24  N   UNL     1      43.202 -10.499   8.734  1.00  0.00    -0.326 N 
HETATM   25  H   UNL     1      42.303 -10.756   8.338  1.00  0.00     0.169 HD
HETATM   26  O   UNL     1      45.470 -10.998   8.546  1.00  0.00    -0.271 OA
BRANCH  24  27
HETATM   27  C   UNL     1      43.165  -9.811   9.964  1.00  0.00     0.034 A 
HETATM   28  C   UNL     1      43.188 -10.453  11.207  1.00  0.00     0.031 A 
HETATM   29  C   UNL     1      43.199  -9.708  12.391  1.00  0.00     0.026 A 
HETATM   30  C   UNL     1      43.182  -8.318  12.338  1.00  0.00     0.034 A 
HETATM   31 CL   UNL     1      43.201  -7.404  13.794  1.00  0.00    -0.084 Cl
HETATM   32  C   UNL     1      43.157  -7.666  11.108  1.00  0.00     0.026 A 
HETATM   33  C   UNL     1      43.155  -8.411   9.924  1.00  0.00     0.031 A 
ENDBRANCH  24  27
ENDBRANCH  22  23
ENDBRANCH   4  22
TORSDOF 8
ENDMDL
MODEL 3
REMARK VINA RESULT:      -8.1      4.968      7.356
REMARK  8 active torsions:
REMARK  status: ('A' for Active; 'I' for Inactive)
REMARK    1  A    between atoms: C_2  and  O_3 
REMARK    2  A    between atoms: O_3  and  C_4 
REMARK    3  A    between atoms: C_5  and  N_6 
REMARK       I    between atoms: N_6  and  C_7 
REMARK    4  A    between atoms: C_7  and  C_8 
REMARK    5  A    between atoms: N_11  and  C_12 
REMARK    6  A    between atoms: C_12  and  C_13 
REMARK       I    between atoms: C_13  and  N_14 
REMARK    7  A    between atoms: N_14  and  C_15 
REMARK    8  A    between atoms: C_23  and  N_24 
ROOT
HETATM    1  C   UNL     1      42.418 -15.793   6.613  1.00  0.00     0.187 A 
HETATM    2  N   UNL     1      41.229 -16.492   6.522  1.00  0.00    -0.150 NA
HETATM    3  N   UNL     1      40.236 -15.630   6.380  1.00  0.00     0.007 NA
HETATM    4  N   UNL     1      40.772 -14.399   6.381  1.00  0.00    -0.248 N 
HETATM    5  C   UNL     1      42.128 -14.432   6.607  1.00  0.00     0.151 A 
ENDROOT
BRANCH   1   6
HETATM    6  C   UNL     1      43.675 -16.509   6.801  1.00  0.00     0.280 C 
HETATM    7  N   UNL     1      44.351 -17.105   5.758  1.00  0.00    -0.319 N 
HETATM    8  H   UNL     1      45.326 -17.237   5.997  1.00  0.00     0.169 HD
HETATM    9  O   UNL     1      44.251 -16.503   7.895  1.00  0.00    -0.265 OA
BRANCH   7  10
HETATM   10  C   UNL     1      43.933 -17.638   4.524  1.00  0.00     0.068 A 
HETATM   11  C   UNL     1      43.483 -16.890   3.419  1.00  0.00     0.095 A 
HETATM   12  C   UNL     1      43.160 -17.563   2.232  1.00  0.00     0.039 A 
HETATM   13  C   UNL     1      43.232 -18.956   2.153  1.00  0.00     0.003 A 
HETATM   14  C   UNL     1      43.606 -19.697   3.267  1.00  0.00     0.002 A 
HETATM   15  C   UNL     1      43.944 -19.040   4.448  1.00  0.00     0.032 A 
BRANCH  11  16
HETATM   16  O   UNL     1      43.305 -15.543   3.599  1.00  0.00    -0.349 OA
BRANCH  16  17
HETATM   17  C   UNL     1      43.366 -14.701   2.449  1.00  0.00     0.171 C 
HETATM   18  C   UNL     1      43.276 -13.257   2.905  1.00  0.00     0.034 C 
ENDBRANCH  16  17
ENDBRANCH  11  16
ENDBRANCH   7  10
ENDBRANCH   1   6
BRANCH   5  19
HETATM   19  N   UNL     1      42.868 -13.311   6.773  1.00  0.00    -0.382 N 
HETATM   20  H   UNL     1      43.681 -13.053   6.208  1.00  0.00     0.157 HD
HETATM   21  H   UNL     1      42.716 -12.681   7.559  1.00  0.00     0.157 HD
ENDBRANCH   5  19
BRANCH   4  22
HETATM   22  C   UNL     1      39.919 -13.282   6.062  1.00  0.00     0.251 C 
BRANCH  22  23
HETATM   23  C   UNL     1      39.975 -12.901   4.606  1.00  0.00     0.241 C 
HETATM   24  N   UNL     1      39.522 -13.889   3.747  1.00  0.00    -0.326 N 
HETATM   25  H   UNL     1      38.964 -14.635   4.153  1.00  0.00     0.169 HD
HETATM   26  O   UNL     1      40.396 -11.794   4.273  1.00  0.00    -0.271 OA
BRANCH  24  27
HETATM   27  C   UNL     1      39.659 -13.908   2.344  1.00  0.00     0.034 A 
HETATM   28  C   UNL     1      40.033 -15.045   1.621  1.00  0.00     0.031 A 
HETATM   29  C   UNL     1      40.102 -15.009   0.223  1.00  0.00     0.026 A 
HETATM   30  C   UNL     1      39.801 -13.833  -0.456  1.00  0.00     0.034 A 
HETATM   31 CL   UNL     1      39.881 -13.791  -2.173  1.00  0.00    -0.084 Cl
HETATM   32  C   UNL     1      39.428 -12.693   0.251  1.00  0.00     0.026 A 
HETATM   33  C   UNL     1      39.351 -12.733   1.647  1.00  0.00     0.031 A 
ENDBRANCH  24  27
ENDBRANCH  22  23
ENDBRANCH   4  22
TORSDOF 8
ENDMDL
MODEL 4
REMARK VINA RESULT:      -8.1      4.894      7.609
REMARK  8 active torsions:
REMARK  status: ('A' for Active; 'I' for Inactive)
REMARK    1  A    between atoms: C_2  and  O_3 
REMARK    2  A    between atoms: O_3  and  C_4 
REMARK    3  A    between atoms: C_5  and  N_6 
REMARK       I    between atoms: N_6  and  C_7 
REMARK    4  A    between atoms: C_7  and  C_8 
REMARK    5  A    between atoms: N_11  and  C_12 
REMARK    6  A    between atoms: C_12  and  C_13 
REMARK       I    between atoms: C_13  and  N_14 
REMARK    7  A    between atoms: N_14  and  C_15 
REMARK    8  A    between atoms: C_23  and  N_24 
ROOT
HETATM    1  C   UNL     1      41.503 -11.955   4.605  1.00  0.00     0.187 A 
HETATM    2  N   UNL     1      42.863 -11.850   4.380  1.00  0.00    -0.150 NA
HETATM    3  N   UNL     1      43.502 -12.599   5.263  1.00  0.00     0.007 NA
HETATM    4  N   UNL     1      42.574 -13.176   6.043  1.00  0.00    -0.248 N 
HETATM    5  C   UNL     1      41.306 -12.746   5.734  1.00  0.00     0.151 A 
ENDROOT
BRANCH   1   6
HETATM    6  C   UNL     1      40.564 -11.203   3.780  1.00  0.00     0.280 C 
HETATM    7  N   UNL     1      39.742 -11.808   2.855  1.00  0.00    -0.319 N 
HETATM    8  H   UNL     1      38.950 -11.215   2.643  1.00  0.00     0.169 HD
HETATM    9  O   UNL     1      40.382  -9.995   3.968  1.00  0.00    -0.265 OA
BRANCH   7  10
HETATM   10  C   UNL     1      39.853 -12.994   2.104  1.00  0.00     0.068 A 
HETATM   11  C   UNL     1      40.123 -13.067   0.723  1.00  0.00     0.095 A 
HETATM   12  C   UNL     1      40.267 -14.328   0.127  1.00  0.00     0.039 A 
HETATM   13  C   UNL     1      40.098 -15.498   0.871  1.00  0.00     0.003 A 
HETATM   14  C   UNL     1      39.760 -15.424   2.217  1.00  0.00     0.002 A 
HETATM   15  C   UNL     1      39.628 -14.178   2.825  1.00  0.00     0.032 A 
BRANCH  11  16
HETATM   16  O   UNL     1      40.144 -11.890   0.022  1.00  0.00    -0.349 OA
BRANCH  16  17
HETATM   17  C   UNL     1      39.345 -11.800  -1.156  1.00  0.00     0.171 C 
HETATM   18  C   UNL     1      37.906 -11.554  -0.743  1.00  0.00     0.034 C 
ENDBRANCH  16  17
ENDBRANCH  11  16
ENDBRANCH   7  10
ENDBRANCH   1   6
BRANCH   5  19
HETATM   19  N   UNL     1      40.219 -13.092   6.461  1.00  0.00    -0.382 N 
HETATM   20  H   UNL     1      39.891 -12.605   7.300  1.00  0.00     0.157 HD
HETATM   21  H   UNL     1      39.698 -13.946   6.271  1.00  0.00     0.157 HD
ENDBRANCH   5  19
BRANCH   4  22
HETATM   22  C   UNL     1      43.001 -14.186   6.979  1.00  0.00     0.251 C 
BRANCH  22  23
HETATM   23  C   UNL     1      42.917 -15.579   6.413  1.00  0.00     0.241 C 
HETATM   24  N   UNL     1      43.647 -15.760   5.250  1.00  0.00    -0.326 N 
HETATM   25  H   UNL     1      44.357 -15.066   5.037  1.00  0.00     0.169 HD
HETATM   26  O   UNL     1      42.242 -16.437   6.982  1.00  0.00    -0.271 OA
BRANCH  24  27
HETATM   27  C   UNL     1      43.585 -16.872   4.385  1.00  0.00     0.034 A 
HETATM   28  C   UNL     1      42.910 -16.860   3.161  1.00  0.00     0.031 A 
HETATM   29  C   UNL     1      42.929 -17.983   2.327  1.00  0.00     0.026 A 
HETATM   30  C   UNL     1      43.620 -19.126   2.717  1.00  0.00     0.034 A 
HETATM   31 CL   UNL     1      43.648 -20.503   1.689  1.00  0.00    -0.084 Cl
HETATM   32  C   UNL     1      44.296 -19.153   3.934  1.00  0.00     0.026 A 
HETATM   33  C   UNL     1      44.283 -18.026   4.763  1.00  0.00     0.031 A 
ENDBRANCH  24  27
ENDBRANCH  22  23
ENDBRANCH   4  22
TORSDOF 8
ENDMDL
MODEL 5
REMARK VINA RESULT:      -8.0      1.117      2.501
REMARK  8 active torsions:
REMARK  status: ('A' for Active; 'I' for Inactive)
REMARK    1  A    between atoms: C_2  and  O_3 
REMARK    2  A    between atoms: O_3  and  C_4 
REMARK    3  A    between atoms: C_5  and  N_6 
REMARK       I    between atoms: N_6  and  C_7 
REMARK    4  A    between atoms: C_7  and  C_8 
REMARK    5  A    between atoms: N_11  and  C_12 
REMARK    6  A    between atoms: C_12  and  C_13 
REMARK       I    between atoms: C_13  and  N_14 
REMARK    7  A    between atoms: N_14  and  C_15 
REMARK    8  A    between atoms: C_23  and  N_24 
ROOT
HETATM    1  C   UNL     1      41.997 -13.901   6.283  1.00  0.00     0.187 A 
HETATM    2  N   UNL     1      42.903 -14.401   7.199  1.00  0.00    -0.150 NA
HETATM    3  N   UNL     1      43.953 -13.599   7.245  1.00  0.00     0.007 NA
HETATM    4  N   UNL     1      43.732 -12.601   6.375  1.00  0.00    -0.248 N 
HETATM    5  C   UNL     1      42.559 -12.779   5.680  1.00  0.00     0.151 A 
ENDROOT
BRANCH   1   6
HETATM    6  C   UNL     1      40.753 -14.615   6.019  1.00  0.00     0.280 C 
HETATM    7  N   UNL     1      40.721 -15.836   5.380  1.00  0.00    -0.319 N 
HETATM    8  H   UNL     1      39.860 -16.324   5.590  1.00  0.00     0.169 HD
HETATM    9  O   UNL     1      39.678 -14.206   6.472  1.00  0.00    -0.265 OA
BRANCH   7  10
HETATM   10  C   UNL     1      41.576 -16.452   4.446  1.00  0.00     0.068 A 
HETATM   11  C   UNL     1      41.406 -16.440   3.048  1.00  0.00     0.095 A 
HETATM   12  C   UNL     1      42.380 -17.047   2.242  1.00  0.00     0.039 A 
HETATM   13  C   UNL     1      43.478 -17.698   2.809  1.00  0.00     0.003 A 
HETATM   14  C   UNL     1      43.606 -17.771   4.191  1.00  0.00     0.002 A 
HETATM   15  C   UNL     1      42.654 -17.160   5.003  1.00  0.00     0.032 A 
BRANCH  11  16
HETATM   16  O   UNL     1      40.243 -15.906   2.558  1.00  0.00    -0.349 OA
BRANCH  16  17
HETATM   17  C   UNL     1      40.309 -14.629   1.925  1.00  0.00     0.171 C 
HETATM   18  C   UNL     1      40.064 -14.817   0.440  1.00  0.00     0.034 C 
ENDBRANCH  16  17
ENDBRANCH  11  16
ENDBRANCH   7  10
ENDBRANCH   1   6
BRANCH   5  19
HETATM   19  N   UNL     1      42.183 -11.970   4.663  1.00  0.00    -0.382 N 
HETATM   20  H   UNL     1      41.478 -12.199   3.957  1.00  0.00     0.157 HD
HETATM   21  H   UNL     1      42.662 -11.092   4.473  1.00  0.00     0.157 HD
ENDBRANCH   5  19
BRANCH   4  22
HETATM   22  C   UNL     1      44.650 -11.490   6.361  1.00  0.00     0.251 C 
BRANCH  22  23
HETATM   23  C   UNL     1      44.873 -10.899   7.728  1.00  0.00     0.241 C 
HETATM   24  N   UNL     1      43.709 -10.687   8.448  1.00  0.00    -0.326 N 
HETATM   25  H   UNL     1      42.875 -11.172   8.132  1.00  0.00     0.169 HD
HETATM   26  O   UNL     1      46.015 -10.648   8.114  1.00  0.00    -0.271 OA
BRANCH  24  27
HETATM   27  C   UNL     1      43.585  -9.954   9.646  1.00  0.00     0.034 A 
HETATM   28  C   UNL     1      43.445  -8.563   9.688  1.00  0.00     0.031 A 
HETATM   29  C   UNL     1      43.277  -7.902  10.910  1.00  0.00     0.026 A 
HETATM   30  C   UNL     1      43.253  -8.629  12.095  1.00  0.00     0.034 A 
HETATM   31 CL   UNL     1      43.040  -7.816  13.595  1.00  0.00    -0.084 Cl
HETATM   32  C   UNL     1      43.392 -10.014  12.069  1.00  0.00     0.026 A 
HETATM   33  C   UNL     1      43.551 -10.675  10.846  1.00  0.00     0.031 A 
ENDBRANCH  24  27
ENDBRANCH  22  23
ENDBRANCH   4  22
TORSDOF 8
ENDMDL
MODEL 6
REMARK VINA RESULT:      -7.8      4.823      7.135
REMARK  8 active torsions:
REMARK  status: ('A' for Active; 'I' for Inactive)
REMARK    1  A    between atoms: C_2  and  O_3 
REMARK    2  A    between atoms: O_3  and  C_4 
REMARK    3  A    between atoms: C_5  and  N_6 
REMARK       I    between atoms: N_6  and  C_7 
REMARK    4  A    between atoms: C_7  and  C_8 
REMARK    5  A    between atoms: N_11  and  C_12 
REMARK    6  A    between atoms: C_12  and  C_13 
REMARK       I    between atoms: C_13  and  N_14 
REMARK    7  A    between atoms: N_14  and  C_15 
REMARK    8  A    between atoms: C_23  and  N_24 
ROOT
HETATM    1  C   UNL     1      41.704 -14.204   6.391  1.00  0.00     0.187 A 
HETATM    2  N   UNL     1      40.367 -14.554   6.418  1.00  0.00    -0.150 NA
HETATM    3  N   UNL     1      39.647 -13.527   6.001  1.00  0.00     0.007 NA
HETATM    4  N   UNL     1      40.501 -12.532   5.711  1.00  0.00    -0.248 N 
HETATM    5  C   UNL     1      41.799 -12.867   6.014  1.00  0.00     0.151 A 
ENDROOT
BRANCH   1   6
HETATM    6  C   UNL     1      42.719 -15.156   6.830  1.00  0.00     0.280 C 
HETATM    7  N   UNL     1      43.554 -15.808   5.948  1.00  0.00    -0.319 N 
HETATM    8  H   UNL     1      44.385 -16.136   6.423  1.00  0.00     0.169 HD
HETATM    9  O   UNL     1      42.955 -15.322   8.032  1.00  0.00    -0.265 OA
BRANCH   7  10
HETATM   10  C   UNL     1      43.419 -16.179   4.597  1.00  0.00     0.068 A 
HETATM   11  C   UNL     1      43.383 -17.500   4.110  1.00  0.00     0.095 A 
HETATM   12  C   UNL     1      43.179 -17.712   2.738  1.00  0.00     0.039 A 
HETATM   13  C   UNL     1      43.062 -16.636   1.855  1.00  0.00     0.003 A 
HETATM   14  C   UNL     1      43.170 -15.334   2.327  1.00  0.00     0.002 A 
HETATM   15  C   UNL     1      43.358 -15.109   3.689  1.00  0.00     0.032 A 
BRANCH  11  16
HETATM   16  O   UNL     1      43.639 -18.508   5.002  1.00  0.00    -0.349 OA
BRANCH  16  17
HETATM   17  C   UNL     1      44.353 -19.651   4.534  1.00  0.00     0.171 C 
HETATM   18  C   UNL     1      43.936 -20.851   5.363  1.00  0.00     0.034 C 
ENDBRANCH  16  17
ENDBRANCH  11  16
ENDBRANCH   7  10
ENDBRANCH   1   6
BRANCH   5  19
HETATM   19  N   UNL     1      42.821 -11.986   5.924  1.00  0.00    -0.382 N 
HETATM   20  H   UNL     1      43.814 -12.234   5.905  1.00  0.00     0.157 HD
HETATM   21  H   UNL     1      42.666 -10.980   5.969  1.00  0.00     0.157 HD
ENDBRANCH   5  19
BRANCH   4  22
HETATM   22  C   UNL     1      39.982 -11.353   5.065  1.00  0.00     0.251 C 
BRANCH  22  23
HETATM   23  C   UNL     1      40.102 -11.409   3.564  1.00  0.00     0.241 C 
HETATM   24  N   UNL     1      39.302 -12.370   2.969  1.00  0.00    -0.326 N 
HETATM   25  H   UNL     1      38.541 -12.747   3.526  1.00  0.00     0.169 HD
HETATM   26  O   UNL     1      40.863 -10.640   2.977  1.00  0.00    -0.271 OA
BRANCH  24  27
HETATM   27  C   UNL     1      39.363 -12.800   1.628  1.00  0.00     0.034 A 
HETATM   28  C   UNL     1      38.859 -12.057   0.556  1.00  0.00     0.031 A 
HETATM   29  C   UNL     1      38.997 -12.520  -0.757  1.00  0.00     0.026 A 
HETATM   30  C   UNL     1      39.636 -13.731  -1.003  1.00  0.00     0.034 A 
HETATM   31 CL   UNL     1      39.809 -14.296  -2.618  1.00  0.00    -0.084 Cl
HETATM   32  C   UNL     1      40.141 -14.483   0.054  1.00  0.00     0.026 A 
HETATM   33  C   UNL     1      40.011 -14.015   1.366  1.00  0.00     0.031 A 
ENDBRANCH  24  27
ENDBRANCH  22  23
ENDBRANCH   4  22
TORSDOF 8
ENDMDL
MODEL 7
REMARK VINA RESULT:      -7.7      3.722      9.148
REMARK  8 active torsions:
REMARK  status: ('A' for Active; 'I' for Inactive)
REMARK    1  A    between atoms: C_2  and  O_3 
REMARK    2  A    between atoms: O_3  and  C_4 
REMARK    3  A    between atoms: C_5  and  N_6 
REMARK       I    between atoms: N_6  and  C_7 
REMARK    4  A    between atoms: C_7  and  C_8 
REMARK    5  A    between atoms: N_11  and  C_12 
REMARK    6  A    between atoms: C_12  and  C_13 
REMARK       I    between atoms: C_13  and  N_14 
REMARK    7  A    between atoms: N_14  and  C_15 
REMARK    8  A    between atoms: C_23  and  N_24 
ROOT
HETATM    1  C   UNL     1      44.008 -12.215   6.382  1.00  0.00     0.187 A 
HETATM    2  N   UNL     1      44.153 -13.292   7.237  1.00  0.00    -0.150 NA
HETATM    3  N   UNL     1      43.051 -14.021   7.198  1.00  0.00     0.007 NA
HETATM    4  N   UNL     1      42.210 -13.428   6.335  1.00  0.00    -0.248 N 
HETATM    5  C   UNL     1      42.720 -12.246   5.854  1.00  0.00     0.151 A 
ENDROOT
BRANCH   1   6
HETATM    6  C   UNL     1      45.077 -11.231   6.255  1.00  0.00     0.280 C 
HETATM    7  N   UNL     1      45.459 -10.415   7.298  1.00  0.00    -0.319 N 
HETATM    8  H   UNL     1      46.398 -10.067   7.151  1.00  0.00     0.169 HD
HETATM    9  O   UNL     1      45.772 -11.177   5.234  1.00  0.00    -0.265 OA
BRANCH   7  10
HETATM   10  C   UNL     1      44.776  -9.910   8.420  1.00  0.00     0.068 A 
HETATM   11  C   UNL     1      43.580  -9.167   8.386  1.00  0.00     0.095 A 
HETATM   12  C   UNL     1      42.983  -8.787   9.597  1.00  0.00     0.039 A 
HETATM   13  C   UNL     1      43.583  -9.093  10.821  1.00  0.00     0.003 A 
HETATM   14  C   UNL     1      44.800  -9.763  10.850  1.00  0.00     0.002 A 
HETATM   15  C   UNL     1      45.397 -10.159   9.655  1.00  0.00     0.032 A 
BRANCH  11  16
HETATM   16  O   UNL     1      43.112  -8.782   7.157  1.00  0.00    -0.349 OA
BRANCH  16  17
HETATM   17  C   UNL     1      41.746  -8.381   7.058  1.00  0.00     0.171 C 
HETATM   18  C   UNL     1      41.701  -6.948   6.561  1.00  0.00     0.034 C 
ENDBRANCH  16  17
ENDBRANCH  11  16
ENDBRANCH   7  10
ENDBRANCH   1   6
BRANCH   5  19
HETATM   19  N   UNL     1      42.006 -11.410   5.066  1.00  0.00    -0.382 N 
HETATM   20  H   UNL     1      42.306 -10.476   4.773  1.00  0.00     0.157 HD
HETATM   21  H   UNL     1      41.051 -11.624   4.785  1.00  0.00     0.157 HD
ENDBRANCH   5  19
BRANCH   4  22
HETATM   22  C   UNL     1      40.999 -14.123   5.975  1.00  0.00     0.251 C 
BRANCH  22  23
HETATM   23  C   UNL     1      41.251 -15.532   5.508  1.00  0.00     0.241 C 
HETATM   24  N   UNL     1      42.487 -15.717   4.910  1.00  0.00    -0.326 N 
HETATM   25  H   UNL     1      43.190 -15.003   5.073  1.00  0.00     0.169 HD
HETATM   26  O   UNL     1      40.393 -16.400   5.672  1.00  0.00    -0.271 OA
BRANCH  24  27
HETATM   27  C   UNL     1      42.909 -16.853   4.189  1.00  0.00     0.034 A 
HETATM   28  C   UNL     1      43.802 -17.801   4.698  1.00  0.00     0.031 A 
HETATM   29  C   UNL     1      44.142 -18.932   3.948  1.00  0.00     0.026 A 
HETATM   30  C   UNL     1      43.593 -19.117   2.683  1.00  0.00     0.034 A 
HETATM   31 CL   UNL     1      44.007 -20.510   1.765  1.00  0.00    -0.084 Cl
HETATM   32  C   UNL     1      42.704 -18.180   2.163  1.00  0.00     0.026 A 
HETATM   33  C   UNL     1      42.358 -17.054   2.917  1.00  0.00     0.031 A 
ENDBRANCH  24  27
ENDBRANCH  22  23
ENDBRANCH   4  22
TORSDOF 8
ENDMDL
MODEL 8
REMARK VINA RESULT:      -7.6      3.538      9.406
REMARK  8 active torsions:
REMARK  status: ('A' for Active; 'I' for Inactive)
REMARK    1  A    between atoms: C_2  and  O_3 
REMARK    2  A    between atoms: O_3  and  C_4 
REMARK    3  A    between atoms: C_5  and  N_6 
REMARK       I    between atoms: N_6  and  C_7 
REMARK    4  A    between atoms: C_7  and  C_8 
REMARK    5  A    between atoms: N_11  and  C_12 
REMARK    6  A    between atoms: C_12  and  C_13 
REMARK       I    between atoms: C_13  and  N_14 
REMARK    7  A    between atoms: N_14  and  C_15 
REMARK    8  A    between atoms: C_23  and  N_24 
ROOT
HETATM    1  C   UNL     1      44.278 -10.639   7.601  1.00  0.00     0.187 A 
HETATM    2  N   UNL     1      44.668 -11.966   7.617  1.00  0.00    -0.150 NA
HETATM    3  N   UNL     1      43.811 -12.672   6.900  1.00  0.00     0.007 NA
HETATM    4  N   UNL     1      42.884 -11.821   6.431  1.00  0.00    -0.248 N 
HETATM    5  C   UNL     1      43.076 -10.545   6.905  1.00  0.00     0.151 A 
ENDROOT
BRANCH   1   6
HETATM    6  C   UNL     1      45.043  -9.642   8.342  1.00  0.00     0.280 C 
HETATM    7  N   UNL     1      44.770  -9.325   9.655  1.00  0.00    -0.319 N 
HETATM    8  H   UNL     1      45.578  -8.902  10.093  1.00  0.00     0.169 HD
HETATM    9  O   UNL     1      46.055  -9.128   7.853  1.00  0.00    -0.265 OA
BRANCH   7  10
HETATM   10  C   UNL     1      43.595  -9.377  10.429  1.00  0.00     0.068 A 
HETATM   11  C   UNL     1      42.396  -8.696  10.145  1.00  0.00     0.095 A 
HETATM   12  C   UNL     1      41.287  -8.899  10.980  1.00  0.00     0.039 A 
HETATM   13  C   UNL     1      41.377  -9.722  12.105  1.00  0.00     0.003 A 
HETATM   14  C   UNL     1      42.582 -10.335  12.425  1.00  0.00     0.002 A 
HETATM   15  C   UNL     1      43.687 -10.154  11.596  1.00  0.00     0.032 A 
BRANCH  11  16
HETATM   16  O   UNL     1      42.410  -7.800   9.108  1.00  0.00    -0.349 OA
BRANCH  16  17
HETATM   17  C   UNL     1      41.796  -6.529   9.315  1.00  0.00     0.171 C 
HETATM   18  C   UNL     1      42.770  -5.643  10.069  1.00  0.00     0.034 C 
ENDBRANCH  16  17
ENDBRANCH  11  16
ENDBRANCH   7  10
ENDBRANCH   1   6
BRANCH   5  19
HETATM   19  N   UNL     1      42.201  -9.540   6.671  1.00  0.00    -0.382 N 
HETATM   20  H   UNL     1      42.386  -8.546   6.837  1.00  0.00     0.157 HD
HETATM   21  H   UNL     1      41.238  -9.722   6.396  1.00  0.00     0.157 HD
ENDBRANCH   5  19
BRANCH   4  22
HETATM   22  C   UNL     1      41.929 -12.311   5.470  1.00  0.00     0.251 C 
BRANCH  22  23
HETATM   23  C   UNL     1      41.979 -13.808   5.307  1.00  0.00     0.241 C 
HETATM   24  N   UNL     1      43.022 -14.255   4.513  1.00  0.00    -0.326 N 
HETATM   25  H   UNL     1      43.784 -13.606   4.342  1.00  0.00     0.169 HD
HETATM   26  O   UNL     1      41.138 -14.517   5.858  1.00  0.00    -0.271 OA
BRANCH  24  27
HETATM   27  C   UNL     1      43.192 -15.560   4.007  1.00  0.00     0.034 A 
HETATM   28  C   UNL     1      43.716 -16.616   4.759  1.00  0.00     0.031 A 
HETATM   29  C   UNL     1      43.812 -17.900   4.211  1.00  0.00     0.026 A 
HETATM   30  C   UNL     1      43.389 -18.132   2.906  1.00  0.00     0.034 A 
HETATM   31 CL   UNL     1      43.502 -19.711   2.236  1.00  0.00    -0.084 Cl
HETATM   32  C   UNL     1      42.866 -17.089   2.145  1.00  0.00     0.026 A 
HETATM   33  C   UNL     1      42.762 -15.808   2.697  1.00  0.00     0.031 A 
ENDBRANCH  24  27
ENDBRANCH  22  23
ENDBRANCH   4  22
TORSDOF 8
ENDMDL
MODEL 9
REMARK VINA RESULT:      -7.1     17.655     19.865
REMARK  8 active torsions:
REMARK  status: ('A' for Active; 'I' for Inactive)
REMARK    1  A    between atoms: C_2  and  O_3 
REMARK    2  A    between atoms: O_3  and  C_4 
REMARK    3  A    between atoms: C_5  and  N_6 
REMARK       I    between atoms: N_6  and  C_7 
REMARK    4  A    between atoms: C_7  and  C_8 
REMARK    5  A    between atoms: N_11  and  C_12 
REMARK    6  A    between atoms: C_12  and  C_13 
REMARK       I    between atoms: C_13  and  N_14 
REMARK    7  A    between atoms: N_14  and  C_15 
REMARK    8  A    between atoms: C_23  and  N_24 
ROOT
HETATM    1  C   UNL     1      46.849 -30.053   2.929  1.00  0.00     0.187 A 
HETATM    2  N   UNL     1      47.039 -31.416   3.065  1.00  0.00    -0.150 NA
HETATM    3  N   UNL     1      45.860 -32.015   3.053  1.00  0.00     0.007 NA
HETATM    4  N   UNL     1      44.927 -31.059   2.913  1.00  0.00    -0.248 N 
HETATM    5  C   UNL     1      45.480 -29.801   2.914  1.00  0.00     0.151 A 
ENDROOT
BRANCH   1   6
HETATM    6  C   UNL     1      47.995 -29.150   2.938  1.00  0.00     0.280 C 
HETATM    7  N   UNL     1      48.386 -28.440   1.824  1.00  0.00    -0.319 N 
HETATM    8  H   UNL     1      48.945 -27.639   2.092  1.00  0.00     0.169 HD
HETATM    9  O   UNL     1      48.591 -28.892   3.990  1.00  0.00    -0.265 OA
BRANCH   7  10
HETATM   10  C   UNL     1      48.251 -28.672   0.442  1.00  0.00     0.068 A 
HETATM   11  C   UNL     1      49.050 -29.543  -0.324  1.00  0.00     0.095 A 
HETATM   12  C   UNL     1      48.751 -29.718  -1.683  1.00  0.00     0.039 A 
HETATM   13  C   UNL     1      47.712 -29.006  -2.287  1.00  0.00     0.003 A 
HETATM   14  C   UNL     1      46.972 -28.093  -1.546  1.00  0.00     0.002 A 
HETATM   15  C   UNL     1      47.248 -27.921  -0.192  1.00  0.00     0.032 A 
BRANCH  11  16
HETATM   16  O   UNL     1      50.136 -30.109   0.292  1.00  0.00    -0.349 OA
BRANCH  16  17
HETATM   17  C   UNL     1      50.050 -31.481   0.671  1.00  0.00     0.171 C 
HETATM   18  C   UNL     1      51.390 -32.139   0.403  1.00  0.00     0.034 C 
ENDBRANCH  16  17
ENDBRANCH  11  16
ENDBRANCH   7  10
ENDBRANCH   1   6
BRANCH   5  19
HETATM   19  N   UNL     1      44.732 -28.674   2.909  1.00  0.00    -0.382 N 
HETATM   20  H   UNL     1      44.132 -28.368   2.138  1.00  0.00     0.157 HD
HETATM   21  H   UNL     1      44.794 -27.987   3.657  1.00  0.00     0.157 HD
ENDBRANCH   5  19
BRANCH   4  22
HETATM   22  C   UNL     1      43.562 -31.464   2.693  1.00  0.00     0.251 C 
BRANCH  22  23
HETATM   23  C   UNL     1      43.161 -31.399   1.242  1.00  0.00     0.241 C 
HETATM   24  N   UNL     1      44.228 -31.300   0.365  1.00  0.00    -0.326 N 
HETATM   25  H   UNL     1      45.146 -31.544   0.724  1.00  0.00     0.169 HD
HETATM   26  O   UNL     1      41.971 -31.435   0.929  1.00  0.00    -0.271 OA
BRANCH  24  27
HETATM   27  C   UNL     1      44.157 -31.003  -1.011  1.00  0.00     0.034 A 
HETATM   28  C   UNL     1      43.916 -29.720  -1.512  1.00  0.00     0.031 A 
HETATM   29  C   UNL     1      43.908 -29.485  -2.892  1.00  0.00     0.026 A 
HETATM   30  C   UNL     1      44.136 -30.534  -3.776  1.00  0.00     0.034 A 
HETATM   31 CL   UNL     1      44.132 -30.242  -5.471  1.00  0.00    -0.084 Cl
HETATM   32  C   UNL     1      44.377 -31.817  -3.292  1.00  0.00     0.026 A 
HETATM   33  C   UNL     1      44.394 -32.049  -1.913  1.00  0.00     0.031 A 
ENDBRANCH  24  27
ENDBRANCH  22  23
ENDBRANCH   4  22
TORSDOF 8
ENDMDL
MODEL 10
REMARK VINA RESULT:      -7.1     17.678     19.585
REMARK  8 active torsions:
REMARK  status: ('A' for Active; 'I' for Inactive)
REMARK    1  A    between atoms: C_2  and  O_3 
REMARK    2  A    between atoms: O_3  and  C_4 
REMARK    3  A    between atoms: C_5  and  N_6 
REMARK       I    between atoms: N_6  and  C_7 
REMARK    4  A    between atoms: C_7  and  C_8 
REMARK    5  A    between atoms: N_11  and  C_12 
REMARK    6  A    between atoms: C_12  and  C_13 
REMARK       I    between atoms: C_13  and  N_14 
REMARK    7  A    between atoms: N_14  and  C_15 
REMARK    8  A    between atoms: C_23  and  N_24 
ROOT
HETATM    1  C   UNL     1      45.847 -29.178   2.324  1.00  0.00     0.187 A 
HETATM    2  N   UNL     1      46.526 -28.024   1.979  1.00  0.00    -0.150 NA
HETATM    3  N   UNL     1      47.722 -28.046   2.541  1.00  0.00     0.007 NA
HETATM    4  N   UNL     1      47.815 -29.190   3.237  1.00  0.00    -0.248 N 
HETATM    5  C   UNL     1      46.641 -29.904   3.208  1.00  0.00     0.151 A 
ENDROOT
BRANCH   1   6
HETATM    6  C   UNL     1      44.484 -29.395   1.853  1.00  0.00     0.280 C 
HETATM    7  N   UNL     1      44.201 -29.791   0.564  1.00  0.00    -0.319 N 
HETATM    8  H   UNL     1      43.283 -30.216   0.517  1.00  0.00     0.169 HD
HETATM    9  O   UNL     1      43.528 -29.350   2.635  1.00  0.00    -0.265 OA
BRANCH   7  10
HETATM   10  C   UNL     1      44.873 -29.622  -0.661  1.00  0.00     0.068 A 
HETATM   11  C   UNL     1      45.601 -30.618  -1.340  1.00  0.00     0.095 A 
HETATM   12  C   UNL     1      46.165 -30.313  -2.588  1.00  0.00     0.039 A 
HETATM   13  C   UNL     1      46.053 -29.032  -3.133  1.00  0.00     0.003 A 
HETATM   14  C   UNL     1      45.397 -28.031  -2.428  1.00  0.00     0.002 A 
HETATM   15  C   UNL     1      44.820 -28.324  -1.194  1.00  0.00     0.032 A 
BRANCH  11  16
HETATM   16  O   UNL     1      45.790 -31.812  -0.695  1.00  0.00    -0.349 OA
BRANCH  16  17
HETATM   17  C   UNL     1      46.986 -31.980   0.064  1.00  0.00     0.171 C 
HETATM   18  C   UNL     1      47.838 -33.039  -0.609  1.00  0.00     0.034 C 
ENDBRANCH  16  17
ENDBRANCH  11  16
ENDBRANCH   7  10
ENDBRANCH   1   6
BRANCH   5  19
HETATM   19  N   UNL     1      46.452 -31.029   3.935  1.00  0.00    -0.382 N 
HETATM   20  H   UNL     1      47.077 -31.367   4.672  1.00  0.00     0.157 HD
HETATM   21  H   UNL     1      45.702 -31.684   3.722  1.00  0.00     0.157 HD
ENDBRANCH   5  19
BRANCH   4  22
HETATM   22  C   UNL     1      49.093 -29.543   3.804  1.00  0.00     0.251 C 
BRANCH  22  23
HETATM   23  C   UNL     1      50.131 -29.851   2.757  1.00  0.00     0.241 C 
HETATM   24  N   UNL     1      49.624 -29.954   1.472  1.00  0.00    -0.326 N 
HETATM   25  H   UNL     1      48.701 -29.564   1.307  1.00  0.00     0.169 HD
HETATM   26  O   UNL     1      51.311 -29.988   3.080  1.00  0.00    -0.271 OA
BRANCH  24  27
HETATM   27  C   UNL     1      50.304 -30.444   0.339  1.00  0.00     0.034 A 
HETATM   28  C   UNL     1      51.248 -31.475   0.391  1.00  0.00     0.031 A 
HETATM   29  C   UNL     1      51.851 -31.948  -0.780  1.00  0.00     0.026 A 
HETATM   30  C   UNL     1      51.516 -31.386  -2.008  1.00  0.00     0.034 A 
HETATM   31 CL   UNL     1      52.253 -31.972  -3.447  1.00  0.00    -0.084 Cl
HETATM   32  C   UNL     1      50.580 -30.358  -2.076  1.00  0.00     0.026 A 
HETATM   33  C   UNL     1      49.971 -29.893  -0.905  1.00  0.00     0.031 A 
ENDBRANCH  24  27
ENDBRANCH  22  23
ENDBRANCH   4  22
TORSDOF 8
ENDMDL
