MODEL 1
REMARK VINA RESULT:      -8.6      0.000      0.000
REMARK  4 active torsions:
REMARK  status: ('A' for Active; 'I' for Inactive)
REMARK    1  A    between atoms: C_9  and  C_10 
REMARK       I    between atoms: C_10  and  N_11 
REMARK    2  A    between atoms: N_11  and  N_12 
REMARK       I    between atoms: N_12  and  C_13 
REMARK    3  A    between atoms: C_13  and  C_14 
REMARK    4  A    between atoms: C_14  and  C_15 
ROOT
HETATM    1  C   UNL     1      42.903 -13.757   6.536  1.00  0.00     0.291 C 
HETATM    2  N   UNL     1      43.544 -12.551   6.315  1.00  0.00    -0.262 N 
HETATM    3  O   UNL     1      43.180 -14.489   7.487  1.00  0.00    -0.264 OA
HETATM    4  H   UNL     1      43.153 -11.911   5.620  1.00  0.00     0.190 HD
ENDROOT
BRANCH   2   5
HETATM    5  N   UNL     1      44.374 -12.023   7.310  1.00  0.00    -0.267 N 
HETATM    6  C   UNL     1      45.407 -11.196   6.917  1.00  0.00     0.240 C 
HETATM    7  O   UNL     1      45.721 -11.028   5.740  1.00  0.00    -0.272 OA
HETATM    8  H   UNL     1      44.013 -12.044   8.261  1.00  0.00     0.190 HD
BRANCH   6   9
HETATM    9  C   UNL     1      46.137 -10.521   8.063  1.00  0.00     0.143 C 
BRANCH   9  10
HETATM   10  C   UNL     1      45.249  -9.669   8.941  1.00  0.00    -0.049 A 
HETATM   11  C   UNL     1      44.593  -8.538   8.430  1.00  0.00     0.009 A 
HETATM   12  C   UNL     1      43.744  -7.781   9.242  1.00  0.00     0.024 A 
HETATM   13  C   UNL     1      43.530  -8.160  10.565  1.00  0.00     0.034 A 
HETATM   14 CL   UNL     1      42.477  -7.235  11.562  1.00  0.00    -0.084 Cl
HETATM   15  C   UNL     1      44.158  -9.291  11.081  1.00  0.00     0.024 A 
HETATM   16  C   UNL     1      45.011 -10.045  10.271  1.00  0.00     0.009 A 
ENDBRANCH   9  10
ENDBRANCH   6   9
ENDBRANCH   2   5
BRANCH   1  17
HETATM   17  C   UNL     1      41.864 -14.054   5.542  1.00  0.00     0.158 A 
HETATM   18  C   UNL     1      41.907 -15.033   4.505  1.00  0.00     0.029 A 
HETATM   19  C   UNL     1      42.834 -15.993   4.051  1.00  0.00     0.023 A 
HETATM   20  C   UNL     1      40.685 -14.921   3.852  1.00  0.00     0.063 A 
HETATM   21  C   UNL     1      42.509 -16.802   2.948  1.00  0.00    -0.061 A 
HETATM   22  C   UNL     1      43.475 -17.844   2.461  1.00  0.00     0.048 C 
HETATM   23  C   UNL     1      41.261 -16.663   2.326  1.00  0.00     0.009 A 
HETATM   24  C   UNL     1      40.326 -15.719   2.762  1.00  0.00     0.032 A 
HETATM   25  N   UNL     1      40.014 -13.927   4.507  1.00  0.00    -0.277 N 
HETATM   26  H   UNL     1      39.085 -13.576   4.303  1.00  0.00     0.189 HD
HETATM   27  N   UNL     1      40.692 -13.379   5.529  1.00  0.00    -0.168 NA
ENDBRANCH   1  17
TORSDOF 4
ENDMDL
MODEL 2
REMARK VINA RESULT:      -8.6      3.540      8.773
REMARK  4 active torsions:
REMARK  status: ('A' for Active; 'I' for Inactive)
REMARK    1  A    between atoms: C_9  and  C_10 
REMARK       I    between atoms: C_10  and  N_11 
REMARK    2  A    between atoms: N_11  and  N_12 
REMARK       I    between atoms: N_12  and  C_13 
REMARK    3  A    between atoms: C_13  and  C_14 
REMARK    4  A    between atoms: C_14  and  C_15 
ROOT
HETATM    1  C   UNL     1      43.737 -13.002   6.497  1.00  0.00     0.291 C 
HETATM    2  N   UNL     1      43.225 -12.896   5.217  1.00  0.00    -0.262 N 
HETATM    3  O   UNL     1      43.450 -13.933   7.251  1.00  0.00    -0.264 OA
HETATM    4  H   UNL     1      43.634 -12.205   4.583  1.00  0.00     0.190 HD
ENDROOT
BRANCH   2   5
HETATM    5  N   UNL     1      42.538 -13.981   4.661  1.00  0.00    -0.267 N 
HETATM    6  C   UNL     1      42.866 -14.363   3.376  1.00  0.00     0.240 C 
HETATM    7  O   UNL     1      43.615 -13.708   2.652  1.00  0.00    -0.272 OA
HETATM    8  H   UNL     1      42.050 -14.591   5.313  1.00  0.00     0.190 HD
BRANCH   6   9
HETATM    9  C   UNL     1      42.213 -15.654   2.923  1.00  0.00     0.143 C 
BRANCH   9  10
HETATM   10  C   UNL     1      42.882 -16.902   3.452  1.00  0.00    -0.049 A 
HETATM   11  C   UNL     1      43.110 -17.077   4.826  1.00  0.00     0.009 A 
HETATM   12  C   UNL     1      43.693 -18.253   5.306  1.00  0.00     0.024 A 
HETATM   13  C   UNL     1      44.036 -19.269   4.419  1.00  0.00     0.034 A 
HETATM   14 CL   UNL     1      44.746 -20.720   5.010  1.00  0.00    -0.084 Cl
HETATM   15  C   UNL     1      43.799 -19.119   3.055  1.00  0.00     0.024 A 
HETATM   16  C   UNL     1      43.221 -17.942   2.574  1.00  0.00     0.009 A 
ENDBRANCH   9  10
ENDBRANCH   6   9
ENDBRANCH   2   5
BRANCH   1  17
HETATM   17  C   UNL     1      44.658 -11.913   6.848  1.00  0.00     0.158 A 
HETATM   18  C   UNL     1      44.645 -11.108   8.026  1.00  0.00     0.029 A 
HETATM   19  C   UNL     1      43.854 -11.020   9.189  1.00  0.00     0.023 A 
HETATM   20  C   UNL     1      45.718 -10.236   7.879  1.00  0.00     0.063 A 
HETATM   21  C   UNL     1      44.158 -10.053  10.162  1.00  0.00    -0.061 A 
HETATM   22  C   UNL     1      43.338  -9.956  11.417  1.00  0.00     0.048 C 
HETATM   23  C   UNL     1      45.255  -9.201   9.979  1.00  0.00     0.009 A 
HETATM   24  C   UNL     1      46.055  -9.273   8.834  1.00  0.00     0.032 A 
HETATM   25  N   UNL     1      46.284 -10.557   6.677  1.00  0.00    -0.277 N 
HETATM   26  H   UNL     1      47.093 -10.126   6.245  1.00  0.00     0.189 HD
HETATM   27  N   UNL     1      45.672 -11.561   6.025  1.00  0.00    -0.168 NA
ENDBRANCH   1  17
TORSDOF 4
ENDMDL
MODEL 3
REMARK VINA RESULT:      -8.5      6.885      9.017
REMARK  4 active torsions:
REMARK  status: ('A' for Active; 'I' for Inactive)
REMARK    1  A    between atoms: C_9  and  C_10 
REMARK       I    between atoms: C_10  and  N_11 
REMARK    2  A    between atoms: N_11  and  N_12 
REMARK       I    between atoms: N_12  and  C_13 
REMARK    3  A    between atoms: C_13  and  C_14 
REMARK    4  A    between atoms: C_14  and  C_15 
ROOT
HETATM    1  C   UNL     1      40.617 -15.327   2.839  1.00  0.00     0.291 C 
HETATM    2  N   UNL     1      39.961 -14.228   3.362  1.00  0.00    -0.262 N 
HETATM    3  O   UNL     1      40.323 -15.816   1.747  1.00  0.00    -0.264 OA
HETATM    4  H   UNL     1      40.362 -13.763   4.180  1.00  0.00     0.190 HD
ENDROOT
BRANCH   2   5
HETATM    5  N   UNL     1      39.088 -13.498   2.548  1.00  0.00    -0.267 N 
HETATM    6  C   UNL     1      39.616 -12.469   1.793  1.00  0.00     0.240 C 
HETATM    7  O   UNL     1      40.773 -12.072   1.919  1.00  0.00    -0.272 OA
HETATM    8  H   UNL     1      38.190 -13.931   2.343  1.00  0.00     0.190 HD
BRANCH   6   9
HETATM    9  C   UNL     1      38.643 -11.857   0.805  1.00  0.00     0.143 C 
BRANCH   9  10
HETATM   10  C   UNL     1      38.525 -12.619  -0.495  1.00  0.00    -0.049 A 
HETATM   11  C   UNL     1      39.373 -13.701  -0.783  1.00  0.00     0.009 A 
HETATM   12  C   UNL     1      39.227 -14.422  -1.971  1.00  0.00     0.024 A 
HETATM   13  C   UNL     1      38.223 -14.079  -2.872  1.00  0.00     0.034 A 
HETATM   14 CL   UNL     1      38.037 -14.972  -4.330  1.00  0.00    -0.084 Cl
HETATM   15  C   UNL     1      37.361 -13.021  -2.593  1.00  0.00     0.024 A 
HETATM   16  C   UNL     1      37.509 -12.296  -1.407  1.00  0.00     0.009 A 
ENDBRANCH   9  10
ENDBRANCH   6   9
ENDBRANCH   2   5
BRANCH   1  17
HETATM   17  C   UNL     1      41.695 -15.827   3.703  1.00  0.00     0.158 A 
HETATM   18  C   UNL     1      42.477 -17.006   3.523  1.00  0.00     0.029 A 
HETATM   19  C   UNL     1      42.540 -18.051   2.580  1.00  0.00     0.023 A 
HETATM   20  C   UNL     1      43.357 -17.023   4.600  1.00  0.00     0.063 A 
HETATM   21  C   UNL     1      43.476 -19.086   2.753  1.00  0.00    -0.061 A 
HETATM   22  C   UNL     1      43.571 -20.198   1.748  1.00  0.00     0.048 C 
HETATM   23  C   UNL     1      44.351 -19.057   3.847  1.00  0.00     0.009 A 
HETATM   24  C   UNL     1      44.308 -18.028   4.793  1.00  0.00     0.032 A 
HETATM   25  N   UNL     1      43.062 -15.903   5.326  1.00  0.00    -0.277 N 
HETATM   26  H   UNL     1      43.508 -15.591   6.181  1.00  0.00     0.189 HD
HETATM   27  N   UNL     1      42.065 -15.159   4.819  1.00  0.00    -0.168 NA
ENDBRANCH   1  17
TORSDOF 4
ENDMDL
MODEL 4
REMARK VINA RESULT:      -8.3      1.962      2.596
REMARK  4 active torsions:
REMARK  status: ('A' for Active; 'I' for Inactive)
REMARK    1  A    between atoms: C_9  and  C_10 
REMARK       I    between atoms: C_10  and  N_11 
REMARK    2  A    between atoms: N_11  and  N_12 
REMARK       I    between atoms: N_12  and  C_13 
REMARK    3  A    between atoms: C_13  and  C_14 
REMARK    4  A    between atoms: C_14  and  C_15 
ROOT
HETATM    1  C   UNL     1      42.476 -14.518   6.735  1.00  0.00     0.291 C 
HETATM    2  N   UNL     1      43.455 -13.807   7.405  1.00  0.00    -0.262 N 
HETATM    3  O   UNL     1      41.360 -14.051   6.504  1.00  0.00    -0.264 OA
HETATM    4  H   UNL     1      44.408 -14.176   7.411  1.00  0.00     0.190 HD
ENDROOT
BRANCH   2   5
HETATM    5  N   UNL     1      43.272 -12.439   7.635  1.00  0.00    -0.267 N 
HETATM    6  C   UNL     1      44.275 -11.577   7.237  1.00  0.00     0.240 C 
HETATM    7  O   UNL     1      45.371 -11.965   6.835  1.00  0.00    -0.272 OA
HETATM    8  H   UNL     1      42.319 -12.132   7.818  1.00  0.00     0.190 HD
BRANCH   6   9
HETATM    9  C   UNL     1      43.917 -10.108   7.351  1.00  0.00     0.143 C 
BRANCH   9  10
HETATM   10  C   UNL     1      43.772  -9.618   8.774  1.00  0.00    -0.049 A 
HETATM   11  C   UNL     1      44.728  -9.935   9.752  1.00  0.00     0.009 A 
HETATM   12  C   UNL     1      44.602  -9.443  11.054  1.00  0.00     0.024 A 
HETATM   13  C   UNL     1      43.532  -8.616  11.383  1.00  0.00     0.034 A 
HETATM   14 CL   UNL     1      43.382  -8.002  12.982  1.00  0.00    -0.084 Cl
HETATM   15  C   UNL     1      42.585  -8.276  10.419  1.00  0.00     0.024 A 
HETATM   16  C   UNL     1      42.708  -8.772   9.118  1.00  0.00     0.009 A 
ENDBRANCH   9  10
ENDBRANCH   6   9
ENDBRANCH   2   5
BRANCH   1  17
HETATM   17  C   UNL     1      42.910 -15.859   6.324  1.00  0.00     0.158 A 
HETATM   18  C   UNL     1      43.099 -16.344   4.996  1.00  0.00     0.029 A 
HETATM   19  C   UNL     1      42.964 -15.821   3.694  1.00  0.00     0.023 A 
HETATM   20  C   UNL     1      43.520 -17.660   5.148  1.00  0.00     0.063 A 
HETATM   21  C   UNL     1      43.243 -16.640   2.586  1.00  0.00    -0.061 A 
HETATM   22  C   UNL     1      43.123 -16.095   1.192  1.00  0.00     0.048 C 
HETATM   23  C   UNL     1      43.675 -17.957   2.785  1.00  0.00     0.009 A 
HETATM   24  C   UNL     1      43.819 -18.495   4.068  1.00  0.00     0.032 A 
HETATM   25  N   UNL     1      43.556 -17.875   6.497  1.00  0.00    -0.277 N 
HETATM   26  H   UNL     1      43.822 -18.728   6.975  1.00  0.00     0.189 HD
HETATM   27  N   UNL     1      43.194 -16.815   7.239  1.00  0.00    -0.168 NA
ENDBRANCH   1  17
TORSDOF 4
ENDMDL
MODEL 5
REMARK VINA RESULT:      -8.3      6.960      9.543
REMARK  4 active torsions:
REMARK  status: ('A' for Active; 'I' for Inactive)
REMARK    1  A    between atoms: C_9  and  C_10 
REMARK       I    between atoms: C_10  and  N_11 
REMARK    2  A    between atoms: N_11  and  N_12 
REMARK       I    between atoms: N_12  and  C_13 
REMARK    3  A    between atoms: C_13  and  C_14 
REMARK    4  A    between atoms: C_14  and  C_15 
ROOT
HETATM    1  C   UNL     1      40.953 -15.311   1.465  1.00  0.00     0.291 C 
HETATM    2  N   UNL     1      41.525 -14.428   0.567  1.00  0.00    -0.262 N 
HETATM    3  O   UNL     1      39.830 -15.788   1.301  1.00  0.00    -0.264 OA
HETATM    4  H   UNL     1      42.519 -14.207   0.665  1.00  0.00     0.190 HD
ENDROOT
BRANCH   2   5
HETATM    5  N   UNL     1      40.922 -14.233  -0.680  1.00  0.00    -0.267 N 
HETATM    6  C   UNL     1      40.749 -12.935  -1.118  1.00  0.00     0.240 C 
HETATM    7  O   UNL     1      40.957 -11.954  -0.406  1.00  0.00    -0.272 OA
HETATM    8  H   UNL     1      40.903 -15.035  -1.306  1.00  0.00     0.190 HD
BRANCH   6   9
HETATM    9  C   UNL     1      40.265 -12.819  -2.550  1.00  0.00     0.143 C 
BRANCH   9  10
HETATM   10  C   UNL     1      38.883 -12.222  -2.687  1.00  0.00    -0.049 A 
HETATM   11  C   UNL     1      38.704 -10.849  -2.919  1.00  0.00     0.009 A 
HETATM   12  C   UNL     1      37.423 -10.316  -3.083  1.00  0.00     0.024 A 
HETATM   13  C   UNL     1      36.312 -11.154  -3.034  1.00  0.00     0.034 A 
HETATM   14 CL   UNL     1      34.736 -10.501  -3.245  1.00  0.00    -0.084 Cl
HETATM   15  C   UNL     1      36.473 -12.522  -2.824  1.00  0.00     0.024 A 
HETATM   16  C   UNL     1      37.754 -13.054  -2.654  1.00  0.00     0.009 A 
ENDBRANCH   9  10
ENDBRANCH   6   9
ENDBRANCH   2   5
BRANCH   1  17
HETATM   17  C   UNL     1      41.824 -15.625   2.606  1.00  0.00     0.158 A 
HETATM   18  C   UNL     1      42.555 -16.827   2.838  1.00  0.00     0.029 A 
HETATM   19  C   UNL     1      42.727 -18.058   2.171  1.00  0.00     0.023 A 
HETATM   20  C   UNL     1      43.222 -16.619   4.040  1.00  0.00     0.063 A 
HETATM   21  C   UNL     1      43.552 -19.043   2.739  1.00  0.00    -0.061 A 
HETATM   22  C   UNL     1      43.763 -20.353   2.035  1.00  0.00     0.048 C 
HETATM   23  C   UNL     1      44.214 -18.787   3.947  1.00  0.00     0.009 A 
HETATM   24  C   UNL     1      44.060 -17.572   4.623  1.00  0.00     0.032 A 
HETATM   25  N   UNL     1      42.866 -15.360   4.437  1.00  0.00    -0.277 N 
HETATM   26  H   UNL     1      43.167 -14.873   5.274  1.00  0.00     0.189 HD
HETATM   27  N   UNL     1      42.024 -14.731   3.601  1.00  0.00    -0.168 NA
ENDBRANCH   1  17
TORSDOF 4
ENDMDL
MODEL 6
REMARK VINA RESULT:      -8.2      1.380      1.842
REMARK  4 active torsions:
REMARK  status: ('A' for Active; 'I' for Inactive)
REMARK    1  A    between atoms: C_9  and  C_10 
REMARK       I    between atoms: C_10  and  N_11 
REMARK    2  A    between atoms: N_11  and  N_12 
REMARK       I    between atoms: N_12  and  C_13 
REMARK    3  A    between atoms: C_13  and  C_14 
REMARK    4  A    between atoms: C_14  and  C_15 
ROOT
HETATM    1  C   UNL     1      43.412 -13.483   6.564  1.00  0.00     0.291 C 
HETATM    2  N   UNL     1      44.112 -12.317   6.316  1.00  0.00    -0.262 N 
HETATM    3  O   UNL     1      43.579 -14.152   7.585  1.00  0.00    -0.264 OA
HETATM    4  H   UNL     1      43.807 -11.718   5.546  1.00  0.00     0.190 HD
ENDROOT
BRANCH   2   5
HETATM    5  N   UNL     1      44.871 -11.742   7.341  1.00  0.00    -0.267 N 
HETATM    6  C   UNL     1      44.330 -10.671   8.024  1.00  0.00     0.240 C 
HETATM    7  O   UNL     1      43.292 -10.110   7.675  1.00  0.00    -0.272 OA
HETATM    8  H   UNL     1      45.636 -12.303   7.710  1.00  0.00     0.190 HD
BRANCH   6   9
HETATM    9  C   UNL     1      45.131 -10.231   9.234  1.00  0.00     0.143 C 
BRANCH   9  10
HETATM   10  C   UNL     1      44.289  -9.918  10.449  1.00  0.00    -0.049 A 
HETATM   11  C   UNL     1      43.809 -10.940  11.283  1.00  0.00     0.009 A 
HETATM   12  C   UNL     1      43.065 -10.635  12.426  1.00  0.00     0.024 A 
HETATM   13  C   UNL     1      42.812  -9.306  12.754  1.00  0.00     0.034 A 
HETATM   14 CL   UNL     1      41.905  -8.929  14.165  1.00  0.00    -0.084 Cl
HETATM   15  C   UNL     1      43.298  -8.279  11.948  1.00  0.00     0.024 A 
HETATM   16  C   UNL     1      44.037  -8.584  10.802  1.00  0.00     0.009 A 
ENDBRANCH   9  10
ENDBRANCH   6   9
ENDBRANCH   2   5
BRANCH   1  17
HETATM   17  C   UNL     1      42.453 -13.822   5.504  1.00  0.00     0.158 A 
HETATM   18  C   UNL     1      42.474 -14.959   4.643  1.00  0.00     0.029 A 
HETATM   19  C   UNL     1      43.308 -16.082   4.461  1.00  0.00     0.023 A 
HETATM   20  C   UNL     1      41.354 -14.820   3.832  1.00  0.00     0.063 A 
HETATM   21  C   UNL     1      42.996 -17.021   3.462  1.00  0.00    -0.061 A 
HETATM   22  C   UNL     1      43.861 -18.233   3.266  1.00  0.00     0.048 C 
HETATM   23  C   UNL     1      41.851 -16.846   2.674  1.00  0.00     0.009 A 
HETATM   24  C   UNL     1      41.009 -15.742   2.841  1.00  0.00     0.032 A 
HETATM   25  N   UNL     1      40.756 -13.659   4.238  1.00  0.00    -0.277 N 
HETATM   26  H   UNL     1      39.909 -13.243   3.868  1.00  0.00     0.189 HD
HETATM   27  N   UNL     1      41.390 -13.029   5.241  1.00  0.00    -0.168 NA
ENDBRANCH   1  17
TORSDOF 4
ENDMDL
MODEL 7
REMARK VINA RESULT:      -8.2      6.529      8.139
REMARK  4 active torsions:
REMARK  status: ('A' for Active; 'I' for Inactive)
REMARK    1  A    between atoms: C_9  and  C_10 
REMARK       I    between atoms: C_10  and  N_11 
REMARK    2  A    between atoms: N_11  and  N_12 
REMARK       I    between atoms: N_12  and  C_13 
REMARK    3  A    between atoms: C_13  and  C_14 
REMARK    4  A    between atoms: C_14  and  C_15 
ROOT
HETATM    1  C   UNL     1      41.002 -15.088   2.548  1.00  0.00     0.291 C 
HETATM    2  N   UNL     1      39.882 -14.610   3.203  1.00  0.00    -0.262 N 
HETATM    3  O   UNL     1      41.128 -15.031   1.324  1.00  0.00    -0.264 OA
HETATM    4  H   UNL     1      39.911 -14.525   4.221  1.00  0.00     0.190 HD
ENDROOT
BRANCH   2   5
HETATM    5  N   UNL     1      38.956 -13.832   2.499  1.00  0.00    -0.267 N 
HETATM    6  C   UNL     1      38.934 -12.473   2.745  1.00  0.00     0.240 C 
HETATM    7  O   UNL     1      39.576 -11.946   3.652  1.00  0.00    -0.272 OA
HETATM    8  H   UNL     1      38.555 -14.249   1.662  1.00  0.00     0.190 HD
BRANCH   6   9
HETATM    9  C   UNL     1      38.038 -11.684   1.811  1.00  0.00     0.143 C 
BRANCH   9  10
HETATM   10  C   UNL     1      38.660 -11.388   0.465  1.00  0.00    -0.049 A 
HETATM   11  C   UNL     1      38.026 -11.769  -0.728  1.00  0.00     0.009 A 
HETATM   12  C   UNL     1      38.592 -11.454  -1.966  1.00  0.00     0.024 A 
HETATM   13  C   UNL     1      39.786 -10.740  -2.021  1.00  0.00     0.034 A 
HETATM   14 CL   UNL     1      40.479 -10.344  -3.545  1.00  0.00    -0.084 Cl
HETATM   15  C   UNL     1      40.418 -10.337  -0.847  1.00  0.00     0.024 A 
HETATM   16  C   UNL     1      39.855 -10.657   0.391  1.00  0.00     0.009 A 
ENDBRANCH   9  10
ENDBRANCH   6   9
ENDBRANCH   2   5
BRANCH   1  17
HETATM   17  C   UNL     1      42.012 -15.647   3.456  1.00  0.00     0.158 A 
HETATM   18  C   UNL     1      42.676 -16.905   3.349  1.00  0.00     0.029 A 
HETATM   19  C   UNL     1      42.648 -17.998   2.459  1.00  0.00     0.023 A 
HETATM   20  C   UNL     1      43.535 -16.954   4.441  1.00  0.00     0.063 A 
HETATM   21  C   UNL     1      43.474 -19.110   2.701  1.00  0.00    -0.061 A 
HETATM   22  C   UNL     1      43.472 -20.276   1.754  1.00  0.00     0.048 C 
HETATM   23  C   UNL     1      44.332 -19.113   3.808  1.00  0.00     0.009 A 
HETATM   24  C   UNL     1      44.378 -18.037   4.702  1.00  0.00     0.032 A 
HETATM   25  N   UNL     1      43.342 -15.775   5.106  1.00  0.00    -0.277 N 
HETATM   26  H   UNL     1      43.805 -15.466   5.952  1.00  0.00     0.189 HD
HETATM   27  N   UNL     1      42.431 -14.963   4.544  1.00  0.00    -0.168 NA
ENDBRANCH   1  17
TORSDOF 4
ENDMDL
MODEL 8
REMARK VINA RESULT:      -8.1      3.588      8.642
REMARK  4 active torsions:
REMARK  status: ('A' for Active; 'I' for Inactive)
REMARK    1  A    between atoms: C_9  and  C_10 
REMARK       I    between atoms: C_10  and  N_11 
REMARK    2  A    between atoms: N_11  and  N_12 
REMARK       I    between atoms: N_12  and  C_13 
REMARK    3  A    between atoms: C_13  and  C_14 
REMARK    4  A    between atoms: C_14  and  C_15 
ROOT
HETATM    1  C   UNL     1      43.681 -12.407   6.063  1.00  0.00     0.291 C 
HETATM    2  N   UNL     1      42.999 -11.728   5.070  1.00  0.00    -0.262 N 
HETATM    3  O   UNL     1      43.475 -13.596   6.314  1.00  0.00    -0.264 OA
HETATM    4  H   UNL     1      43.335 -10.803   4.792  1.00  0.00     0.190 HD
ENDROOT
BRANCH   2   5
HETATM    5  N   UNL     1      42.213 -12.447   4.163  1.00  0.00    -0.267 N 
HETATM    6  C   UNL     1      42.239 -12.063   2.837  1.00  0.00     0.240 C 
HETATM    7  O   UNL     1      42.795 -11.036   2.449  1.00  0.00    -0.272 OA
HETATM    8  H   UNL     1      41.894 -13.365   4.467  1.00  0.00     0.190 HD
BRANCH   6   9
HETATM    9  C   UNL     1      41.511 -13.005   1.899  1.00  0.00     0.143 C 
BRANCH   9  10
HETATM   10  C   UNL     1      41.911 -14.455   2.051  1.00  0.00    -0.049 A 
HETATM   11  C   UNL     1      40.998 -15.415   2.517  1.00  0.00     0.009 A 
HETATM   12  C   UNL     1      41.368 -16.759   2.615  1.00  0.00     0.024 A 
HETATM   13  C   UNL     1      42.646 -17.156   2.231  1.00  0.00     0.034 A 
HETATM   14 CL   UNL     1      43.098 -18.812   2.343  1.00  0.00    -0.084 Cl
HETATM   15  C   UNL     1      43.557 -16.220   1.748  1.00  0.00     0.024 A 
HETATM   16  C   UNL     1      43.189 -14.875   1.655  1.00  0.00     0.009 A 
ENDBRANCH   9  10
ENDBRANCH   6   9
ENDBRANCH   2   5
BRANCH   1  17
HETATM   17  C   UNL     1      44.670 -11.576   6.762  1.00  0.00     0.158 A 
HETATM   18  C   UNL     1      44.536 -10.951   8.037  1.00  0.00     0.029 A 
HETATM   19  C   UNL     1      43.537 -10.868   9.029  1.00  0.00     0.023 A 
HETATM   20  C   UNL     1      45.743 -10.295   8.247  1.00  0.00     0.063 A 
HETATM   21  C   UNL     1      43.779 -10.119  10.194  1.00  0.00    -0.061 A 
HETATM   22  C   UNL     1      42.735 -10.035  11.271  1.00  0.00     0.048 C 
HETATM   23  C   UNL     1      45.014  -9.482  10.369  1.00  0.00     0.009 A 
HETATM   24  C   UNL     1      46.019  -9.554   9.399  1.00  0.00     0.032 A 
HETATM   25  N   UNL     1      46.494 -10.555   7.135  1.00  0.00    -0.277 N 
HETATM   26  H   UNL     1      47.436 -10.235   6.943  1.00  0.00     0.189 HD
HETATM   27  N   UNL     1      45.881 -11.321   6.217  1.00  0.00    -0.168 NA
ENDBRANCH   1  17
TORSDOF 4
ENDMDL
MODEL 9
REMARK VINA RESULT:      -7.8      2.105      2.713
REMARK  4 active torsions:
REMARK  status: ('A' for Active; 'I' for Inactive)
REMARK    1  A    between atoms: C_9  and  C_10 
REMARK       I    between atoms: C_10  and  N_11 
REMARK    2  A    between atoms: N_11  and  N_12 
REMARK       I    between atoms: N_12  and  C_13 
REMARK    3  A    between atoms: C_13  and  C_14 
REMARK    4  A    between atoms: C_14  and  C_15 
ROOT
HETATM    1  C   UNL     1      43.675 -12.257   6.534  1.00  0.00     0.291 C 
HETATM    2  N   UNL     1      43.117 -11.636   7.636  1.00  0.00    -0.262 N 
HETATM    3  O   UNL     1      44.886 -12.243   6.309  1.00  0.00    -0.264 OA
HETATM    4  H   UNL     1      42.138 -11.831   7.863  1.00  0.00     0.190 HD
ENDROOT
BRANCH   2   5
HETATM    5  N   UNL     1      43.952 -11.167   8.656  1.00  0.00    -0.267 N 
HETATM    6  C   UNL     1      43.681  -9.925   9.194  1.00  0.00     0.240 C 
HETATM    7  O   UNL     1      42.844  -9.158   8.720  1.00  0.00    -0.272 OA
HETATM    8  H   UNL     1      44.525 -11.863   9.130  1.00  0.00     0.190 HD
BRANCH   6   9
HETATM    9  C   UNL     1      44.513  -9.577  10.413  1.00  0.00     0.143 C 
BRANCH   9  10
HETATM   10  C   UNL     1      43.699  -9.297  11.655  1.00  0.00    -0.049 A 
HETATM   11  C   UNL     1      43.697  -8.026  12.251  1.00  0.00     0.009 A 
HETATM   12  C   UNL     1      42.908  -7.769  13.375  1.00  0.00     0.024 A 
HETATM   13  C   UNL     1      42.103  -8.775  13.902  1.00  0.00     0.034 A 
HETATM   14 CL   UNL     1      41.125  -8.457  15.280  1.00  0.00    -0.084 Cl
HETATM   15  C   UNL     1      42.078 -10.036  13.311  1.00  0.00     0.024 A 
HETATM   16  C   UNL     1      42.871 -10.295  12.190  1.00  0.00     0.009 A 
ENDBRANCH   9  10
ENDBRANCH   6   9
ENDBRANCH   2   5
BRANCH   1  17
HETATM   17  C   UNL     1      42.686 -12.936   5.686  1.00  0.00     0.158 A 
HETATM   18  C   UNL     1      42.703 -14.292   5.245  1.00  0.00     0.029 A 
HETATM   19  C   UNL     1      43.558 -15.403   5.404  1.00  0.00     0.023 A 
HETATM   20  C   UNL     1      41.550 -14.439   4.483  1.00  0.00     0.063 A 
HETATM   21  C   UNL     1      43.233 -16.621   4.782  1.00  0.00    -0.061 A 
HETATM   22  C   UNL     1      44.120 -17.820   4.955  1.00  0.00     0.048 C 
HETATM   23  C   UNL     1      42.055 -16.728   4.032  1.00  0.00     0.009 A 
HETATM   24  C   UNL     1      41.192 -15.639   3.864  1.00  0.00     0.032 A 
HETATM   25  N   UNL     1      40.939 -13.217   4.513  1.00  0.00    -0.277 N 
HETATM   26  H   UNL     1      40.068 -12.956   4.064  1.00  0.00     0.189 HD
HETATM   27  N   UNL     1      41.594 -12.286   5.226  1.00  0.00    -0.168 NA
ENDBRANCH   1  17
TORSDOF 4
ENDMDL
MODEL 10
REMARK VINA RESULT:      -7.7      6.662      9.289
REMARK  4 active torsions:
REMARK  status: ('A' for Active; 'I' for Inactive)
REMARK    1  A    between atoms: C_9  and  C_10 
REMARK       I    between atoms: C_10  and  N_11 
REMARK    2  A    between atoms: N_11  and  N_12 
REMARK       I    between atoms: N_12  and  C_13 
REMARK    3  A    between atoms: C_13  and  C_14 
REMARK    4  A    between atoms: C_14  and  C_15 
ROOT
HETATM    1  C   UNL     1      41.006 -12.588   0.196  1.00  0.00     0.291 C 
HETATM    2  N   UNL     1      41.341 -13.903   0.460  1.00  0.00    -0.262 N 
HETATM    3  O   UNL     1      41.416 -11.650   0.881  1.00  0.00    -0.264 OA
HETATM    4  H   UNL     1      41.118 -14.614  -0.240  1.00  0.00     0.190 HD
ENDROOT
BRANCH   2   5
HETATM    5  N   UNL     1      42.352 -14.181   1.387  1.00  0.00    -0.267 N 
HETATM    6  C   UNL     1      41.997 -14.815   2.560  1.00  0.00     0.240 C 
HETATM    7  O   UNL     1      40.827 -15.007   2.891  1.00  0.00    -0.272 OA
HETATM    8  H   UNL     1      43.307 -14.159   1.036  1.00  0.00     0.190 HD
BRANCH   6   9
HETATM    9  C   UNL     1      43.171 -15.245   3.418  1.00  0.00     0.143 C 
BRANCH   9  10
HETATM   10  C   UNL     1      43.413 -16.737   3.427  1.00  0.00    -0.049 A 
HETATM   11  C   UNL     1      43.884 -17.389   4.577  1.00  0.00     0.009 A 
HETATM   12  C   UNL     1      44.066 -18.775   4.584  1.00  0.00     0.024 A 
HETATM   13  C   UNL     1      43.762 -19.520   3.448  1.00  0.00     0.034 A 
HETATM   14 CL   UNL     1      43.977 -21.226   3.460  1.00  0.00    -0.084 Cl
HETATM   15  C   UNL     1      43.276 -18.891   2.305  1.00  0.00     0.024 A 
HETATM   16  C   UNL     1      43.099 -17.504   2.296  1.00  0.00     0.009 A 
ENDBRANCH   9  10
ENDBRANCH   6   9
ENDBRANCH   2   5
BRANCH   1  17
HETATM   17  C   UNL     1      40.137 -12.433  -0.978  1.00  0.00     0.158 A 
HETATM   18  C   UNL     1      38.897 -11.732  -1.057  1.00  0.00     0.029 A 
HETATM   19  C   UNL     1      38.086 -10.998  -0.168  1.00  0.00     0.023 A 
HETATM   20  C   UNL     1      38.484 -11.876  -2.376  1.00  0.00     0.063 A 
HETATM   21  C   UNL     1      36.880 -10.443  -0.629  1.00  0.00    -0.061 A 
HETATM   22  C   UNL     1      36.011  -9.641   0.297  1.00  0.00     0.048 C 
HETATM   23  C   UNL     1      36.507 -10.603  -1.970  1.00  0.00     0.009 A 
HETATM   24  C   UNL     1      37.299 -11.325  -2.869  1.00  0.00     0.032 A 
HETATM   25  N   UNL     1      39.458 -12.621  -2.981  1.00  0.00    -0.277 N 
HETATM   26  H   UNL     1      39.489 -12.919  -3.949  1.00  0.00     0.189 HD
HETATM   27  N   UNL     1      40.469 -12.977  -2.171  1.00  0.00    -0.168 NA
ENDBRANCH   1  17
TORSDOF 4
ENDMDL
