MODEL 1
REMARK VINA RESULT:      -8.2      0.000      0.000
REMARK  9 active torsions:
REMARK  status: ('A' for Active; 'I' for Inactive)
REMARK    1  A    between atoms: C_2  and  N_3 
REMARK    2  A    between atoms: C_4  and  S_5 
REMARK    3  A    between atoms: S_5  and  C_6 
REMARK    4  A    between atoms: C_6  and  C_7 
REMARK       I    between atoms: C_7  and  N_8 
REMARK    5  A    between atoms: N_8  and  C_9 
REMARK    6  A    between atoms: C_9  and  C_10 
REMARK    7  A    between atoms: C_10  and  C_11 
REMARK    8  A    between atoms: C_14  and  O_15 
REMARK    9  A    between atoms: C_22  and  C_23 
ROOT
HETATM    1  S   UNL     1      43.306 -10.181   7.784  1.00  0.00    -0.081 SA
ENDROOT
BRANCH   1   2
HETATM    2  C   UNL     1      43.332 -10.186   9.512  1.00  0.00     0.192 A 
HETATM    3  N   UNL     1      42.682  -9.273  10.298  1.00  0.00    -0.308 N 
HETATM    4  C   UNL     1      43.002  -9.612  11.599  1.00  0.00     0.165 A 
HETATM    5  N   UNL     1      43.791 -10.672  11.572  1.00  0.00    -0.128 NA
HETATM    6  N   UNL     1      43.992 -11.035  10.264  1.00  0.00    -0.122 NA
BRANCH   3   7
HETATM    7  C   UNL     1      41.866  -8.159   9.865  1.00  0.00     0.128 C 
HETATM    8  C   UNL     1      40.399  -8.526   9.721  1.00  0.00     0.027 C 
ENDBRANCH   3   7
BRANCH   4   9
HETATM    9  C   UNL     1      42.604  -8.882  12.804  1.00  0.00     0.018 A 
HETATM   10  C   UNL     1      41.425  -9.217  13.504  1.00  0.00    -0.048 A 
HETATM   11  C   UNL     1      40.505 -10.309  13.027  1.00  0.00     0.049 C 
HETATM   12  C   UNL     1      41.080  -8.489  14.655  1.00  0.00     0.007 A 
HETATM   13  C   UNL     1      41.888  -7.447  15.109  1.00  0.00     0.001 A 
HETATM   14  C   UNL     1      43.042  -7.106  14.411  1.00  0.00     0.001 A 
HETATM   15  C   UNL     1      43.393  -7.814  13.260  1.00  0.00     0.016 A 
ENDBRANCH   4   9
ENDBRANCH   1   2
BRANCH   1  16
HETATM   16  C   UNL     1      44.507 -11.501   7.442  1.00  0.00     0.185 C 
BRANCH  16  17
HETATM   17  C   UNL     1      43.786 -12.711   6.871  1.00  0.00     0.227 C 
HETATM   18  N   UNL     1      43.171 -12.493   5.651  1.00  0.00    -0.360 N 
HETATM   19  H   UNL     1      43.047 -11.537   5.341  1.00  0.00     0.162 HD
HETATM   20  O   UNL     1      43.774 -13.803   7.437  1.00  0.00    -0.273 OA
BRANCH  18  21
HETATM   21  C   UNL     1      42.345 -13.516   5.032  1.00  0.00     0.127 C 
BRANCH  21  22
HETATM   22  C   UNL     1      42.850 -13.890   3.638  1.00  0.00     0.058 C 
BRANCH  22  23
HETATM   23  C   UNL     1      43.054 -15.379   3.504  1.00  0.00    -0.057 A 
HETATM   24  C   UNL     1      43.425 -16.150   4.611  1.00  0.00     0.010 A 
HETATM   25  C   UNL     1      43.654 -17.520   4.469  1.00  0.00     0.037 A 
HETATM   26  C   UNL     1      43.523 -18.142   3.226  1.00  0.00     0.068 A 
HETATM   27  C   UNL     1      43.149 -17.379   2.120  1.00  0.00     0.037 A 
HETATM   28  C   UNL     1      42.918 -16.005   2.258  1.00  0.00     0.010 A 
BRANCH  26  29
HETATM   29  O   UNL     1      43.787 -19.484   3.226  1.00  0.00    -0.356 OA
HETATM   30  C   UNL     1      43.361 -20.223   2.088  1.00  0.00     0.210 C 
ENDBRANCH  26  29
ENDBRANCH  22  23
ENDBRANCH  21  22
ENDBRANCH  18  21
ENDBRANCH  16  17
ENDBRANCH   1  16
TORSDOF 9
ENDMDL
MODEL 2
REMARK VINA RESULT:      -8.1      2.988     10.634
REMARK  9 active torsions:
REMARK  status: ('A' for Active; 'I' for Inactive)
REMARK    1  A    between atoms: C_2  and  N_3 
REMARK    2  A    between atoms: C_4  and  S_5 
REMARK    3  A    between atoms: S_5  and  C_6 
REMARK    4  A    between atoms: C_6  and  C_7 
REMARK       I    between atoms: C_7  and  N_8 
REMARK    5  A    between atoms: N_8  and  C_9 
REMARK    6  A    between atoms: C_9  and  C_10 
REMARK    7  A    between atoms: C_10  and  C_11 
REMARK    8  A    between atoms: C_14  and  O_15 
REMARK    9  A    between atoms: C_22  and  C_23 
ROOT
HETATM    1  S   UNL     1      40.931 -12.797   4.662  1.00  0.00    -0.081 SA
ENDROOT
BRANCH   1   2
HETATM    2  C   UNL     1      41.941 -13.980   3.909  1.00  0.00     0.192 A 
HETATM    3  N   UNL     1      41.821 -15.331   4.097  1.00  0.00    -0.308 N 
HETATM    4  C   UNL     1      42.840 -15.898   3.355  1.00  0.00     0.165 A 
HETATM    5  N   UNL     1      43.513 -14.927   2.761  1.00  0.00    -0.128 NA
HETATM    6  N   UNL     1      42.944 -13.727   3.104  1.00  0.00    -0.122 NA
BRANCH   3   7
HETATM    7  C   UNL     1      40.861 -16.024   4.928  1.00  0.00     0.128 C 
HETATM    8  C   UNL     1      41.299 -16.121   6.379  1.00  0.00     0.027 C 
ENDBRANCH   3   7
BRANCH   4   9
HETATM    9  C   UNL     1      43.174 -17.321   3.294  1.00  0.00     0.018 A 
HETATM   10  C   UNL     1      43.975 -17.925   4.288  1.00  0.00    -0.048 A 
HETATM   11  C   UNL     1      44.553 -17.132   5.430  1.00  0.00     0.049 C 
HETATM   12  C   UNL     1      44.273 -19.295   4.190  1.00  0.00     0.007 A 
HETATM   13  C   UNL     1      43.786 -20.057   3.129  1.00  0.00     0.001 A 
HETATM   14  C   UNL     1      43.010 -19.460   2.141  1.00  0.00     0.001 A 
HETATM   15  C   UNL     1      42.714 -18.097   2.219  1.00  0.00     0.016 A 
ENDBRANCH   4   9
ENDBRANCH   1   2
BRANCH   1  16
HETATM   16  C   UNL     1      41.836 -12.549   6.219  1.00  0.00     0.185 C 
BRANCH  16  17
HETATM   17  C   UNL     1      42.930 -11.514   6.013  1.00  0.00     0.227 C 
HETATM   18  N   UNL     1      44.152 -11.849   6.568  1.00  0.00    -0.360 N 
HETATM   19  H   UNL     1      44.183 -12.609   7.237  1.00  0.00     0.162 HD
HETATM   20  O   UNL     1      42.748 -10.474   5.382  1.00  0.00    -0.273 OA
BRANCH  18  21
HETATM   21  C   UNL     1      45.265 -10.914   6.558  1.00  0.00     0.127 C 
BRANCH  21  22
HETATM   22  C   UNL     1      45.928 -10.801   7.931  1.00  0.00     0.058 C 
BRANCH  22  23
HETATM   23  C   UNL     1      45.157  -9.882   8.845  1.00  0.00    -0.057 A 
HETATM   24  C   UNL     1      45.021 -10.179  10.205  1.00  0.00     0.010 A 
HETATM   25  C   UNL     1      44.269  -9.346  11.035  1.00  0.00     0.037 A 
HETATM   26  C   UNL     1      43.638  -8.209  10.526  1.00  0.00     0.068 A 
HETATM   27  C   UNL     1      43.775  -7.906   9.173  1.00  0.00     0.037 A 
HETATM   28  C   UNL     1      44.528  -8.738   8.336  1.00  0.00     0.010 A 
BRANCH  26  29
HETATM   29  O   UNL     1      42.926  -7.489  11.446  1.00  0.00    -0.356 OA
HETATM   30  C   UNL     1      42.907  -7.988  12.777  1.00  0.00     0.210 C 
ENDBRANCH  26  29
ENDBRANCH  22  23
ENDBRANCH  21  22
ENDBRANCH  18  21
ENDBRANCH  16  17
ENDBRANCH   1  16
TORSDOF 9
ENDMDL
MODEL 3
REMARK VINA RESULT:      -8.0      2.944     10.326
REMARK  9 active torsions:
REMARK  status: ('A' for Active; 'I' for Inactive)
REMARK    1  A    between atoms: C_2  and  N_3 
REMARK    2  A    between atoms: C_4  and  S_5 
REMARK    3  A    between atoms: S_5  and  C_6 
REMARK    4  A    between atoms: C_6  and  C_7 
REMARK       I    between atoms: C_7  and  N_8 
REMARK    5  A    between atoms: N_8  and  C_9 
REMARK    6  A    between atoms: C_9  and  C_10 
REMARK    7  A    between atoms: C_10  and  C_11 
REMARK    8  A    between atoms: C_14  and  O_15 
REMARK    9  A    between atoms: C_22  and  C_23 
ROOT
HETATM    1  S   UNL     1      41.181 -11.755   4.644  1.00  0.00    -0.081 SA
ENDROOT
BRANCH   1   2
HETATM    2  C   UNL     1      41.422 -13.449   4.889  1.00  0.00     0.192 A 
HETATM    3  N   UNL     1      42.278 -14.222   4.151  1.00  0.00    -0.308 N 
HETATM    4  C   UNL     1      42.130 -15.506   4.640  1.00  0.00     0.165 A 
HETATM    5  N   UNL     1      41.240 -15.480   5.617  1.00  0.00    -0.128 NA
HETATM    6  N   UNL     1      40.802 -14.189   5.776  1.00  0.00    -0.122 NA
BRANCH   3   7
HETATM    7  C   UNL     1      43.130 -13.800   3.060  1.00  0.00     0.128 C 
HETATM    8  C   UNL     1      42.444 -13.895   1.707  1.00  0.00     0.027 C 
ENDBRANCH   3   7
BRANCH   4   9
HETATM    9  C   UNL     1      42.784 -16.708   4.121  1.00  0.00     0.018 A 
HETATM   10  C   UNL     1      43.896 -17.276   4.779  1.00  0.00    -0.048 A 
HETATM   11  C   UNL     1      44.485 -16.654   6.018  1.00  0.00     0.049 C 
HETATM   12  C   UNL     1      44.494 -18.429   4.245  1.00  0.00     0.007 A 
HETATM   13  C   UNL     1      44.000 -19.016   3.080  1.00  0.00     0.001 A 
HETATM   14  C   UNL     1      42.914 -18.448   2.422  1.00  0.00     0.001 A 
HETATM   15  C   UNL     1      42.315 -17.295   2.935  1.00  0.00     0.016 A 
ENDBRANCH   4   9
ENDBRANCH   1   2
BRANCH   1  16
HETATM   16  C   UNL     1      41.875 -11.107   6.194  1.00  0.00     0.185 C 
BRANCH  16  17
HETATM   17  C   UNL     1      43.393 -11.112   6.115  1.00  0.00     0.227 C 
HETATM   18  N   UNL     1      44.033 -11.296   7.327  1.00  0.00    -0.360 N 
HETATM   19  H   UNL     1      43.492 -11.192   8.177  1.00  0.00     0.162 HD
HETATM   20  O   UNL     1      44.001 -10.986   5.054  1.00  0.00    -0.273 OA
BRANCH  18  21
HETATM   21  C   UNL     1      45.480 -11.209   7.435  1.00  0.00     0.127 C 
BRANCH  21  22
HETATM   22  C   UNL     1      45.939  -9.807   7.835  1.00  0.00     0.058 C 
BRANCH  22  23
HETATM   23  C   UNL     1      45.058  -9.221   8.910  1.00  0.00    -0.057 A 
HETATM   24  C   UNL     1      44.981  -9.818  10.173  1.00  0.00     0.010 A 
HETATM   25  C   UNL     1      44.129  -9.294  11.148  1.00  0.00     0.037 A 
HETATM   26  C   UNL     1      43.339  -8.174  10.881  1.00  0.00     0.068 A 
HETATM   27  C   UNL     1      43.416  -7.573   9.626  1.00  0.00     0.037 A 
HETATM   28  C   UNL     1      44.269  -8.094   8.645  1.00  0.00     0.010 A 
BRANCH  26  29
HETATM   29  O   UNL     1      42.544  -7.773  11.920  1.00  0.00    -0.356 OA
HETATM   30  C   UNL     1      41.361  -7.060  11.584  1.00  0.00     0.210 C 
ENDBRANCH  26  29
ENDBRANCH  22  23
ENDBRANCH  21  22
ENDBRANCH  18  21
ENDBRANCH  16  17
ENDBRANCH   1  16
TORSDOF 9
ENDMDL
MODEL 4
REMARK VINA RESULT:      -7.9      7.242     10.474
REMARK  9 active torsions:
REMARK  status: ('A' for Active; 'I' for Inactive)
REMARK    1  A    between atoms: C_2  and  N_3 
REMARK    2  A    between atoms: C_4  and  S_5 
REMARK    3  A    between atoms: S_5  and  C_6 
REMARK    4  A    between atoms: C_6  and  C_7 
REMARK       I    between atoms: C_7  and  N_8 
REMARK    5  A    between atoms: N_8  and  C_9 
REMARK    6  A    between atoms: C_9  and  C_10 
REMARK    7  A    between atoms: C_10  and  C_11 
REMARK    8  A    between atoms: C_14  and  O_15 
REMARK    9  A    between atoms: C_22  and  C_23 
ROOT
HETATM    1  S   UNL     1      40.580 -12.907   4.437  1.00  0.00    -0.081 SA
ENDROOT
BRANCH   1   2
HETATM    2  C   UNL     1      41.691 -14.046   3.761  1.00  0.00     0.192 A 
HETATM    3  N   UNL     1      41.638 -15.397   3.975  1.00  0.00    -0.308 N 
HETATM    4  C   UNL     1      42.723 -15.921   3.297  1.00  0.00     0.165 A 
HETATM    5  N   UNL     1      43.369 -14.926   2.714  1.00  0.00    -0.128 NA
HETATM    6  N   UNL     1      42.718 -13.753   3.001  1.00  0.00    -0.122 NA
BRANCH   3   7
HETATM    7  C   UNL     1      40.677 -16.127   4.774  1.00  0.00     0.128 C 
HETATM    8  C   UNL     1      40.973 -16.054   6.262  1.00  0.00     0.027 C 
ENDBRANCH   3   7
BRANCH   4   9
HETATM    9  C   UNL     1      43.138 -17.324   3.286  1.00  0.00     0.018 A 
HETATM   10  C   UNL     1      43.940 -17.855   4.320  1.00  0.00    -0.048 A 
HETATM   11  C   UNL     1      44.435 -17.001   5.457  1.00  0.00     0.049 C 
HETATM   12  C   UNL     1      44.317 -19.207   4.269  1.00  0.00     0.007 A 
HETATM   13  C   UNL     1      43.908 -20.024   3.215  1.00  0.00     0.001 A 
HETATM   14  C   UNL     1      43.132 -19.497   2.188  1.00  0.00     0.001 A 
HETATM   15  C   UNL     1      42.757 -18.152   2.219  1.00  0.00     0.016 A 
ENDBRANCH   4   9
ENDBRANCH   1   2
BRANCH   1  16
HETATM   16  C   UNL     1      39.250 -12.988   3.202  1.00  0.00     0.185 C 
BRANCH  16  17
HETATM   17  C   UNL     1      39.851 -13.046   1.807  1.00  0.00     0.227 C 
HETATM   18  N   UNL     1      39.749 -14.278   1.186  1.00  0.00    -0.360 N 
HETATM   19  H   UNL     1      39.502 -15.081   1.751  1.00  0.00     0.162 HD
HETATM   20  O   UNL     1      40.365 -12.069   1.266  1.00  0.00    -0.273 OA
BRANCH  18  21
HETATM   21  C   UNL     1      40.377 -14.527  -0.101  1.00  0.00     0.127 C 
BRANCH  21  22
HETATM   22  C   UNL     1      39.383 -14.397  -1.255  1.00  0.00     0.058 C 
BRANCH  22  23
HETATM   23  C   UNL     1      39.445 -13.029  -1.888  1.00  0.00    -0.057 A 
HETATM   24  C   UNL     1      38.373 -12.138  -1.766  1.00  0.00     0.010 A 
HETATM   25  C   UNL     1      38.420 -10.891  -2.392  1.00  0.00     0.037 A 
HETATM   26  C   UNL     1      39.529 -10.513  -3.151  1.00  0.00     0.068 A 
HETATM   27  C   UNL     1      40.602 -11.395  -3.272  1.00  0.00     0.037 A 
HETATM   28  C   UNL     1      40.559 -12.646  -2.646  1.00  0.00     0.010 A 
BRANCH  26  29
HETATM   29  O   UNL     1      39.439  -9.270  -3.717  1.00  0.00    -0.356 OA
HETATM   30  C   UNL     1      38.490  -9.108  -4.763  1.00  0.00     0.210 C 
ENDBRANCH  26  29
ENDBRANCH  22  23
ENDBRANCH  21  22
ENDBRANCH  18  21
ENDBRANCH  16  17
ENDBRANCH   1  16
TORSDOF 9
ENDMDL
MODEL 5
REMARK VINA RESULT:      -7.6      2.768     11.279
REMARK  9 active torsions:
REMARK  status: ('A' for Active; 'I' for Inactive)
REMARK    1  A    between atoms: C_2  and  N_3 
REMARK    2  A    between atoms: C_4  and  S_5 
REMARK    3  A    between atoms: S_5  and  C_6 
REMARK    4  A    between atoms: C_6  and  C_7 
REMARK       I    between atoms: C_7  and  N_8 
REMARK    5  A    between atoms: N_8  and  C_9 
REMARK    6  A    between atoms: C_9  and  C_10 
REMARK    7  A    between atoms: C_10  and  C_11 
REMARK    8  A    between atoms: C_14  and  O_15 
REMARK    9  A    between atoms: C_22  and  C_23 
ROOT
HETATM    1  S   UNL     1      41.229 -11.263   5.936  1.00  0.00    -0.081 SA
ENDROOT
BRANCH   1   2
HETATM    2  C   UNL     1      41.262 -12.982   5.760  1.00  0.00     0.192 A 
HETATM    3  N   UNL     1      42.123 -13.658   4.937  1.00  0.00    -0.308 N 
HETATM    4  C   UNL     1      41.783 -14.991   5.062  1.00  0.00     0.165 A 
HETATM    5  N   UNL     1      40.781 -15.086   5.919  1.00  0.00    -0.128 NA
HETATM    6  N   UNL     1      40.460 -13.827   6.360  1.00  0.00    -0.122 NA
BRANCH   3   7
HETATM    7  C   UNL     1      43.148 -13.098   4.081  1.00  0.00     0.128 C 
HETATM    8  C   UNL     1      42.653 -12.824   2.672  1.00  0.00     0.027 C 
ENDBRANCH   3   7
BRANCH   4   9
HETATM    9  C   UNL     1      42.372 -16.106   4.319  1.00  0.00     0.018 A 
HETATM   10  C   UNL     1      43.503 -16.793   4.810  1.00  0.00    -0.048 A 
HETATM   11  C   UNL     1      44.177 -16.392   6.096  1.00  0.00     0.049 C 
HETATM   12  C   UNL     1      44.037 -17.856   4.064  1.00  0.00     0.007 A 
HETATM   13  C   UNL     1      43.462 -18.237   2.851  1.00  0.00     0.001 A 
HETATM   14  C   UNL     1      42.358 -17.550   2.359  1.00  0.00     0.001 A 
HETATM   15  C   UNL     1      41.821 -16.484   3.084  1.00  0.00     0.016 A 
ENDBRANCH   4   9
ENDBRANCH   1   2
BRANCH   1  16
HETATM   16  C   UNL     1      42.806 -11.001   6.803  1.00  0.00     0.185 C 
BRANCH  16  17
HETATM   17  C   UNL     1      42.680  -9.812   7.741  1.00  0.00     0.227 C 
HETATM   18  N   UNL     1      42.643 -10.140   9.085  1.00  0.00    -0.360 N 
HETATM   19  H   UNL     1      42.477 -11.106   9.339  1.00  0.00     0.162 HD
HETATM   20  O   UNL     1      42.641  -8.651   7.338  1.00  0.00    -0.273 OA
BRANCH  18  21
HETATM   21  C   UNL     1      42.409  -9.126  10.100  1.00  0.00     0.127 C 
BRANCH  21  22
HETATM   22  C   UNL     1      43.476  -9.159  11.195  1.00  0.00     0.058 C 
BRANCH  22  23
HETATM   23  C   UNL     1      42.926  -8.688  12.518  1.00  0.00    -0.057 A 
HETATM   24  C   UNL     1      43.498  -7.595  13.179  1.00  0.00     0.010 A 
HETATM   25  C   UNL     1      43.011  -7.192  14.424  1.00  0.00     0.037 A 
HETATM   26  C   UNL     1      41.954  -7.872  15.033  1.00  0.00     0.068 A 
HETATM   27  C   UNL     1      41.378  -8.959  14.377  1.00  0.00     0.037 A 
HETATM   28  C   UNL     1      41.863  -9.366  13.128  1.00  0.00     0.010 A 
BRANCH  26  29
HETATM   29  O   UNL     1      41.585  -7.380  16.255  1.00  0.00    -0.356 OA
HETATM   30  C   UNL     1      41.554  -5.965  16.395  1.00  0.00     0.210 C 
ENDBRANCH  26  29
ENDBRANCH  22  23
ENDBRANCH  21  22
ENDBRANCH  18  21
ENDBRANCH  16  17
ENDBRANCH   1  16
TORSDOF 9
ENDMDL
MODEL 6
REMARK VINA RESULT:      -7.5      3.246     10.188
REMARK  9 active torsions:
REMARK  status: ('A' for Active; 'I' for Inactive)
REMARK    1  A    between atoms: C_2  and  N_3 
REMARK    2  A    between atoms: C_4  and  S_5 
REMARK    3  A    between atoms: S_5  and  C_6 
REMARK    4  A    between atoms: C_6  and  C_7 
REMARK       I    between atoms: C_7  and  N_8 
REMARK    5  A    between atoms: N_8  and  C_9 
REMARK    6  A    between atoms: C_9  and  C_10 
REMARK    7  A    between atoms: C_10  and  C_11 
REMARK    8  A    between atoms: C_14  and  O_15 
REMARK    9  A    between atoms: C_22  and  C_23 
ROOT
HETATM    1  S   UNL     1      41.062  -9.857   4.790  1.00  0.00    -0.081 SA
ENDROOT
BRANCH   1   2
HETATM    2  C   UNL     1      42.120 -11.085   4.192  1.00  0.00     0.192 A 
HETATM    3  N   UNL     1      41.735 -12.370   3.917  1.00  0.00    -0.308 N 
HETATM    4  C   UNL     1      42.885 -13.020   3.511  1.00  0.00     0.165 A 
HETATM    5  N   UNL     1      43.885 -12.156   3.540  1.00  0.00    -0.128 NA
HETATM    6  N   UNL     1      43.403 -10.943   3.961  1.00  0.00    -0.122 NA
BRANCH   3   7
HETATM    7  C   UNL     1      40.415 -12.945   4.060  1.00  0.00     0.128 C 
HETATM    8  C   UNL     1      39.624 -12.932   2.764  1.00  0.00     0.027 C 
ENDBRANCH   3   7
BRANCH   4   9
HETATM    9  C   UNL     1      43.001 -14.441   3.178  1.00  0.00     0.018 A 
HETATM   10  C   UNL     1      43.134 -15.418   4.189  1.00  0.00    -0.048 A 
HETATM   11  C   UNL     1      43.202 -15.045   5.646  1.00  0.00     0.049 C 
HETATM   12  C   UNL     1      43.245 -16.770   3.825  1.00  0.00     0.007 A 
HETATM   13  C   UNL     1      43.221 -17.153   2.484  1.00  0.00     0.001 A 
HETATM   14  C   UNL     1      43.106 -16.190   1.488  1.00  0.00     0.001 A 
HETATM   15  C   UNL     1      43.006 -14.840   1.832  1.00  0.00     0.016 A 
ENDBRANCH   4   9
ENDBRANCH   1   2
BRANCH   1  16
HETATM   16  C   UNL     1      41.115 -10.229   6.569  1.00  0.00     0.185 C 
BRANCH  16  17
HETATM   17  C   UNL     1      42.248  -9.453   7.219  1.00  0.00     0.227 C 
HETATM   18  N   UNL     1      43.442 -10.147   7.313  1.00  0.00    -0.360 N 
HETATM   19  H   UNL     1      43.428 -11.148   7.164  1.00  0.00     0.162 HD
HETATM   20  O   UNL     1      42.120  -8.293   7.607  1.00  0.00    -0.273 OA
BRANCH  18  21
HETATM   21  C   UNL     1      44.585  -9.586   8.013  1.00  0.00     0.127 C 
BRANCH  21  22
HETATM   22  C   UNL     1      44.955 -10.404   9.250  1.00  0.00     0.058 C 
BRANCH  22  23
HETATM   23  C   UNL     1      44.210  -9.930  10.472  1.00  0.00    -0.057 A 
HETATM   24  C   UNL     1      43.700 -10.847  11.396  1.00  0.00     0.010 A 
HETATM   25  C   UNL     1      42.973 -10.402  12.503  1.00  0.00     0.037 A 
HETATM   26  C   UNL     1      42.739  -9.040  12.703  1.00  0.00     0.068 A 
HETATM   27  C   UNL     1      43.249  -8.121  11.787  1.00  0.00     0.037 A 
HETATM   28  C   UNL     1      43.979  -8.564  10.677  1.00  0.00     0.010 A 
BRANCH  26  29
HETATM   29  O   UNL     1      42.005  -8.743  13.819  1.00  0.00    -0.356 OA
HETATM   30  C   UNL     1      40.710  -9.323  13.909  1.00  0.00     0.210 C 
ENDBRANCH  26  29
ENDBRANCH  22  23
ENDBRANCH  21  22
ENDBRANCH  18  21
ENDBRANCH  16  17
ENDBRANCH   1  16
TORSDOF 9
ENDMDL
MODEL 7
REMARK VINA RESULT:      -7.5      2.771     11.108
REMARK  9 active torsions:
REMARK  status: ('A' for Active; 'I' for Inactive)
REMARK    1  A    between atoms: C_2  and  N_3 
REMARK    2  A    between atoms: C_4  and  S_5 
REMARK    3  A    between atoms: S_5  and  C_6 
REMARK    4  A    between atoms: C_6  and  C_7 
REMARK       I    between atoms: C_7  and  N_8 
REMARK    5  A    between atoms: N_8  and  C_9 
REMARK    6  A    between atoms: C_9  and  C_10 
REMARK    7  A    between atoms: C_10  and  C_11 
REMARK    8  A    between atoms: C_14  and  O_15 
REMARK    9  A    between atoms: C_22  and  C_23 
ROOT
HETATM    1  S   UNL     1      43.183 -10.462   7.188  1.00  0.00    -0.081 SA
ENDROOT
BRANCH   1   2
HETATM    2  C   UNL     1      43.309 -12.076   6.583  1.00  0.00     0.192 A 
HETATM    3  N   UNL     1      42.692 -12.525   5.446  1.00  0.00    -0.308 N 
HETATM    4  C   UNL     1      43.015 -13.866   5.356  1.00  0.00     0.165 A 
HETATM    5  N   UNL     1      43.787 -14.178   6.383  1.00  0.00    -0.128 NA
HETATM    6  N   UNL     1      43.974 -13.054   7.147  1.00  0.00    -0.122 NA
BRANCH   3   7
HETATM    7  C   UNL     1      41.844 -11.773   4.546  1.00  0.00     0.128 C 
HETATM    8  C   UNL     1      40.380 -11.802   4.954  1.00  0.00     0.027 C 
ENDBRANCH   3   7
BRANCH   4   9
HETATM    9  C   UNL     1      42.529 -14.805   4.345  1.00  0.00     0.018 A 
HETATM   10  C   UNL     1      41.353 -15.558   4.554  1.00  0.00    -0.048 A 
HETATM   11  C   UNL     1      40.569 -15.461   5.836  1.00  0.00     0.049 C 
HETATM   12  C   UNL     1      40.923 -16.449   3.558  1.00  0.00     0.007 A 
HETATM   13  C   UNL     1      41.640 -16.594   2.370  1.00  0.00     0.001 A 
HETATM   14  C   UNL     1      42.807 -15.864   2.170  1.00  0.00     0.001 A 
HETATM   15  C   UNL     1      43.254 -14.981   3.155  1.00  0.00     0.016 A 
ENDBRANCH   4   9
ENDBRANCH   1   2
BRANCH   1  16
HETATM   16  C   UNL     1      44.773 -10.323   8.058  1.00  0.00     0.185 C 
BRANCH  16  17
HETATM   17  C   UNL     1      44.539 -10.377   9.559  1.00  0.00     0.227 C 
HETATM   18  N   UNL     1      43.279  -9.971   9.961  1.00  0.00    -0.360 N 
HETATM   19  H   UNL     1      42.700  -9.473   9.296  1.00  0.00     0.162 HD
HETATM   20  O   UNL     1      45.394 -10.773  10.349  1.00  0.00    -0.273 OA
BRANCH  18  21
HETATM   21  C   UNL     1      42.939  -9.856  11.369  1.00  0.00     0.127 C 
BRANCH  21  22
HETATM   22  C   UNL     1      43.558  -8.611  12.005  1.00  0.00     0.058 C 
BRANCH  22  23
HETATM   23  C   UNL     1      42.885  -8.262  13.310  1.00  0.00    -0.057 A 
HETATM   24  C   UNL     1      41.824  -9.035  13.793  1.00  0.00     0.010 A 
HETATM   25  C   UNL     1      41.177  -8.680  14.978  1.00  0.00     0.037 A 
HETATM   26  C   UNL     1      41.573  -7.551  15.698  1.00  0.00     0.068 A 
HETATM   27  C   UNL     1      42.633  -6.780  15.223  1.00  0.00     0.037 A 
HETATM   28  C   UNL     1      43.284  -7.132  14.035  1.00  0.00     0.010 A 
BRANCH  26  29
HETATM   29  O   UNL     1      40.849  -7.313  16.834  1.00  0.00    -0.356 OA
HETATM   30  C   UNL     1      41.533  -7.452  18.072  1.00  0.00     0.210 C 
ENDBRANCH  26  29
ENDBRANCH  22  23
ENDBRANCH  21  22
ENDBRANCH  18  21
ENDBRANCH  16  17
ENDBRANCH   1  16
TORSDOF 9
ENDMDL
MODEL 8
REMARK VINA RESULT:      -7.5      5.967      9.043
REMARK  9 active torsions:
REMARK  status: ('A' for Active; 'I' for Inactive)
REMARK    1  A    between atoms: C_2  and  N_3 
REMARK    2  A    between atoms: C_4  and  S_5 
REMARK    3  A    between atoms: S_5  and  C_6 
REMARK    4  A    between atoms: C_6  and  C_7 
REMARK       I    between atoms: C_7  and  N_8 
REMARK    5  A    between atoms: N_8  and  C_9 
REMARK    6  A    between atoms: C_9  and  C_10 
REMARK    7  A    between atoms: C_10  and  C_11 
REMARK    8  A    between atoms: C_14  and  O_15 
REMARK    9  A    between atoms: C_22  and  C_23 
ROOT
HETATM    1  S   UNL     1      41.030 -11.619   5.919  1.00  0.00    -0.081 SA
ENDROOT
BRANCH   1   2
HETATM    2  C   UNL     1      41.154 -13.336   5.767  1.00  0.00     0.192 A 
HETATM    3  N   UNL     1      42.128 -13.979   5.051  1.00  0.00    -0.308 N 
HETATM    4  C   UNL     1      41.832 -15.326   5.153  1.00  0.00     0.165 A 
HETATM    5  N   UNL     1      40.746 -15.458   5.896  1.00  0.00    -0.128 NA
HETATM    6  N   UNL     1      40.327 -14.211   6.284  1.00  0.00    -0.122 NA
BRANCH   3   7
HETATM    7  C   UNL     1      43.217 -13.383   4.308  1.00  0.00     0.128 C 
HETATM    8  C   UNL     1      42.840 -13.056   2.872  1.00  0.00     0.027 C 
ENDBRANCH   3   7
BRANCH   4   9
HETATM    9  C   UNL     1      42.545 -16.419   4.492  1.00  0.00     0.018 A 
HETATM   10  C   UNL     1      42.165 -16.867   3.208  1.00  0.00    -0.048 A 
HETATM   11  C   UNL     1      40.991 -16.271   2.478  1.00  0.00     0.049 C 
HETATM   12  C   UNL     1      42.877 -17.920   2.611  1.00  0.00     0.007 A 
HETATM   13  C   UNL     1      43.949 -18.522   3.269  1.00  0.00     0.001 A 
HETATM   14  C   UNL     1      44.314 -18.092   4.540  1.00  0.00     0.001 A 
HETATM   15  C   UNL     1      43.610 -17.052   5.152  1.00  0.00     0.016 A 
ENDBRANCH   4   9
ENDBRANCH   1   2
BRANCH   1  16
HETATM   16  C   UNL     1      39.223 -11.426   5.900  1.00  0.00     0.185 C 
BRANCH  16  17
HETATM   17  C   UNL     1      38.796 -10.751   4.607  1.00  0.00     0.227 C 
HETATM   18  N   UNL     1      38.957 -11.525   3.472  1.00  0.00    -0.360 N 
HETATM   19  H   UNL     1      39.531 -12.357   3.536  1.00  0.00     0.162 HD
HETATM   20  O   UNL     1      38.322  -9.617   4.577  1.00  0.00    -0.273 OA
BRANCH  18  21
HETATM   21  C   UNL     1      38.704 -10.982   2.148  1.00  0.00     0.127 C 
BRANCH  21  22
HETATM   22  C   UNL     1      39.905 -11.162   1.218  1.00  0.00     0.058 C 
BRANCH  22  23
HETATM   23  C   UNL     1      39.650 -12.232   0.186  1.00  0.00    -0.057 A 
HETATM   24  C   UNL     1      38.861 -11.965  -0.938  1.00  0.00     0.010 A 
HETATM   25  C   UNL     1      38.594 -12.973  -1.867  1.00  0.00     0.037 A 
HETATM   26  C   UNL     1      39.102 -14.261  -1.689  1.00  0.00     0.068 A 
HETATM   27  C   UNL     1      39.892 -14.532  -0.573  1.00  0.00     0.037 A 
HETATM   28  C   UNL     1      40.163 -13.524   0.360  1.00  0.00     0.010 A 
BRANCH  26  29
HETATM   29  O   UNL     1      38.755 -15.153  -2.667  1.00  0.00    -0.356 OA
HETATM   30  C   UNL     1      37.948 -14.660  -3.729  1.00  0.00     0.210 C 
ENDBRANCH  26  29
ENDBRANCH  22  23
ENDBRANCH  21  22
ENDBRANCH  18  21
ENDBRANCH  16  17
ENDBRANCH   1  16
TORSDOF 9
ENDMDL
MODEL 9
REMARK VINA RESULT:      -7.3      2.622     11.113
REMARK  9 active torsions:
REMARK  status: ('A' for Active; 'I' for Inactive)
REMARK    1  A    between atoms: C_2  and  N_3 
REMARK    2  A    between atoms: C_4  and  S_5 
REMARK    3  A    between atoms: S_5  and  C_6 
REMARK    4  A    between atoms: C_6  and  C_7 
REMARK       I    between atoms: C_7  and  N_8 
REMARK    5  A    between atoms: N_8  and  C_9 
REMARK    6  A    between atoms: C_9  and  C_10 
REMARK    7  A    between atoms: C_10  and  C_11 
REMARK    8  A    between atoms: C_14  and  O_15 
REMARK    9  A    between atoms: C_22  and  C_23 
ROOT
HETATM    1  S   UNL     1      42.576 -10.667   6.680  1.00  0.00    -0.081 SA
ENDROOT
BRANCH   1   2
HETATM    2  C   UNL     1      42.622 -11.617   5.237  1.00  0.00     0.192 A 
HETATM    3  N   UNL     1      42.257 -12.935   5.168  1.00  0.00    -0.308 N 
HETATM    4  C   UNL     1      42.487 -13.313   3.858  1.00  0.00     0.165 A 
HETATM    5  N   UNL     1      42.954 -12.267   3.199  1.00  0.00    -0.128 NA
HETATM    6  N   UNL     1      43.032 -11.204   4.063  1.00  0.00    -0.122 NA
BRANCH   3   7
HETATM    7  C   UNL     1      41.772 -13.774   6.243  1.00  0.00     0.128 C 
HETATM    8  C   UNL     1      42.891 -14.480   6.989  1.00  0.00     0.027 C 
ENDBRANCH   3   7
BRANCH   4   9
HETATM    9  C   UNL     1      42.320 -14.658   3.306  1.00  0.00     0.018 A 
HETATM   10  C   UNL     1      41.096 -15.063   2.731  1.00  0.00    -0.048 A 
HETATM   11  C   UNL     1      39.899 -14.151   2.692  1.00  0.00     0.049 C 
HETATM   12  C   UNL     1      40.979 -16.364   2.214  1.00  0.00     0.007 A 
HETATM   13  C   UNL     1      42.054 -17.251   2.262  1.00  0.00     0.001 A 
HETATM   14  C   UNL     1      43.254 -16.858   2.843  1.00  0.00     0.001 A 
HETATM   15  C   UNL     1      43.384 -15.571   3.371  1.00  0.00     0.016 A 
ENDBRANCH   4   9
ENDBRANCH   1   2
BRANCH   1  16
HETATM   16  C   UNL     1      44.352 -10.578   7.059  1.00  0.00     0.185 C 
BRANCH  16  17
HETATM   17  C   UNL     1      44.558 -10.683   8.562  1.00  0.00     0.227 C 
HETATM   18  N   UNL     1      43.424 -10.446   9.317  1.00  0.00    -0.360 N 
HETATM   19  H   UNL     1      42.627 -10.016   8.865  1.00  0.00     0.162 HD
HETATM   20  O   UNL     1      45.642 -10.979   9.062  1.00  0.00    -0.273 OA
BRANCH  18  21
HETATM   21  C   UNL     1      43.484 -10.395  10.768  1.00  0.00     0.127 C 
BRANCH  21  22
HETATM   22  C   UNL     1      43.912  -9.017  11.274  1.00  0.00     0.058 C 
BRANCH  22  23
HETATM   23  C   UNL     1      42.974  -8.501  12.337  1.00  0.00    -0.057 A 
HETATM   24  C   UNL     1      42.551  -7.167  12.327  1.00  0.00     0.010 A 
HETATM   25  C   UNL     1      41.717  -6.686  13.339  1.00  0.00     0.037 A 
HETATM   26  C   UNL     1      41.297  -7.520  14.376  1.00  0.00     0.068 A 
HETATM   27  C   UNL     1      41.712  -8.851  14.388  1.00  0.00     0.037 A 
HETATM   28  C   UNL     1      42.547  -9.338  13.375  1.00  0.00     0.010 A 
BRANCH  26  29
HETATM   29  O   UNL     1      40.493  -6.918  15.305  1.00  0.00    -0.356 OA
HETATM   30  C   UNL     1      40.927  -6.969  16.658  1.00  0.00     0.210 C 
ENDBRANCH  26  29
ENDBRANCH  22  23
ENDBRANCH  21  22
ENDBRANCH  18  21
ENDBRANCH  16  17
ENDBRANCH   1  16
TORSDOF 9
ENDMDL
MODEL 10
REMARK VINA RESULT:      -7.3      8.008     11.606
REMARK  9 active torsions:
REMARK  status: ('A' for Active; 'I' for Inactive)
REMARK    1  A    between atoms: C_2  and  N_3 
REMARK    2  A    between atoms: C_4  and  S_5 
REMARK    3  A    between atoms: S_5  and  C_6 
REMARK    4  A    between atoms: C_6  and  C_7 
REMARK       I    between atoms: C_7  and  N_8 
REMARK    5  A    between atoms: N_8  and  C_9 
REMARK    6  A    between atoms: C_9  and  C_10 
REMARK    7  A    between atoms: C_10  and  C_11 
REMARK    8  A    between atoms: C_14  and  O_15 
REMARK    9  A    between atoms: C_22  and  C_23 
ROOT
HETATM    1  S   UNL     1      40.590 -13.074   0.348  1.00  0.00    -0.081 SA
ENDROOT
BRANCH   1   2
HETATM    2  C   UNL     1      40.756 -14.532   1.260  1.00  0.00     0.192 A 
HETATM    3  N   UNL     1      41.915 -14.937   1.867  1.00  0.00    -0.308 N 
HETATM    4  C   UNL     1      41.624 -16.160   2.440  1.00  0.00     0.165 A 
HETATM    5  N   UNL     1      40.359 -16.449   2.186  1.00  0.00    -0.128 NA
HETATM    6  N   UNL     1      39.815 -15.425   1.452  1.00  0.00    -0.122 NA
BRANCH   3   7
HETATM    7  C   UNL     1      43.191 -14.254   1.875  1.00  0.00     0.128 C 
HETATM    8  C   UNL     1      43.276 -13.178   2.945  1.00  0.00     0.027 C 
ENDBRANCH   3   7
BRANCH   4   9
HETATM    9  C   UNL     1      42.568 -17.031   3.141  1.00  0.00     0.018 A 
HETATM   10  C   UNL     1      42.783 -16.905   4.531  1.00  0.00    -0.048 A 
HETATM   11  C   UNL     1      42.083 -15.850   5.347  1.00  0.00     0.049 C 
HETATM   12  C   UNL     1      43.700 -17.760   5.164  1.00  0.00     0.007 A 
HETATM   13  C   UNL     1      44.393 -18.727   4.437  1.00  0.00     0.001 A 
HETATM   14  C   UNL     1      44.195 -18.842   3.066  1.00  0.00     0.001 A 
HETATM   15  C   UNL     1      43.294 -17.992   2.420  1.00  0.00     0.016 A 
ENDBRANCH   4   9
ENDBRANCH   1   2
BRANCH   1  16
HETATM   16  C   UNL     1      40.056 -13.757  -1.250  1.00  0.00     0.185 C 
BRANCH  16  17
HETATM   17  C   UNL     1      40.549 -12.863  -2.377  1.00  0.00     0.227 C 
HETATM   18  N   UNL     1      40.456 -11.507  -2.120  1.00  0.00    -0.360 N 
HETATM   19  H   UNL     1      39.885 -11.205  -1.340  1.00  0.00     0.162 HD
HETATM   20  O   UNL     1      41.017 -13.312  -3.422  1.00  0.00    -0.273 OA
BRANCH  18  21
HETATM   21  C   UNL     1      40.778 -10.524  -3.141  1.00  0.00     0.127 C 
BRANCH  21  22
HETATM   22  C   UNL     1      40.273  -9.130  -2.770  1.00  0.00     0.058 C 
BRANCH  22  23
HETATM   23  C   UNL     1      41.413  -8.187  -2.477  1.00  0.00    -0.057 A 
HETATM   24  C   UNL     1      42.166  -7.634  -3.518  1.00  0.00     0.010 A 
HETATM   25  C   UNL     1      43.248  -6.797  -3.237  1.00  0.00     0.037 A 
HETATM   26  C   UNL     1      43.599  -6.501  -1.918  1.00  0.00     0.068 A 
HETATM   27  C   UNL     1      42.849  -7.045  -0.877  1.00  0.00     0.037 A 
HETATM   28  C   UNL     1      41.764  -7.885  -1.155  1.00  0.00     0.010 A 
BRANCH  26  29
HETATM   29  O   UNL     1      44.684  -5.678  -1.786  1.00  0.00    -0.356 OA
HETATM   30  C   UNL     1      44.584  -4.634  -0.826  1.00  0.00     0.210 C 
ENDBRANCH  26  29
ENDBRANCH  22  23
ENDBRANCH  21  22
ENDBRANCH  18  21
ENDBRANCH  16  17
ENDBRANCH   1  16
TORSDOF 9
ENDMDL
