MODEL 1
REMARK VINA RESULT:      -8.2      0.000      0.000
REMARK  8 active torsions:
REMARK  status: ('A' for Active; 'I' for Inactive)
REMARK    1  A    between atoms: C_7  and  C_8 
REMARK    2  A    between atoms: C_8  and  C_9 
REMARK    3  A    between atoms: C_9  and  N_10 
REMARK       I    between atoms: N_10  and  C_11 
REMARK    4  A    between atoms: C_11  and  C_12 
REMARK    5  A    between atoms: C_12  and  S_13 
REMARK    6  A    between atoms: S_13  and  C_14 
REMARK    7  A    between atoms: C_23  and  O_24 
REMARK    8  A    between atoms: O_24  and  C_25 
ROOT
HETATM    1  C   UNL     1      40.608 -12.880   4.984  1.00  0.00     0.068 C 
HETATM    2  C   UNL     1      41.391 -14.113   4.706  1.00  0.00     0.013 A 
HETATM    3  N   UNL     1      41.275 -14.789   3.519  1.00  0.00    -0.359 N 
HETATM    4  H   UNL     1      40.672 -14.520   2.753  1.00  0.00     0.166 HD
HETATM    5  C   UNL     1      42.088 -15.898   3.513  1.00  0.00     0.043 A 
HETATM    6  C   UNL     1      42.755 -15.924   4.734  1.00  0.00     0.002 A 
HETATM    7  C   UNL     1      42.314 -14.789   5.489  1.00  0.00    -0.022 A 
HETATM    8  C   UNL     1      42.282 -16.871   2.527  1.00  0.00     0.033 A 
HETATM    9  C   UNL     1      43.183 -17.908   2.798  1.00  0.00     0.039 A 
HETATM   10  C   UNL     1      43.868 -17.971   4.010  1.00  0.00     0.077 A 
HETATM   11  C   UNL     1      43.660 -16.977   4.979  1.00  0.00     0.051 A 
ENDROOT
BRANCH   7  12
HETATM   12  C   UNL     1      42.754 -14.411   6.871  1.00  0.00     0.061 C 
BRANCH  12  13
HETATM   13  C   UNL     1      43.926 -13.427   6.849  1.00  0.00     0.127 C 
BRANCH  13  14
HETATM   14  N   UNL     1      43.641 -12.199   7.566  1.00  0.00    -0.360 N 
HETATM   15  C   UNL     1      44.446 -11.086   7.439  1.00  0.00     0.227 C 
HETATM   16  O   UNL     1      45.506 -11.090   6.818  1.00  0.00    -0.273 OA
HETATM   17  H   UNL     1      42.673 -12.014   7.836  1.00  0.00     0.162 HD
BRANCH  15  18
HETATM   18  C   UNL     1      43.922  -9.851   8.148  1.00  0.00     0.183 C 
BRANCH  18  19
HETATM   19  S   UNL     1      44.945  -9.457   9.590  1.00  0.00    -0.098 SA
BRANCH  19  20
HETATM   20  C   UNL     1      44.050 -10.156  10.905  1.00  0.00     0.134 A 
HETATM   21  N   UNL     1      44.248 -11.389  11.390  1.00  0.00    -0.149 NA
HETATM   22  N   UNL     1      43.335 -11.425  12.384  1.00  0.00    -0.196 N 
HETATM   23  H   UNL     1      43.232 -12.246  12.976  1.00  0.00     0.213 HD
HETATM   24  N   UNL     1      42.557 -10.346  12.568  1.00  0.00    -0.167 NA
HETATM   25  C   UNL     1      43.017  -9.526  11.616  1.00  0.00     0.180 A 
ENDBRANCH  19  20
ENDBRANCH  18  19
ENDBRANCH  15  18
ENDBRANCH  13  14
ENDBRANCH  12  13
ENDBRANCH   7  12
BRANCH  10  26
HETATM   26  O   UNL     1      44.764 -18.933   4.386  1.00  0.00    -0.270 OA
BRANCH  26  27
HETATM   27  C   UNL     1      44.269 -20.217   4.743  1.00  0.00     0.447 C 
HETATM   28 CL   UNL     1      43.703 -21.052   3.293  1.00  0.00    -0.014 Cl
HETATM   29  F   UNL     1      45.250 -20.944   5.334  1.00  0.00    -0.159 F 
HETATM   30  F   UNL     1      43.247 -20.090   5.626  1.00  0.00    -0.159 F 
ENDBRANCH  26  27
ENDBRANCH  10  26
TORSDOF 8
ENDMDL
MODEL 2
REMARK VINA RESULT:      -8.1      2.909      4.034
REMARK  8 active torsions:
REMARK  status: ('A' for Active; 'I' for Inactive)
REMARK    1  A    between atoms: C_7  and  C_8 
REMARK    2  A    between atoms: C_8  and  C_9 
REMARK    3  A    between atoms: C_9  and  N_10 
REMARK       I    between atoms: N_10  and  C_11 
REMARK    4  A    between atoms: C_11  and  C_12 
REMARK    5  A    between atoms: C_12  and  S_13 
REMARK    6  A    between atoms: S_13  and  C_14 
REMARK    7  A    between atoms: C_23  and  O_24 
REMARK    8  A    between atoms: O_24  and  C_25 
ROOT
HETATM    1  C   UNL     1      39.702 -13.231   4.347  1.00  0.00     0.068 C 
HETATM    2  C   UNL     1      40.614 -14.393   4.174  1.00  0.00     0.013 A 
HETATM    3  N   UNL     1      41.142 -15.062   5.248  1.00  0.00    -0.359 N 
HETATM    4  H   UNL     1      40.964 -14.838   6.217  1.00  0.00     0.166 HD
HETATM    5  C   UNL     1      41.961 -16.082   4.825  1.00  0.00     0.043 A 
HETATM    6  C   UNL     1      41.946 -16.072   3.434  1.00  0.00     0.002 A 
HETATM    7  C   UNL     1      41.089 -15.000   3.021  1.00  0.00    -0.022 A 
HETATM    8  C   UNL     1      42.706 -17.007   5.564  1.00  0.00     0.033 A 
HETATM    9  C   UNL     1      43.467 -17.949   4.859  1.00  0.00     0.039 A 
HETATM   10  C   UNL     1      43.480 -17.968   3.466  1.00  0.00     0.077 A 
HETATM   11  C   UNL     1      42.717 -17.033   2.749  1.00  0.00     0.051 A 
ENDROOT
BRANCH   7  12
HETATM   12  C   UNL     1      40.776 -14.600   1.611  1.00  0.00     0.061 C 
BRANCH  12  13
HETATM   13  C   UNL     1      41.485 -13.303   1.214  1.00  0.00     0.127 C 
BRANCH  13  14
HETATM   14  N   UNL     1      42.589 -12.975   2.097  1.00  0.00    -0.360 N 
HETATM   15  C   UNL     1      42.695 -11.734   2.688  1.00  0.00     0.227 C 
HETATM   16  O   UNL     1      41.946 -10.796   2.424  1.00  0.00    -0.273 OA
HETATM   17  H   UNL     1      43.052 -13.740   2.590  1.00  0.00     0.162 HD
BRANCH  15  18
HETATM   18  C   UNL     1      43.831 -11.611   3.687  1.00  0.00     0.183 C 
BRANCH  18  19
HETATM   19  S   UNL     1      43.268 -12.040   5.354  1.00  0.00    -0.098 SA
BRANCH  19  20
HETATM   20  C   UNL     1      44.579 -11.499   6.359  1.00  0.00     0.134 A 
HETATM   21  N   UNL     1      45.801 -11.183   5.911  1.00  0.00    -0.149 NA
HETATM   22  N   UNL     1      46.410 -10.819   7.059  1.00  0.00    -0.196 N 
HETATM   23  H   UNL     1      47.377 -10.501   7.066  1.00  0.00     0.213 HD
HETATM   24  N   UNL     1      45.706 -10.892   8.200  1.00  0.00    -0.167 NA
HETATM   25  C   UNL     1      44.524 -11.330   7.751  1.00  0.00     0.180 A 
ENDBRANCH  19  20
ENDBRANCH  18  19
ENDBRANCH  15  18
ENDBRANCH  13  14
ENDBRANCH  12  13
ENDBRANCH   7  12
BRANCH  10  26
HETATM   26  O   UNL     1      44.184 -18.834   2.673  1.00  0.00    -0.270 OA
BRANCH  26  27
HETATM   27  C   UNL     1      43.620 -20.108   2.396  1.00  0.00     0.447 C 
HETATM   28 CL   UNL     1      43.783 -21.143   3.819  1.00  0.00    -0.014 Cl
HETATM   29  F   UNL     1      42.308 -19.976   2.078  1.00  0.00    -0.159 F 
HETATM   30  F   UNL     1      44.256 -20.677   1.341  1.00  0.00    -0.159 F 
ENDBRANCH  26  27
ENDBRANCH  10  26
TORSDOF 8
ENDMDL
MODEL 3
REMARK VINA RESULT:      -8.1      5.810      9.220
REMARK  8 active torsions:
REMARK  status: ('A' for Active; 'I' for Inactive)
REMARK    1  A    between atoms: C_7  and  C_8 
REMARK    2  A    between atoms: C_8  and  C_9 
REMARK    3  A    between atoms: C_9  and  N_10 
REMARK       I    between atoms: N_10  and  C_11 
REMARK    4  A    between atoms: C_11  and  C_12 
REMARK    5  A    between atoms: C_12  and  S_13 
REMARK    6  A    between atoms: S_13  and  C_14 
REMARK    7  A    between atoms: C_23  and  O_24 
REMARK    8  A    between atoms: O_24  and  C_25 
ROOT
HETATM    1  C   UNL     1      43.670 -19.177   2.637  1.00  0.00     0.068 C 
HETATM    2  C   UNL     1      43.534 -18.014   3.554  1.00  0.00     0.013 A 
HETATM    3  N   UNL     1      43.656 -18.148   4.913  1.00  0.00    -0.359 N 
HETATM    4  H   UNL     1      43.845 -19.016   5.397  1.00  0.00     0.166 HD
HETATM    5  C   UNL     1      43.476 -16.936   5.535  1.00  0.00     0.043 A 
HETATM    6  C   UNL     1      43.242 -15.993   4.539  1.00  0.00     0.002 A 
HETATM    7  C   UNL     1      43.282 -16.678   3.281  1.00  0.00    -0.022 A 
HETATM    8  C   UNL     1      43.503 -16.606   6.895  1.00  0.00     0.033 A 
HETATM    9  C   UNL     1      43.278 -15.270   7.249  1.00  0.00     0.039 A 
HETATM   10  C   UNL     1      43.038 -14.297   6.280  1.00  0.00     0.077 A 
HETATM   11  C   UNL     1      43.024 -14.655   4.923  1.00  0.00     0.051 A 
ENDROOT
BRANCH   7  12
HETATM   12  C   UNL     1      43.075 -16.070   1.927  1.00  0.00     0.061 C 
BRANCH  12  13
HETATM   13  C   UNL     1      41.596 -15.802   1.641  1.00  0.00     0.127 C 
BRANCH  13  14
HETATM   14  N   UNL     1      41.397 -14.798   0.611  1.00  0.00    -0.360 N 
HETATM   15  C   UNL     1      40.787 -13.593   0.888  1.00  0.00     0.227 C 
HETATM   16  O   UNL     1      40.271 -13.333   1.972  1.00  0.00    -0.273 OA
HETATM   17  H   UNL     1      42.033 -14.798  -0.187  1.00  0.00     0.162 HD
BRANCH  15  18
HETATM   18  C   UNL     1      40.788 -12.611  -0.269  1.00  0.00     0.183 C 
BRANCH  18  19
HETATM   19  S   UNL     1      39.102 -12.314  -0.860  1.00  0.00    -0.098 SA
BRANCH  19  20
HETATM   20  C   UNL     1      38.823 -13.653  -1.931  1.00  0.00     0.134 A 
HETATM   21  N   UNL     1      39.005 -14.940  -1.605  1.00  0.00    -0.149 NA
HETATM   22  N   UNL     1      38.638 -15.551  -2.751  1.00  0.00    -0.196 N 
HETATM   23  H   UNL     1      38.649 -16.566  -2.835  1.00  0.00     0.213 HD
HETATM   24  N   UNL     1      38.260 -14.783  -3.786  1.00  0.00    -0.167 NA
HETATM   25  C   UNL     1      38.378 -13.558  -3.259  1.00  0.00     0.180 A 
ENDBRANCH  19  20
ENDBRANCH  18  19
ENDBRANCH  15  18
ENDBRANCH  13  14
ENDBRANCH  12  13
ENDBRANCH   7  12
BRANCH  10  26
HETATM   26  O   UNL     1      42.803 -12.968   6.506  1.00  0.00    -0.270 OA
BRANCH  26  27
HETATM   27  C   UNL     1      43.906 -12.072   6.483  1.00  0.00     0.447 C 
HETATM   28 CL   UNL     1      43.690 -10.844   7.735  1.00  0.00    -0.014 Cl
HETATM   29  F   UNL     1      45.059 -12.750   6.705  1.00  0.00    -0.159 F 
HETATM   30  F   UNL     1      43.993 -11.476   5.268  1.00  0.00    -0.159 F 
ENDBRANCH  26  27
ENDBRANCH  10  26
TORSDOF 8
ENDMDL
MODEL 4
REMARK VINA RESULT:      -8.0      3.249      3.944
REMARK  8 active torsions:
REMARK  status: ('A' for Active; 'I' for Inactive)
REMARK    1  A    between atoms: C_7  and  C_8 
REMARK    2  A    between atoms: C_8  and  C_9 
REMARK    3  A    between atoms: C_9  and  N_10 
REMARK       I    between atoms: N_10  and  C_11 
REMARK    4  A    between atoms: C_11  and  C_12 
REMARK    5  A    between atoms: C_12  and  S_13 
REMARK    6  A    between atoms: S_13  and  C_14 
REMARK    7  A    between atoms: C_23  and  O_24 
REMARK    8  A    between atoms: O_24  and  C_25 
ROOT
HETATM    1  C   UNL     1      44.214 -16.678   7.860  1.00  0.00     0.068 C 
HETATM    2  C   UNL     1      43.764 -16.496   6.454  1.00  0.00     0.013 A 
HETATM    3  N   UNL     1      43.948 -17.469   5.505  1.00  0.00    -0.359 N 
HETATM    4  H   UNL     1      44.386 -18.365   5.669  1.00  0.00     0.166 HD
HETATM    5  C   UNL     1      43.461 -17.055   4.288  1.00  0.00     0.043 A 
HETATM    6  C   UNL     1      42.938 -15.778   4.468  1.00  0.00     0.002 A 
HETATM    7  C   UNL     1      43.128 -15.426   5.844  1.00  0.00    -0.022 A 
HETATM    8  C   UNL     1      43.445 -17.710   3.052  1.00  0.00     0.033 A 
HETATM    9  C   UNL     1      42.879 -17.036   1.962  1.00  0.00     0.039 A 
HETATM   10  C   UNL     1      42.347 -15.755   2.101  1.00  0.00     0.077 A 
HETATM   11  C   UNL     1      42.371 -15.125   3.355  1.00  0.00     0.051 A 
ENDROOT
BRANCH   7  12
HETATM   12  C   UNL     1      42.730 -14.137   6.498  1.00  0.00     0.061 C 
BRANCH  12  13
HETATM   13  C   UNL     1      43.523 -12.949   5.950  1.00  0.00     0.127 C 
BRANCH  13  14
HETATM   14  N   UNL     1      44.362 -12.322   6.955  1.00  0.00    -0.360 N 
HETATM   15  C   UNL     1      45.328 -11.398   6.613  1.00  0.00     0.227 C 
HETATM   16  O   UNL     1      45.625 -11.133   5.451  1.00  0.00    -0.273 OA
HETATM   17  H   UNL     1      43.998 -12.249   7.905  1.00  0.00     0.162 HD
BRANCH  15  18
HETATM   18  C   UNL     1      46.013 -10.743   7.798  1.00  0.00     0.183 C 
BRANCH  18  19
HETATM   19  S   UNL     1      45.095  -9.280   8.341  1.00  0.00    -0.098 SA
BRANCH  19  20
HETATM   20  C   UNL     1      44.171  -9.875   9.686  1.00  0.00     0.134 A 
HETATM   21  N   UNL     1      44.134 -11.156  10.076  1.00  0.00    -0.149 NA
HETATM   22  N   UNL     1      43.312 -11.077  11.144  1.00  0.00    -0.196 N 
HETATM   23  H   UNL     1      43.079 -11.902  11.693  1.00  0.00     0.213 HD
HETATM   24  N   UNL     1      42.801  -9.876  11.462  1.00  0.00    -0.167 NA
HETATM   25  C   UNL     1      43.354  -9.100  10.524  1.00  0.00     0.180 A 
ENDBRANCH  19  20
ENDBRANCH  18  19
ENDBRANCH  15  18
ENDBRANCH  13  14
ENDBRANCH  12  13
ENDBRANCH   7  12
BRANCH  10  26
HETATM   26  O   UNL     1      41.776 -15.002   1.112  1.00  0.00    -0.270 OA
BRANCH  26  27
HETATM   27  C   UNL     1      40.362 -15.035   0.968  1.00  0.00     0.447 C 
HETATM   28 CL   UNL     1      39.663 -13.595   1.715  1.00  0.00    -0.014 Cl
HETATM   29  F   UNL     1      40.031 -15.072  -0.347  1.00  0.00    -0.159 F 
HETATM   30  F   UNL     1      39.862 -16.147   1.562  1.00  0.00    -0.159 F 
ENDBRANCH  26  27
ENDBRANCH  10  26
TORSDOF 8
ENDMDL
MODEL 5
REMARK VINA RESULT:      -7.8      4.597      8.206
REMARK  8 active torsions:
REMARK  status: ('A' for Active; 'I' for Inactive)
REMARK    1  A    between atoms: C_7  and  C_8 
REMARK    2  A    between atoms: C_8  and  C_9 
REMARK    3  A    between atoms: C_9  and  N_10 
REMARK       I    between atoms: N_10  and  C_11 
REMARK    4  A    between atoms: C_11  and  C_12 
REMARK    5  A    between atoms: C_12  and  S_13 
REMARK    6  A    between atoms: S_13  and  C_14 
REMARK    7  A    between atoms: C_23  and  O_24 
REMARK    8  A    between atoms: O_24  and  C_25 
ROOT
HETATM    1  C   UNL     1      43.603 -10.835   6.848  1.00  0.00     0.068 C 
HETATM    2  C   UNL     1      43.261 -12.168   6.285  1.00  0.00     0.013 A 
HETATM    3  N   UNL     1      42.870 -13.211   7.085  1.00  0.00    -0.359 N 
HETATM    4  H   UNL     1      42.780 -13.169   8.091  1.00  0.00     0.166 HD
HETATM    5  C   UNL     1      42.626 -14.333   6.330  1.00  0.00     0.043 A 
HETATM    6  C   UNL     1      42.857 -13.993   5.001  1.00  0.00     0.002 A 
HETATM    7  C   UNL     1      43.258 -12.617   4.973  1.00  0.00    -0.022 A 
HETATM    8  C   UNL     1      42.220 -15.614   6.721  1.00  0.00     0.033 A 
HETATM    9  C   UNL     1      42.050 -16.580   5.722  1.00  0.00     0.039 A 
HETATM   10  C   UNL     1      42.274 -16.279   4.380  1.00  0.00     0.077 A 
HETATM   11  C   UNL     1      42.674 -14.984   4.015  1.00  0.00     0.051 A 
ENDROOT
BRANCH   7  12
HETATM   12  C   UNL     1      43.620 -11.818   3.758  1.00  0.00     0.061 C 
BRANCH  12  13
HETATM   13  C   UNL     1      42.408 -11.095   3.167  1.00  0.00     0.127 C 
BRANCH  13  14
HETATM   14  N   UNL     1      42.101 -11.526   1.816  1.00  0.00    -0.360 N 
HETATM   15  C   UNL     1      41.044 -12.371   1.551  1.00  0.00     0.227 C 
HETATM   16  O   UNL     1      40.372 -12.905   2.431  1.00  0.00    -0.273 OA
HETATM   17  H   UNL     1      42.388 -10.923   1.044  1.00  0.00     0.162 HD
BRANCH  15  18
HETATM   18  C   UNL     1      40.784 -12.605   0.075  1.00  0.00     0.183 C 
BRANCH  18  19
HETATM   19  S   UNL     1      40.040 -14.234  -0.196  1.00  0.00    -0.098 SA
BRANCH  19  20
HETATM   20  C   UNL     1      39.278 -14.062  -1.747  1.00  0.00     0.134 A 
HETATM   21  N   UNL     1      38.965 -12.890  -2.316  1.00  0.00    -0.149 NA
HETATM   22  N   UNL     1      38.430 -13.304  -3.484  1.00  0.00    -0.196 N 
HETATM   23  H   UNL     1      38.092 -12.638  -4.176  1.00  0.00     0.213 HD
HETATM   24  N   UNL     1      38.349 -14.626  -3.710  1.00  0.00    -0.167 NA
HETATM   25  C   UNL     1      38.896 -15.116  -2.592  1.00  0.00     0.180 A 
ENDBRANCH  19  20
ENDBRANCH  18  19
ENDBRANCH  15  18
ENDBRANCH  13  14
ENDBRANCH  12  13
ENDBRANCH   7  12
BRANCH  10  26
HETATM   26  O   UNL     1      42.144 -17.137   3.323  1.00  0.00    -0.270 OA
BRANCH  26  27
HETATM   27  C   UNL     1      43.321 -17.703   2.761  1.00  0.00     0.447 C 
HETATM   28 CL   UNL     1      42.946 -19.295   2.094  1.00  0.00    -0.014 Cl
HETATM   29  F   UNL     1      43.799 -16.899   1.779  1.00  0.00    -0.159 F 
HETATM   30  F   UNL     1      44.279 -17.820   3.714  1.00  0.00    -0.159 F 
ENDBRANCH  26  27
ENDBRANCH  10  26
TORSDOF 8
ENDMDL
MODEL 6
REMARK VINA RESULT:      -7.7      4.790      6.812
REMARK  8 active torsions:
REMARK  status: ('A' for Active; 'I' for Inactive)
REMARK    1  A    between atoms: C_7  and  C_8 
REMARK    2  A    between atoms: C_8  and  C_9 
REMARK    3  A    between atoms: C_9  and  N_10 
REMARK       I    between atoms: N_10  and  C_11 
REMARK    4  A    between atoms: C_11  and  C_12 
REMARK    5  A    between atoms: C_12  and  S_13 
REMARK    6  A    between atoms: S_13  and  C_14 
REMARK    7  A    between atoms: C_23  and  O_24 
REMARK    8  A    between atoms: O_24  and  C_25 
ROOT
HETATM    1  C   UNL     1      43.696 -19.333   2.314  1.00  0.00     0.068 C 
HETATM    2  C   UNL     1      43.568 -18.256   3.331  1.00  0.00     0.013 A 
HETATM    3  N   UNL     1      43.788 -18.491   4.664  1.00  0.00    -0.359 N 
HETATM    4  H   UNL     1      44.052 -19.383   5.061  1.00  0.00     0.166 HD
HETATM    5  C   UNL     1      43.592 -17.344   5.395  1.00  0.00     0.043 A 
HETATM    6  C   UNL     1      43.246 -16.339   4.497  1.00  0.00     0.002 A 
HETATM    7  C   UNL     1      43.233 -16.918   3.187  1.00  0.00    -0.022 A 
HETATM    8  C   UNL     1      43.696 -17.122   6.772  1.00  0.00     0.033 A 
HETATM    9  C   UNL     1      43.431 -15.832   7.250  1.00  0.00     0.039 A 
HETATM   10  C   UNL     1      43.078 -14.800   6.383  1.00  0.00     0.077 A 
HETATM   11  C   UNL     1      42.989 -15.049   5.005  1.00  0.00     0.051 A 
ENDROOT
BRANCH   7  12
HETATM   12  C   UNL     1      42.905 -16.217   1.904  1.00  0.00     0.061 C 
BRANCH  12  13
HETATM   13  C   UNL     1      41.423 -15.844   1.819  1.00  0.00     0.127 C 
BRANCH  13  14
HETATM   14  N   UNL     1      41.192 -14.419   1.973  1.00  0.00    -0.360 N 
HETATM   15  C   UNL     1      40.708 -13.652   0.934  1.00  0.00     0.227 C 
HETATM   16  O   UNL     1      40.554 -14.083  -0.206  1.00  0.00    -0.273 OA
HETATM   17  H   UNL     1      41.004 -14.062   2.910  1.00  0.00     0.162 HD
BRANCH  15  18
HETATM   18  C   UNL     1      40.396 -12.215   1.311  1.00  0.00     0.183 C 
BRANCH  18  19
HETATM   19  S   UNL     1      38.871 -12.125   2.284  1.00  0.00    -0.098 SA
BRANCH  19  20
HETATM   20  C   UNL     1      39.455 -12.059   3.919  1.00  0.00     0.134 A 
HETATM   21  N   UNL     1      39.895 -13.117   4.613  1.00  0.00    -0.149 NA
HETATM   22  N   UNL     1      40.239 -12.534   5.781  1.00  0.00    -0.196 N 
HETATM   23  H   UNL     1      40.633 -13.077   6.546  1.00  0.00     0.213 HD
HETATM   24  N   UNL     1      40.042 -11.212   5.911  1.00  0.00    -0.167 NA
HETATM   25  C   UNL     1      39.538 -10.903   4.711  1.00  0.00     0.180 A 
ENDBRANCH  19  20
ENDBRANCH  18  19
ENDBRANCH  15  18
ENDBRANCH  13  14
ENDBRANCH  12  13
ENDBRANCH   7  12
BRANCH  10  26
HETATM   26  O   UNL     1      42.795 -13.508   6.733  1.00  0.00    -0.270 OA
BRANCH  26  27
HETATM   27  C   UNL     1      43.854 -12.560   6.738  1.00  0.00     0.447 C 
HETATM   28 CL   UNL     1      43.619 -11.412   5.416  1.00  0.00    -0.014 Cl
HETATM   29  F   UNL     1      43.876 -11.895   7.919  1.00  0.00    -0.159 F 
HETATM   30  F   UNL     1      45.044 -13.194   6.588  1.00  0.00    -0.159 F 
ENDBRANCH  26  27
ENDBRANCH  10  26
TORSDOF 8
ENDMDL
MODEL 7
REMARK VINA RESULT:      -7.7      4.137      7.667
REMARK  8 active torsions:
REMARK  status: ('A' for Active; 'I' for Inactive)
REMARK    1  A    between atoms: C_7  and  C_8 
REMARK    2  A    between atoms: C_8  and  C_9 
REMARK    3  A    between atoms: C_9  and  N_10 
REMARK       I    between atoms: N_10  and  C_11 
REMARK    4  A    between atoms: C_11  and  C_12 
REMARK    5  A    between atoms: C_12  and  S_13 
REMARK    6  A    between atoms: S_13  and  C_14 
REMARK    7  A    between atoms: C_23  and  O_24 
REMARK    8  A    between atoms: O_24  and  C_25 
ROOT
HETATM    1  C   UNL     1      43.442 -11.007   6.961  1.00  0.00     0.068 C 
HETATM    2  C   UNL     1      43.326 -12.440   6.582  1.00  0.00     0.013 A 
HETATM    3  N   UNL     1      43.188 -13.427   7.524  1.00  0.00    -0.359 N 
HETATM    4  H   UNL     1      43.150 -13.276   8.523  1.00  0.00     0.166 HD
HETATM    5  C   UNL     1      43.116 -14.661   6.923  1.00  0.00     0.043 A 
HETATM    6  C   UNL     1      43.200 -14.454   5.549  1.00  0.00     0.002 A 
HETATM    7  C   UNL     1      43.331 -13.044   5.334  1.00  0.00    -0.022 A 
HETATM    8  C   UNL     1      42.984 -15.934   7.488  1.00  0.00     0.033 A 
HETATM    9  C   UNL     1      42.941 -17.033   6.621  1.00  0.00     0.039 A 
HETATM   10  C   UNL     1      43.024 -16.868   5.240  1.00  0.00     0.077 A 
HETATM   11  C   UNL     1      43.149 -15.578   4.700  1.00  0.00     0.051 A 
ENDROOT
BRANCH   7  12
HETATM   12  C   UNL     1      43.463 -12.351   4.011  1.00  0.00     0.061 C 
BRANCH  12  13
HETATM   13  C   UNL     1      42.127 -11.780   3.530  1.00  0.00     0.127 C 
BRANCH  13  14
HETATM   14  N   UNL     1      41.600 -12.483   2.374  1.00  0.00    -0.360 N 
HETATM   15  C   UNL     1      40.626 -13.451   2.502  1.00  0.00     0.227 C 
HETATM   16  O   UNL     1      40.228 -13.866   3.587  1.00  0.00    -0.273 OA
HETATM   17  H   UNL     1      41.639 -12.013   1.468  1.00  0.00     0.162 HD
BRANCH  15  18
HETATM   18  C   UNL     1      40.094 -13.980   1.183  1.00  0.00     0.183 C 
BRANCH  18  19
HETATM   19  S   UNL     1      39.400 -12.636   0.186  1.00  0.00    -0.098 SA
BRANCH  19  20
HETATM   20  C   UNL     1      40.240 -12.797  -1.326  1.00  0.00     0.134 A 
HETATM   21  N   UNL     1      41.265 -12.027  -1.713  1.00  0.00    -0.149 NA
HETATM   22  N   UNL     1      41.554 -12.567  -2.916  1.00  0.00    -0.196 N 
HETATM   23  H   UNL     1      42.317 -12.209  -3.486  1.00  0.00     0.213 HD
HETATM   24  N   UNL     1      40.800 -13.592  -3.347  1.00  0.00    -0.167 NA
HETATM   25  C   UNL     1      39.952 -13.743  -2.323  1.00  0.00     0.180 A 
ENDBRANCH  19  20
ENDBRANCH  18  19
ENDBRANCH  15  18
ENDBRANCH  13  14
ENDBRANCH  12  13
ENDBRANCH   7  12
BRANCH  10  26
HETATM   26  O   UNL     1      42.997 -17.862   4.300  1.00  0.00    -0.270 OA
BRANCH  26  27
HETATM   27  C   UNL     1      44.139 -18.697   4.165  1.00  0.00     0.447 C 
HETATM   28 CL   UNL     1      43.929 -20.142   5.161  1.00  0.00    -0.014 Cl
HETATM   29  F   UNL     1      44.299 -19.058   2.868  1.00  0.00    -0.159 F 
HETATM   30  F   UNL     1      45.251 -18.028   4.559  1.00  0.00    -0.159 F 
ENDBRANCH  26  27
ENDBRANCH  10  26
TORSDOF 8
ENDMDL
MODEL 8
REMARK VINA RESULT:      -7.6      4.776      7.903
REMARK  8 active torsions:
REMARK  status: ('A' for Active; 'I' for Inactive)
REMARK    1  A    between atoms: C_7  and  C_8 
REMARK    2  A    between atoms: C_8  and  C_9 
REMARK    3  A    between atoms: C_9  and  N_10 
REMARK       I    between atoms: N_10  and  C_11 
REMARK    4  A    between atoms: C_11  and  C_12 
REMARK    5  A    between atoms: C_12  and  S_13 
REMARK    6  A    between atoms: S_13  and  C_14 
REMARK    7  A    between atoms: C_23  and  O_24 
REMARK    8  A    between atoms: O_24  and  C_25 
ROOT
HETATM    1  C   UNL     1      40.124 -13.689   5.990  1.00  0.00     0.068 C 
HETATM    2  C   UNL     1      41.021 -14.776   5.516  1.00  0.00     0.013 A 
HETATM    3  N   UNL     1      41.813 -15.488   6.381  1.00  0.00    -0.359 N 
HETATM    4  H   UNL     1      41.854 -15.347   7.381  1.00  0.00     0.166 HD
HETATM    5  C   UNL     1      42.556 -16.421   5.698  1.00  0.00     0.043 A 
HETATM    6  C   UNL     1      42.219 -16.310   4.353  1.00  0.00     0.002 A 
HETATM    7  C   UNL     1      41.243 -15.267   4.239  1.00  0.00    -0.022 A 
HETATM    8  C   UNL     1      43.492 -17.348   6.168  1.00  0.00     0.033 A 
HETATM    9  C   UNL     1      44.110 -18.187   5.230  1.00  0.00     0.039 A 
HETATM   10  C   UNL     1      43.802 -18.104   3.874  1.00  0.00     0.077 A 
HETATM   11  C   UNL     1      42.853 -17.169   3.432  1.00  0.00     0.051 A 
ENDROOT
BRANCH   7  12
HETATM   12  C   UNL     1      40.595 -14.786   2.976  1.00  0.00     0.061 C 
BRANCH  12  13
HETATM   13  C   UNL     1      41.445 -13.731   2.264  1.00  0.00     0.127 C 
BRANCH  13  14
HETATM   14  N   UNL     1      40.713 -13.030   1.224  1.00  0.00    -0.360 N 
HETATM   15  C   UNL     1      40.028 -11.863   1.487  1.00  0.00     0.227 C 
HETATM   16  O   UNL     1      39.888 -11.405   2.618  1.00  0.00    -0.273 OA
HETATM   17  H   UNL     1      41.017 -13.156   0.257  1.00  0.00     0.162 HD
BRANCH  15  18
HETATM   18  C   UNL     1      39.440 -11.193   0.259  1.00  0.00     0.183 C 
BRANCH  18  19
HETATM   19  S   UNL     1      40.440 -11.552  -1.208  1.00  0.00    -0.098 SA
BRANCH  19  20
HETATM   20  C   UNL     1      39.610 -12.900  -1.925  1.00  0.00     0.134 A 
HETATM   21  N   UNL     1      39.004 -13.874  -1.235  1.00  0.00    -0.149 NA
HETATM   22  N   UNL     1      38.516 -14.635  -2.237  1.00  0.00    -0.196 N 
HETATM   23  H   UNL     1      37.974 -15.476  -2.046  1.00  0.00     0.213 HD
HETATM   24  N   UNL     1      38.769 -14.257  -3.501  1.00  0.00    -0.167 NA
HETATM   25  C   UNL     1      39.474 -13.137  -3.302  1.00  0.00     0.180 A 
ENDBRANCH  19  20
ENDBRANCH  18  19
ENDBRANCH  15  18
ENDBRANCH  13  14
ENDBRANCH  12  13
ENDBRANCH   7  12
BRANCH  10  26
HETATM   26  O   UNL     1      44.341 -18.863   2.872  1.00  0.00    -0.270 OA
BRANCH  26  27
HETATM   27  C   UNL     1      43.732 -20.111   2.566  1.00  0.00     0.447 C 
HETATM   28 CL   UNL     1      43.829 -21.172   3.975  1.00  0.00    -0.014 Cl
HETATM   29  F   UNL     1      42.433 -19.922   2.226  1.00  0.00    -0.159 F 
HETATM   30  F   UNL     1      44.364 -20.689   1.514  1.00  0.00    -0.159 F 
ENDBRANCH  26  27
ENDBRANCH  10  26
TORSDOF 8
ENDMDL
MODEL 9
REMARK VINA RESULT:      -7.5      2.388      3.153
REMARK  8 active torsions:
REMARK  status: ('A' for Active; 'I' for Inactive)
REMARK    1  A    between atoms: C_7  and  C_8 
REMARK    2  A    between atoms: C_8  and  C_9 
REMARK    3  A    between atoms: C_9  and  N_10 
REMARK       I    between atoms: N_10  and  C_11 
REMARK    4  A    between atoms: C_11  and  C_12 
REMARK    5  A    between atoms: C_12  and  S_13 
REMARK    6  A    between atoms: S_13  and  C_14 
REMARK    7  A    between atoms: C_23  and  O_24 
REMARK    8  A    between atoms: O_24  and  C_25 
ROOT
HETATM    1  C   UNL     1      38.637 -10.587   3.198  1.00  0.00     0.068 C 
HETATM    2  C   UNL     1      39.269 -11.931   3.131  1.00  0.00     0.013 A 
HETATM    3  N   UNL     1      39.147 -12.732   2.025  1.00  0.00    -0.359 N 
HETATM    4  H   UNL     1      38.638 -12.490   1.185  1.00  0.00     0.166 HD
HETATM    5  C   UNL     1      39.806 -13.923   2.216  1.00  0.00     0.043 A 
HETATM    6  C   UNL     1      40.379 -13.877   3.483  1.00  0.00     0.002 A 
HETATM    7  C   UNL     1      40.040 -12.611   4.062  1.00  0.00    -0.022 A 
HETATM    8  C   UNL     1      39.938 -15.028   1.368  1.00  0.00     0.033 A 
HETATM    9  C   UNL     1      40.675 -16.125   1.833  1.00  0.00     0.039 A 
HETATM   10  C   UNL     1      41.261 -16.118   3.097  1.00  0.00     0.077 A 
HETATM   11  C   UNL     1      41.119 -14.992   3.923  1.00  0.00     0.051 A 
ENDROOT
BRANCH   7  12
HETATM   12  C   UNL     1      40.430 -12.118   5.423  1.00  0.00     0.061 C 
BRANCH  12  13
HETATM   13  C   UNL     1      41.631 -11.172   5.365  1.00  0.00     0.127 C 
BRANCH  13  14
HETATM   14  N   UNL     1      42.768 -11.660   6.125  1.00  0.00    -0.360 N 
HETATM   15  C   UNL     1      44.052 -11.584   5.629  1.00  0.00     0.227 C 
HETATM   16  O   UNL     1      44.312 -11.216   4.486  1.00  0.00    -0.273 OA
HETATM   17  H   UNL     1      42.688 -11.687   7.142  1.00  0.00     0.162 HD
BRANCH  15  18
HETATM   18  C   UNL     1      45.128 -12.011   6.611  1.00  0.00     0.183 C 
BRANCH  18  19
HETATM   19  S   UNL     1      45.867 -10.569   7.419  1.00  0.00    -0.098 SA
BRANCH  19  20
HETATM   20  C   UNL     1      44.962 -10.442   8.896  1.00  0.00     0.134 A 
HETATM   21  N   UNL     1      43.928 -11.227   9.224  1.00  0.00    -0.149 NA
HETATM   22  N   UNL     1      43.608 -10.738  10.441  1.00  0.00    -0.196 N 
HETATM   23  H   UNL     1      42.847 -11.136  10.987  1.00  0.00     0.213 HD
HETATM   24  N   UNL     1      44.320  -9.702  10.914  1.00  0.00    -0.167 NA
HETATM   25  C   UNL     1      45.195  -9.510   9.920  1.00  0.00     0.180 A 
ENDBRANCH  19  20
ENDBRANCH  18  19
ENDBRANCH  15  18
ENDBRANCH  13  14
ENDBRANCH  12  13
ENDBRANCH   7  12
BRANCH  10  26
HETATM   26  O   UNL     1      41.997 -17.127   3.656  1.00  0.00    -0.270 OA
BRANCH  26  27
HETATM   27  C   UNL     1      43.387 -17.191   3.369  1.00  0.00     0.447 C 
HETATM   28 CL   UNL     1      43.829 -18.855   2.973  1.00  0.00    -0.014 Cl
HETATM   29  F   UNL     1      43.683 -16.379   2.324  1.00  0.00    -0.159 F 
HETATM   30  F   UNL     1      44.101 -16.772   4.444  1.00  0.00    -0.159 F 
ENDBRANCH  26  27
ENDBRANCH  10  26
TORSDOF 8
ENDMDL
MODEL 10
REMARK VINA RESULT:      -7.5      4.859      7.408
REMARK  8 active torsions:
REMARK  status: ('A' for Active; 'I' for Inactive)
REMARK    1  A    between atoms: C_7  and  C_8 
REMARK    2  A    between atoms: C_8  and  C_9 
REMARK    3  A    between atoms: C_9  and  N_10 
REMARK       I    between atoms: N_10  and  C_11 
REMARK    4  A    between atoms: C_11  and  C_12 
REMARK    5  A    between atoms: C_12  and  S_13 
REMARK    6  A    between atoms: S_13  and  C_14 
REMARK    7  A    between atoms: C_23  and  O_24 
REMARK    8  A    between atoms: O_24  and  C_25 
ROOT
HETATM    1  C   UNL     1      40.802 -12.904   5.029  1.00  0.00     0.068 C 
HETATM    2  C   UNL     1      41.529 -14.161   4.706  1.00  0.00     0.013 A 
HETATM    3  N   UNL     1      42.018 -14.984   5.687  1.00  0.00    -0.359 N 
HETATM    4  H   UNL     1      41.929 -14.820   6.681  1.00  0.00     0.166 HD
HETATM    5  C   UNL     1      42.658 -16.067   5.133  1.00  0.00     0.043 A 
HETATM    6  C   UNL     1      42.565 -15.937   3.751  1.00  0.00     0.002 A 
HETATM    7  C   UNL     1      41.846 -14.727   3.481  1.00  0.00    -0.022 A 
HETATM    8  C   UNL     1      43.306 -17.143   5.748  1.00  0.00     0.033 A 
HETATM    9  C   UNL     1      43.884 -18.117   4.923  1.00  0.00     0.039 A 
HETATM   10  C   UNL     1      43.815 -18.021   3.534  1.00  0.00     0.077 A 
HETATM   11  C   UNL     1      43.151 -16.933   2.945  1.00  0.00     0.051 A 
ENDROOT
BRANCH   7  12
HETATM   12  C   UNL     1      41.511 -14.171   2.130  1.00  0.00     0.061 C 
BRANCH  12  13
HETATM   13  C   UNL     1      40.153 -14.667   1.628  1.00  0.00     0.127 C 
BRANCH  13  14
HETATM   14  N   UNL     1      39.402 -13.637   0.934  1.00  0.00    -0.360 N 
HETATM   15  C   UNL     1      39.490 -13.479  -0.434  1.00  0.00     0.227 C 
HETATM   16  O   UNL     1      40.283 -14.103  -1.134  1.00  0.00    -0.273 OA
HETATM   17  H   UNL     1      38.536 -13.305   1.362  1.00  0.00     0.162 HD
BRANCH  15  18
HETATM   18  C   UNL     1      38.532 -12.451  -1.007  1.00  0.00     0.183 C 
BRANCH  18  19
HETATM   19  S   UNL     1      38.621 -10.902  -0.072  1.00  0.00    -0.098 SA
BRANCH  19  20
HETATM   20  C   UNL     1      40.200 -10.296  -0.470  1.00  0.00     0.134 A 
HETATM   21  N   UNL     1      40.686 -10.198  -1.714  1.00  0.00    -0.149 NA
HETATM   22  N   UNL     1      41.904  -9.666  -1.474  1.00  0.00    -0.196 N 
HETATM   23  H   UNL     1      42.544  -9.449  -2.235  1.00  0.00     0.213 HD
HETATM   24  N   UNL     1      42.254  -9.436  -0.198  1.00  0.00    -0.167 NA
HETATM   25  C   UNL     1      41.156  -9.840   0.451  1.00  0.00     0.180 A 
ENDBRANCH  19  20
ENDBRANCH  18  19
ENDBRANCH  15  18
ENDBRANCH  13  14
ENDBRANCH  12  13
ENDBRANCH   7  12
BRANCH  10  26
HETATM   26  O   UNL     1      44.342 -18.904   2.632  1.00  0.00    -0.270 OA
BRANCH  26  27
HETATM   27  C   UNL     1      43.634 -20.108   2.371  1.00  0.00     0.447 C 
HETATM   28 CL   UNL     1      43.798 -21.197   3.753  1.00  0.00    -0.014 Cl
HETATM   29  F   UNL     1      42.322 -19.838   2.158  1.00  0.00    -0.159 F 
HETATM   30  F   UNL     1      44.129 -20.705   1.258  1.00  0.00    -0.159 F 
ENDBRANCH  26  27
ENDBRANCH  10  26
TORSDOF 8
ENDMDL
