MODEL 1
REMARK VINA RESULT:      -8.1      0.000      0.000
REMARK  7 active torsions:
REMARK  status: ('A' for Active; 'I' for Inactive)
REMARK    1  A    between atoms: C_4  and  O_5 
REMARK    2  A    between atoms: O_5  and  C_6 
REMARK    3  A    between atoms: C_9  and  N_10 
REMARK       I    between atoms: N_10  and  C_11 
REMARK    4  A    between atoms: C_11  and  C_12 
REMARK    5  A    between atoms: C_12  and  C_13 
REMARK    6  A    between atoms: C_13  and  N_14 
REMARK       I    between atoms: N_14  and  C_15 
REMARK    7  A    between atoms: C_15  and  C_16 
ROOT
HETATM    1  N   UNL     1      40.312 -13.245   4.292  1.00  0.00    -0.327 N 
HETATM    2  C   UNL     1      39.861 -13.164   5.595  1.00  0.00     0.223 C 
HETATM    3  O   UNL     1      40.062 -13.972   6.497  1.00  0.00    -0.273 OA
HETATM    4  H   UNL     1      40.142 -12.423   3.711  1.00  0.00     0.169 HD
ENDROOT
BRANCH   1   5
HETATM    5  C   UNL     1      41.039 -14.293   3.695  1.00  0.00     0.034 A 
HETATM    6  C   UNL     1      40.457 -15.462   3.205  1.00  0.00     0.032 A 
HETATM    7  C   UNL     1      41.250 -16.455   2.618  1.00  0.00     0.039 A 
HETATM    8  C   UNL     1      42.632 -16.288   2.510  1.00  0.00     0.076 A 
HETATM    9  C   UNL     1      43.222 -15.128   3.012  1.00  0.00     0.039 A 
HETATM   10  C   UNL     1      42.426 -14.131   3.589  1.00  0.00     0.032 A 
BRANCH   8  11
HETATM   11  O   UNL     1      43.315 -17.348   1.956  1.00  0.00    -0.311 OA
BRANCH  11  12
HETATM   12  C   UNL     1      43.594 -18.431   2.751  1.00  0.00     0.076 A 
HETATM   13  C   UNL     1      43.979 -18.185   4.069  1.00  0.00     0.037 A 
HETATM   14  C   UNL     1      44.228 -19.254   4.929  1.00  0.00     0.003 A 
HETATM   15  C   UNL     1      44.075 -20.564   4.473  1.00  0.00     0.000 A 
HETATM   16  C   UNL     1      43.665 -20.808   3.161  1.00  0.00     0.003 A 
HETATM   17  C   UNL     1      43.413 -19.739   2.299  1.00  0.00     0.037 A 
ENDBRANCH  11  12
ENDBRANCH   8  11
ENDBRANCH   1   5
BRANCH   2  18
HETATM   18  C   UNL     1      39.065 -11.906   5.860  1.00  0.00     0.123 C 
BRANCH  18  19
HETATM   19  C   UNL     1      39.932 -10.779   6.405  1.00  0.00     0.132 C 
BRANCH  19  20
HETATM   20  N   UNL     1      41.330 -11.054   6.696  1.00  0.00    -0.355 N 
HETATM   21  C   UNL     1      42.395 -10.806   5.856  1.00  0.00     0.275 C 
HETATM   22  O   UNL     1      42.258 -10.617   4.650  1.00  0.00    -0.265 OA
HETATM   23  H   UNL     1      41.581 -11.154   7.674  1.00  0.00     0.162 HD
BRANCH  21  24
HETATM   24  C   UNL     1      43.683 -10.815   6.519  1.00  0.00     0.142 A 
HETATM   25  O   UNL     1      43.897  -9.980   7.587  1.00  0.00    -0.317 OA
HETATM   26  C   UNL     1      45.176 -10.180   8.001  1.00  0.00     0.143 A 
HETATM   27  C   UNL     1      45.793 -11.127   7.219  1.00  0.00     0.027 A 
HETATM   28  C   UNL     1      44.833 -11.536   6.263  1.00  0.00     0.045 A 
ENDBRANCH  21  24
ENDBRANCH  19  20
ENDBRANCH  18  19
ENDBRANCH   2  18
TORSDOF 7
ENDMDL
MODEL 2
REMARK VINA RESULT:      -7.8      1.965      2.613
REMARK  7 active torsions:
REMARK  status: ('A' for Active; 'I' for Inactive)
REMARK    1  A    between atoms: C_4  and  O_5 
REMARK    2  A    between atoms: O_5  and  C_6 
REMARK    3  A    between atoms: C_9  and  N_10 
REMARK       I    between atoms: N_10  and  C_11 
REMARK    4  A    between atoms: C_11  and  C_12 
REMARK    5  A    between atoms: C_12  and  C_13 
REMARK    6  A    between atoms: C_13  and  N_14 
REMARK       I    between atoms: N_14  and  C_15 
REMARK    7  A    between atoms: C_15  and  C_16 
ROOT
HETATM    1  N   UNL     1      40.831 -13.435   6.577  1.00  0.00    -0.327 N 
HETATM    2  C   UNL     1      40.690 -12.306   5.793  1.00  0.00     0.223 C 
HETATM    3  O   UNL     1      41.276 -12.058   4.744  1.00  0.00    -0.273 OA
HETATM    4  H   UNL     1      40.178 -13.519   7.356  1.00  0.00     0.169 HD
ENDROOT
BRANCH   1   5
HETATM    5  C   UNL     1      41.716 -14.513   6.383  1.00  0.00     0.034 A 
HETATM    6  C   UNL     1      43.105 -14.400   6.447  1.00  0.00     0.032 A 
HETATM    7  C   UNL     1      43.916 -15.523   6.251  1.00  0.00     0.039 A 
HETATM    8  C   UNL     1      43.349 -16.772   5.993  1.00  0.00     0.076 A 
HETATM    9  C   UNL     1      41.962 -16.889   5.913  1.00  0.00     0.039 A 
HETATM   10  C   UNL     1      41.151 -15.766   6.121  1.00  0.00     0.032 A 
BRANCH   8  11
HETATM   11  O   UNL     1      44.245 -17.795   5.772  1.00  0.00    -0.311 OA
BRANCH  11  12
HETATM   12  C   UNL     1      44.051 -18.608   4.684  1.00  0.00     0.076 A 
HETATM   13  C   UNL     1      44.109 -19.987   4.887  1.00  0.00     0.037 A 
HETATM   14  C   UNL     1      43.871 -20.855   3.821  1.00  0.00     0.003 A 
HETATM   15  C   UNL     1      43.561 -20.342   2.561  1.00  0.00     0.000 A 
HETATM   16  C   UNL     1      43.478 -18.961   2.366  1.00  0.00     0.003 A 
HETATM   17  C   UNL     1      43.713 -18.091   3.432  1.00  0.00     0.037 A 
ENDBRANCH  11  12
ENDBRANCH   8  11
ENDBRANCH   1   5
BRANCH   2  18
HETATM   18  C   UNL     1      39.671 -11.335   6.347  1.00  0.00     0.123 C 
BRANCH  18  19
HETATM   19  C   UNL     1      40.324 -10.121   6.993  1.00  0.00     0.132 C 
BRANCH  19  20
HETATM   20  N   UNL     1      41.774 -10.011   6.964  1.00  0.00    -0.355 N 
HETATM   21  C   UNL     1      42.577  -9.621   8.014  1.00  0.00     0.275 C 
HETATM   22  O   UNL     1      42.141  -9.022   8.995  1.00  0.00    -0.265 OA
HETATM   23  H   UNL     1      42.256 -10.531   6.237  1.00  0.00     0.162 HD
BRANCH  21  24
HETATM   24  C   UNL     1      43.975  -9.957   7.844  1.00  0.00     0.142 A 
HETATM   25  O   UNL     1      44.937  -9.051   8.214  1.00  0.00    -0.317 OA
HETATM   26  C   UNL     1      46.143  -9.611   7.935  1.00  0.00     0.143 A 
HETATM   27  C   UNL     1      45.979 -10.861   7.389  1.00  0.00     0.027 A 
HETATM   28  C   UNL     1      44.583 -11.086   7.329  1.00  0.00     0.045 A 
ENDBRANCH  21  24
ENDBRANCH  19  20
ENDBRANCH  18  19
ENDBRANCH   2  18
TORSDOF 7
ENDMDL
MODEL 3
REMARK VINA RESULT:      -7.8      2.699      9.065
REMARK  7 active torsions:
REMARK  status: ('A' for Active; 'I' for Inactive)
REMARK    1  A    between atoms: C_4  and  O_5 
REMARK    2  A    between atoms: O_5  and  C_6 
REMARK    3  A    between atoms: C_9  and  N_10 
REMARK       I    between atoms: N_10  and  C_11 
REMARK    4  A    between atoms: C_11  and  C_12 
REMARK    5  A    between atoms: C_12  and  C_13 
REMARK    6  A    between atoms: C_13  and  N_14 
REMARK       I    between atoms: N_14  and  C_15 
REMARK    7  A    between atoms: C_15  and  C_16 
ROOT
HETATM    1  N   UNL     1      43.657 -12.552   5.110  1.00  0.00    -0.327 N 
HETATM    2  C   UNL     1      43.516 -12.180   3.788  1.00  0.00     0.223 C 
HETATM    3  O   UNL     1      43.718 -11.069   3.308  1.00  0.00    -0.273 OA
HETATM    4  H   UNL     1      43.554 -13.549   5.305  1.00  0.00     0.169 HD
ENDROOT
BRANCH   1   5
HETATM    5  C   UNL     1      43.997 -11.733   6.204  1.00  0.00     0.034 A 
HETATM    6  C   UNL     1      45.262 -11.705   6.791  1.00  0.00     0.032 A 
HETATM    7  C   UNL     1      45.522 -10.855   7.872  1.00  0.00     0.039 A 
HETATM    8  C   UNL     1      44.523 -10.021   8.375  1.00  0.00     0.076 A 
HETATM    9  C   UNL     1      43.251 -10.055   7.803  1.00  0.00     0.039 A 
HETATM   10  C   UNL     1      42.996 -10.898   6.714  1.00  0.00     0.032 A 
BRANCH   8  11
HETATM   11  O   UNL     1      44.880  -9.262   9.468  1.00  0.00    -0.311 OA
BRANCH  11  12
HETATM   12  C   UNL     1      44.147  -9.393  10.621  1.00  0.00     0.076 A 
HETATM   13  C   UNL     1      43.509  -8.255  11.116  1.00  0.00     0.037 A 
HETATM   14  C   UNL     1      42.714  -8.348  12.258  1.00  0.00     0.003 A 
HETATM   15  C   UNL     1      42.548  -9.580  12.892  1.00  0.00     0.000 A 
HETATM   16  C   UNL     1      43.166 -10.723  12.379  1.00  0.00     0.003 A 
HETATM   17  C   UNL     1      43.960 -10.632  11.235  1.00  0.00     0.037 A 
ENDBRANCH  11  12
ENDBRANCH   8  11
ENDBRANCH   1   5
BRANCH   2  18
HETATM   18  C   UNL     1      43.087 -13.328   2.901  1.00  0.00     0.123 C 
BRANCH  18  19
HETATM   19  C   UNL     1      42.641 -14.541   3.706  1.00  0.00     0.132 C 
BRANCH  19  20
HETATM   20  N   UNL     1      43.035 -15.864   3.249  1.00  0.00    -0.355 N 
HETATM   21  C   UNL     1      43.593 -16.855   4.026  1.00  0.00     0.275 C 
HETATM   22  O   UNL     1      44.109 -16.631   5.118  1.00  0.00    -0.265 OA
HETATM   23  H   UNL     1      42.609 -16.194   2.388  1.00  0.00     0.162 HD
BRANCH  21  24
HETATM   24  C   UNL     1      43.537 -18.174   3.429  1.00  0.00     0.142 A 
HETATM   25  O   UNL     1      44.046 -19.248   4.116  1.00  0.00    -0.317 OA
HETATM   26  C   UNL     1      43.879 -20.342   3.329  1.00  0.00     0.143 A 
HETATM   27  C   UNL     1      43.274 -19.997   2.144  1.00  0.00     0.027 A 
HETATM   28  C   UNL     1      43.054 -18.600   2.207  1.00  0.00     0.045 A 
ENDBRANCH  21  24
ENDBRANCH  19  20
ENDBRANCH  18  19
ENDBRANCH   2  18
TORSDOF 7
ENDMDL
MODEL 4
REMARK VINA RESULT:      -7.7      3.769      6.178
REMARK  7 active torsions:
REMARK  status: ('A' for Active; 'I' for Inactive)
REMARK    1  A    between atoms: C_4  and  O_5 
REMARK    2  A    between atoms: O_5  and  C_6 
REMARK    3  A    between atoms: C_9  and  N_10 
REMARK       I    between atoms: N_10  and  C_11 
REMARK    4  A    between atoms: C_11  and  C_12 
REMARK    5  A    between atoms: C_12  and  C_13 
REMARK    6  A    between atoms: C_13  and  N_14 
REMARK       I    between atoms: N_14  and  C_15 
REMARK    7  A    between atoms: C_15  and  C_16 
ROOT
HETATM    1  N   UNL     1      39.737 -13.707   2.472  1.00  0.00    -0.327 N 
HETATM    2  C   UNL     1      39.260 -12.556   3.070  1.00  0.00     0.223 C 
HETATM    3  O   UNL     1      39.707 -12.005   4.070  1.00  0.00    -0.273 OA
HETATM    4  H   UNL     1      39.307 -13.955   1.580  1.00  0.00     0.169 HD
ENDROOT
BRANCH   1   5
HETATM    5  C   UNL     1      40.791 -14.531   2.909  1.00  0.00     0.034 A 
HETATM    6  C   UNL     1      40.667 -15.479   3.925  1.00  0.00     0.032 A 
HETATM    7  C   UNL     1      41.763 -16.267   4.295  1.00  0.00     0.039 A 
HETATM    8  C   UNL     1      42.993 -16.119   3.653  1.00  0.00     0.076 A 
HETATM    9  C   UNL     1      43.128 -15.162   2.647  1.00  0.00     0.039 A 
HETATM   10  C   UNL     1      42.028 -14.383   2.269  1.00  0.00     0.032 A 
BRANCH   8  11
HETATM   11  O   UNL     1      44.011 -16.914   4.132  1.00  0.00    -0.311 OA
BRANCH  11  12
HETATM   12  C   UNL     1      43.908 -18.273   3.971  1.00  0.00     0.076 A 
HETATM   13  C   UNL     1      43.666 -18.757   2.685  1.00  0.00     0.037 A 
HETATM   14  C   UNL     1      43.599 -20.132   2.464  1.00  0.00     0.003 A 
HETATM   15  C   UNL     1      43.791 -21.018   3.526  1.00  0.00     0.000 A 
HETATM   16  C   UNL     1      44.059 -20.532   4.807  1.00  0.00     0.003 A 
HETATM   17  C   UNL     1      44.128 -19.155   5.030  1.00  0.00     0.037 A 
ENDBRANCH  11  12
ENDBRANCH   8  11
ENDBRANCH   1   5
BRANCH   2  18
HETATM   18  C   UNL     1      38.075 -11.967   2.338  1.00  0.00     0.123 C 
BRANCH  18  19
HETATM   19  C   UNL     1      38.483 -11.274   1.045  1.00  0.00     0.132 C 
BRANCH  19  20
HETATM   20  N   UNL     1      38.406 -12.020  -0.200  1.00  0.00    -0.355 N 
HETATM   21  C   UNL     1      39.432 -12.734  -0.780  1.00  0.00     0.275 C 
HETATM   22  O   UNL     1      40.611 -12.566  -0.478  1.00  0.00    -0.265 OA
HETATM   23  H   UNL     1      37.478 -12.287  -0.515  1.00  0.00     0.162 HD
BRANCH  21  24
HETATM   24  C   UNL     1      38.998 -13.677  -1.790  1.00  0.00     0.142 A 
HETATM   25  O   UNL     1      38.372 -13.214  -2.920  1.00  0.00    -0.317 OA
HETATM   26  C   UNL     1      38.062 -14.298  -3.679  1.00  0.00     0.143 A 
HETATM   27  C   UNL     1      38.474 -15.454  -3.059  1.00  0.00     0.027 A 
HETATM   28  C   UNL     1      39.076 -15.056  -1.842  1.00  0.00     0.045 A 
ENDBRANCH  21  24
ENDBRANCH  19  20
ENDBRANCH  18  19
ENDBRANCH   2  18
TORSDOF 7
ENDMDL
MODEL 5
REMARK VINA RESULT:      -7.6      3.386      5.053
REMARK  7 active torsions:
REMARK  status: ('A' for Active; 'I' for Inactive)
REMARK    1  A    between atoms: C_4  and  O_5 
REMARK    2  A    between atoms: O_5  and  C_6 
REMARK    3  A    between atoms: C_9  and  N_10 
REMARK       I    between atoms: N_10  and  C_11 
REMARK    4  A    between atoms: C_11  and  C_12 
REMARK    5  A    between atoms: C_12  and  C_13 
REMARK    6  A    between atoms: C_13  and  N_14 
REMARK       I    between atoms: N_14  and  C_15 
REMARK    7  A    between atoms: C_15  and  C_16 
ROOT
HETATM    1  N   UNL     1      44.682 -11.543   6.979  1.00  0.00    -0.327 N 
HETATM    2  C   UNL     1      44.190 -10.406   7.589  1.00  0.00     0.223 C 
HETATM    3  O   UNL     1      43.013 -10.138   7.813  1.00  0.00    -0.273 OA
HETATM    4  H   UNL     1      45.697 -11.645   6.980  1.00  0.00     0.169 HD
ENDROOT
BRANCH   1   5
HETATM    5  C   UNL     1      43.947 -12.609   6.423  1.00  0.00     0.034 A 
HETATM    6  C   UNL     1      43.499 -13.708   7.155  1.00  0.00     0.032 A 
HETATM    7  C   UNL     1      42.766 -14.724   6.529  1.00  0.00     0.039 A 
HETATM    8  C   UNL     1      42.470 -14.649   5.167  1.00  0.00     0.076 A 
HETATM    9  C   UNL     1      42.929 -13.560   4.427  1.00  0.00     0.039 A 
HETATM   10  C   UNL     1      43.652 -12.539   5.056  1.00  0.00     0.032 A 
BRANCH   8  11
HETATM   11  O   UNL     1      41.784 -15.726   4.650  1.00  0.00    -0.311 OA
BRANCH  11  12
HETATM   12  C   UNL     1      42.505 -16.769   4.127  1.00  0.00     0.076 A 
HETATM   13  C   UNL     1      42.288 -17.100   2.789  1.00  0.00     0.037 A 
HETATM   14  C   UNL     1      43.031 -18.123   2.199  1.00  0.00     0.003 A 
HETATM   15  C   UNL     1      43.999 -18.798   2.943  1.00  0.00     0.000 A 
HETATM   16  C   UNL     1      44.233 -18.447   4.274  1.00  0.00     0.003 A 
HETATM   17  C   UNL     1      43.492 -17.423   4.866  1.00  0.00     0.037 A 
ENDBRANCH  11  12
ENDBRANCH   8  11
ENDBRANCH   1   5
BRANCH   2  18
HETATM   18  C   UNL     1      45.284  -9.453   8.016  1.00  0.00     0.123 C 
BRANCH  18  19
HETATM   19  C   UNL     1      45.580  -9.547   9.507  1.00  0.00     0.132 C 
BRANCH  19  20
HETATM   20  N   UNL     1      44.534  -9.181  10.449  1.00  0.00    -0.355 N 
HETATM   21  C   UNL     1      43.829 -10.051  11.252  1.00  0.00     0.275 C 
HETATM   22  O   UNL     1      43.782 -11.260  11.040  1.00  0.00    -0.265 OA
HETATM   23  H   UNL     1      44.519  -8.215  10.761  1.00  0.00     0.162 HD
BRANCH  21  24
HETATM   24  C   UNL     1      43.132  -9.409  12.347  1.00  0.00     0.142 A 
HETATM   25  O   UNL     1      43.542  -8.171  12.775  1.00  0.00    -0.317 OA
HETATM   26  C   UNL     1      42.735  -7.817  13.809  1.00  0.00     0.143 A 
HETATM   27  C   UNL     1      41.812  -8.803  14.060  1.00  0.00     0.027 A 
HETATM   28  C   UNL     1      42.067  -9.831  13.120  1.00  0.00     0.045 A 
ENDBRANCH  21  24
ENDBRANCH  19  20
ENDBRANCH  18  19
ENDBRANCH   2  18
TORSDOF 7
ENDMDL
MODEL 6
REMARK VINA RESULT:      -7.5      4.401      5.513
REMARK  7 active torsions:
REMARK  status: ('A' for Active; 'I' for Inactive)
REMARK    1  A    between atoms: C_4  and  O_5 
REMARK    2  A    between atoms: O_5  and  C_6 
REMARK    3  A    between atoms: C_9  and  N_10 
REMARK       I    between atoms: N_10  and  C_11 
REMARK    4  A    between atoms: C_11  and  C_12 
REMARK    5  A    between atoms: C_12  and  C_13 
REMARK    6  A    between atoms: C_13  and  N_14 
REMARK       I    between atoms: N_14  and  C_15 
REMARK    7  A    between atoms: C_15  and  C_16 
ROOT
HETATM    1  N   UNL     1      40.071 -13.555   0.782  1.00  0.00    -0.327 N 
HETATM    2  C   UNL     1      39.518 -13.857  -0.448  1.00  0.00     0.223 C 
HETATM    3  O   UNL     1      39.606 -14.920  -1.056  1.00  0.00    -0.273 OA
HETATM    4  H   UNL     1      39.798 -12.658   1.184  1.00  0.00     0.169 HD
ENDROOT
BRANCH   1   5
HETATM    5  C   UNL     1      40.904 -14.368   1.575  1.00  0.00     0.034 A 
HETATM    6  C   UNL     1      40.430 -15.275   2.523  1.00  0.00     0.032 A 
HETATM    7  C   UNL     1      41.325 -16.053   3.266  1.00  0.00     0.039 A 
HETATM    8  C   UNL     1      42.701 -15.938   3.067  1.00  0.00     0.076 A 
HETATM    9  C   UNL     1      43.182 -15.023   2.130  1.00  0.00     0.039 A 
HETATM   10  C   UNL     1      42.285 -14.252   1.380  1.00  0.00     0.032 A 
BRANCH   8  11
HETATM   11  O   UNL     1      43.486 -16.720   3.886  1.00  0.00    -0.311 OA
BRANCH  11  12
HETATM   12  C   UNL     1      43.605 -18.056   3.594  1.00  0.00     0.076 A 
HETATM   13  C   UNL     1      44.062 -18.901   4.606  1.00  0.00     0.037 A 
HETATM   14  C   UNL     1      44.155 -20.273   4.372  1.00  0.00     0.003 A 
HETATM   15  C   UNL     1      43.774 -20.796   3.135  1.00  0.00     0.000 A 
HETATM   16  C   UNL     1      43.292 -19.951   2.134  1.00  0.00     0.003 A 
HETATM   17  C   UNL     1      43.196 -18.577   2.366  1.00  0.00     0.037 A 
ENDBRANCH  11  12
ENDBRANCH   8  11
ENDBRANCH   1   5
BRANCH   2  18
HETATM   18  C   UNL     1      38.719 -12.711  -1.025  1.00  0.00     0.123 C 
BRANCH  18  19
HETATM   19  C   UNL     1      38.758 -11.475  -0.135  1.00  0.00     0.132 C 
BRANCH  19  20
HETATM   20  N   UNL     1      39.592 -10.354  -0.536  1.00  0.00    -0.355 N 
HETATM   21  C   UNL     1      40.931 -10.197  -0.245  1.00  0.00     0.275 C 
HETATM   22  O   UNL     1      41.493 -10.827   0.647  1.00  0.00    -0.265 OA
HETATM   23  H   UNL     1      39.266  -9.800  -1.321  1.00  0.00     0.162 HD
BRANCH  21  24
HETATM   24  C   UNL     1      41.601  -9.210  -1.065  1.00  0.00     0.142 A 
HETATM   25  O   UNL     1      42.907  -8.886  -0.800  1.00  0.00    -0.317 OA
HETATM   26  C   UNL     1      43.276  -7.937  -1.699  1.00  0.00     0.143 A 
HETATM   27  C   UNL     1      42.230  -7.638  -2.541  1.00  0.00     0.027 A 
HETATM   28  C   UNL     1      41.150  -8.457  -2.133  1.00  0.00     0.045 A 
ENDBRANCH  21  24
ENDBRANCH  19  20
ENDBRANCH  18  19
ENDBRANCH   2  18
TORSDOF 7
ENDMDL
MODEL 7
REMARK VINA RESULT:      -7.4      2.037      8.225
REMARK  7 active torsions:
REMARK  status: ('A' for Active; 'I' for Inactive)
REMARK    1  A    between atoms: C_4  and  O_5 
REMARK    2  A    between atoms: O_5  and  C_6 
REMARK    3  A    between atoms: C_9  and  N_10 
REMARK       I    between atoms: N_10  and  C_11 
REMARK    4  A    between atoms: C_11  and  C_12 
REMARK    5  A    between atoms: C_12  and  C_13 
REMARK    6  A    between atoms: C_13  and  N_14 
REMARK       I    between atoms: N_14  and  C_15 
REMARK    7  A    between atoms: C_15  and  C_16 
ROOT
HETATM    1  N   UNL     1      42.196 -14.331   4.162  1.00  0.00    -0.327 N 
HETATM    2  C   UNL     1      40.827 -14.445   4.017  1.00  0.00     0.223 C 
HETATM    3  O   UNL     1      39.972 -13.681   4.456  1.00  0.00    -0.273 OA
HETATM    4  H   UNL     1      42.756 -14.999   3.632  1.00  0.00     0.169 HD
ENDROOT
BRANCH   1   5
HETATM    5  C   UNL     1      42.907 -13.360   4.892  1.00  0.00     0.034 A 
HETATM    6  C   UNL     1      43.284 -12.120   4.376  1.00  0.00     0.032 A 
HETATM    7  C   UNL     1      43.984 -11.205   5.170  1.00  0.00     0.039 A 
HETATM    8  C   UNL     1      44.311 -11.517   6.491  1.00  0.00     0.076 A 
HETATM    9  C   UNL     1      43.950 -12.761   7.009  1.00  0.00     0.039 A 
HETATM   10  C   UNL     1      43.240 -13.671   6.216  1.00  0.00     0.032 A 
BRANCH   8  11
HETATM   11  O   UNL     1      45.039 -10.559   7.163  1.00  0.00    -0.311 OA
BRANCH  11  12
HETATM   12  C   UNL     1      44.576 -10.121   8.378  1.00  0.00     0.076 A 
HETATM   13  C   UNL     1      45.449 -10.182   9.464  1.00  0.00     0.037 A 
HETATM   14  C   UNL     1      45.040  -9.705  10.709  1.00  0.00     0.003 A 
HETATM   15  C   UNL     1      43.767  -9.153  10.859  1.00  0.00     0.000 A 
HETATM   16  C   UNL     1      42.905  -9.068   9.764  1.00  0.00     0.003 A 
HETATM   17  C   UNL     1      43.313  -9.543   8.516  1.00  0.00     0.037 A 
ENDBRANCH  11  12
ENDBRANCH   8  11
ENDBRANCH   1   5
BRANCH   2  18
HETATM   18  C   UNL     1      40.425 -15.652   3.200  1.00  0.00     0.123 C 
BRANCH  18  19
HETATM   19  C   UNL     1      41.484 -16.033   2.175  1.00  0.00     0.132 C 
BRANCH  19  20
HETATM   20  N   UNL     1      42.212 -17.278   2.356  1.00  0.00    -0.355 N 
HETATM   21  C   UNL     1      43.283 -17.474   3.201  1.00  0.00     0.275 C 
HETATM   22  O   UNL     1      43.942 -16.546   3.662  1.00  0.00    -0.265 OA
HETATM   23  H   UNL     1      41.734 -18.130   2.080  1.00  0.00     0.162 HD
BRANCH  21  24
HETATM   24  C   UNL     1      43.573 -18.867   3.472  1.00  0.00     0.142 A 
HETATM   25  O   UNL     1      43.949 -19.244   4.737  1.00  0.00    -0.317 OA
HETATM   26  C   UNL     1      44.171 -20.585   4.705  1.00  0.00     0.143 A 
HETATM   27  C   UNL     1      43.949 -21.081   3.443  1.00  0.00     0.027 A 
HETATM   28  C   UNL     1      43.565 -19.976   2.646  1.00  0.00     0.045 A 
ENDBRANCH  21  24
ENDBRANCH  19  20
ENDBRANCH  18  19
ENDBRANCH   2  18
TORSDOF 7
ENDMDL
MODEL 8
REMARK VINA RESULT:      -7.3      1.517      2.356
REMARK  7 active torsions:
REMARK  status: ('A' for Active; 'I' for Inactive)
REMARK    1  A    between atoms: C_4  and  O_5 
REMARK    2  A    between atoms: O_5  and  C_6 
REMARK    3  A    between atoms: C_9  and  N_10 
REMARK       I    between atoms: N_10  and  C_11 
REMARK    4  A    between atoms: C_11  and  C_12 
REMARK    5  A    between atoms: C_12  and  C_13 
REMARK    6  A    between atoms: C_13  and  N_14 
REMARK       I    between atoms: N_14  and  C_15 
REMARK    7  A    between atoms: C_15  and  C_16 
ROOT
HETATM    1  N   UNL     1      41.045 -12.777   2.557  1.00  0.00    -0.327 N 
HETATM    2  C   UNL     1      41.666 -11.545   2.622  1.00  0.00     0.223 C 
HETATM    3  O   UNL     1      42.861 -11.311   2.464  1.00  0.00    -0.273 OA
HETATM    4  H   UNL     1      40.026 -12.764   2.602  1.00  0.00     0.169 HD
ENDROOT
BRANCH   1   5
HETATM    5  C   UNL     1      41.646 -14.035   2.361  1.00  0.00     0.034 A 
HETATM    6  C   UNL     1      42.952 -14.211   1.903  1.00  0.00     0.032 A 
HETATM    7  C   UNL     1      43.479 -15.497   1.743  1.00  0.00     0.039 A 
HETATM    8  C   UNL     1      42.709 -16.622   2.042  1.00  0.00     0.076 A 
HETATM    9  C   UNL     1      41.397 -16.454   2.486  1.00  0.00     0.039 A 
HETATM   10  C   UNL     1      40.875 -15.166   2.657  1.00  0.00     0.032 A 
BRANCH   8  11
HETATM   11  O   UNL     1      43.316 -17.836   1.803  1.00  0.00    -0.311 OA
BRANCH  11  12
HETATM   12  C   UNL     1      43.537 -18.675   2.866  1.00  0.00     0.076 A 
HETATM   13  C   UNL     1      43.568 -20.047   2.612  1.00  0.00     0.037 A 
HETATM   14  C   UNL     1      43.836 -20.937   3.652  1.00  0.00     0.003 A 
HETATM   15  C   UNL     1      44.088 -20.452   4.936  1.00  0.00     0.000 A 
HETATM   16  C   UNL     1      44.082 -19.078   5.182  1.00  0.00     0.003 A 
HETATM   17  C   UNL     1      43.816 -18.184   4.143  1.00  0.00     0.037 A 
ENDBRANCH  11  12
ENDBRANCH   8  11
ENDBRANCH   1   5
BRANCH   2  18
HETATM   18  C   UNL     1      40.697 -10.417   2.898  1.00  0.00     0.123 C 
BRANCH  18  19
HETATM   19  C   UNL     1      40.565 -10.123   4.387  1.00  0.00     0.132 C 
BRANCH  19  20
HETATM   20  N   UNL     1      41.750 -10.220   5.224  1.00  0.00    -0.355 N 
HETATM   21  C   UNL     1      42.147 -11.330   5.938  1.00  0.00     0.275 C 
HETATM   22  O   UNL     1      41.385 -12.257   6.199  1.00  0.00    -0.265 OA
HETATM   23  H   UNL     1      42.490  -9.548   5.047  1.00  0.00     0.162 HD
BRANCH  21  24
HETATM   24  C   UNL     1      43.529 -11.290   6.371  1.00  0.00     0.142 A 
HETATM   25  O   UNL     1      44.526 -11.195   5.433  1.00  0.00    -0.317 OA
HETATM   26  C   UNL     1      45.708 -11.192   6.104  1.00  0.00     0.143 A 
HETATM   27  C   UNL     1      45.493 -11.285   7.459  1.00  0.00     0.027 A 
HETATM   28  C   UNL     1      44.089 -11.349   7.632  1.00  0.00     0.045 A 
ENDBRANCH  21  24
ENDBRANCH  19  20
ENDBRANCH  18  19
ENDBRANCH   2  18
TORSDOF 7
ENDMDL
MODEL 9
REMARK VINA RESULT:      -7.2      3.121      4.351
REMARK  7 active torsions:
REMARK  status: ('A' for Active; 'I' for Inactive)
REMARK    1  A    between atoms: C_4  and  O_5 
REMARK    2  A    between atoms: O_5  and  C_6 
REMARK    3  A    between atoms: C_9  and  N_10 
REMARK       I    between atoms: N_10  and  C_11 
REMARK    4  A    between atoms: C_11  and  C_12 
REMARK    5  A    between atoms: C_12  and  C_13 
REMARK    6  A    between atoms: C_13  and  N_14 
REMARK       I    between atoms: N_14  and  C_15 
REMARK    7  A    between atoms: C_15  and  C_16 
ROOT
HETATM    1  N   UNL     1      42.032 -11.588   6.496  1.00  0.00    -0.327 N 
HETATM    2  C   UNL     1      42.063 -10.252   6.144  1.00  0.00     0.223 C 
HETATM    3  O   UNL     1      42.015  -9.786   5.009  1.00  0.00    -0.273 OA
HETATM    4  H   UNL     1      41.967 -11.782   7.495  1.00  0.00     0.169 HD
ENDROOT
BRANCH   1   5
HETATM    5  C   UNL     1      42.004 -12.704   5.638  1.00  0.00     0.034 A 
HETATM    6  C   UNL     1      42.994 -12.986   4.696  1.00  0.00     0.032 A 
HETATM    7  C   UNL     1      42.897 -14.123   3.886  1.00  0.00     0.039 A 
HETATM    8  C   UNL     1      41.813 -14.992   4.010  1.00  0.00     0.076 A 
HETATM    9  C   UNL     1      40.812 -14.708   4.939  1.00  0.00     0.039 A 
HETATM   10  C   UNL     1      40.916 -13.576   5.757  1.00  0.00     0.032 A 
BRANCH   8  11
HETATM   11  O   UNL     1      41.800 -16.052   3.130  1.00  0.00    -0.311 OA
BRANCH  11  12
HETATM   12  C   UNL     1      42.574 -17.148   3.416  1.00  0.00     0.076 A 
HETATM   13  C   UNL     1      42.862 -18.028   2.373  1.00  0.00     0.037 A 
HETATM   14  C   UNL     1      43.683 -19.132   2.605  1.00  0.00     0.003 A 
HETATM   15  C   UNL     1      44.226 -19.341   3.873  1.00  0.00     0.000 A 
HETATM   16  C   UNL     1      43.958 -18.444   4.909  1.00  0.00     0.003 A 
HETATM   17  C   UNL     1      43.137 -17.338   4.679  1.00  0.00     0.037 A 
ENDBRANCH  11  12
ENDBRANCH   8  11
ENDBRANCH   1   5
BRANCH   2  18
HETATM   18  C   UNL     1      42.142  -9.335   7.343  1.00  0.00     0.123 C 
BRANCH  18  19
HETATM   19  C   UNL     1      42.981  -9.927   8.467  1.00  0.00     0.132 C 
BRANCH  19  20
HETATM   20  N   UNL     1      42.631  -9.607   9.841  1.00  0.00    -0.355 N 
HETATM   21  C   UNL     1      43.219 -10.136  10.970  1.00  0.00     0.275 C 
HETATM   22  O   UNL     1      43.890 -11.164  10.948  1.00  0.00    -0.265 OA
HETATM   23  H   UNL     1      42.137  -8.733   9.995  1.00  0.00     0.162 HD
BRANCH  21  24
HETATM   24  C   UNL     1      42.955  -9.384  12.180  1.00  0.00     0.142 A 
HETATM   25  O   UNL     1      42.104  -9.902  13.124  1.00  0.00    -0.317 OA
HETATM   26  C   UNL     1      42.027  -8.995  14.133  1.00  0.00     0.143 A 
HETATM   27  C   UNL     1      42.809  -7.899  13.858  1.00  0.00     0.027 A 
HETATM   28  C   UNL     1      43.408  -8.147  12.600  1.00  0.00     0.045 A 
ENDBRANCH  21  24
ENDBRANCH  19  20
ENDBRANCH  18  19
ENDBRANCH   2  18
TORSDOF 7
ENDMDL
MODEL 10
REMARK VINA RESULT:      -6.9      5.544      6.643
REMARK  7 active torsions:
REMARK  status: ('A' for Active; 'I' for Inactive)
REMARK    1  A    between atoms: C_4  and  O_5 
REMARK    2  A    between atoms: O_5  and  C_6 
REMARK    3  A    between atoms: C_9  and  N_10 
REMARK       I    between atoms: N_10  and  C_11 
REMARK    4  A    between atoms: C_11  and  C_12 
REMARK    5  A    between atoms: C_12  and  C_13 
REMARK    6  A    between atoms: C_13  and  N_14 
REMARK       I    between atoms: N_14  and  C_15 
REMARK    7  A    between atoms: C_15  and  C_16 
ROOT
HETATM    1  N   UNL     1      40.796 -12.563  -1.067  1.00  0.00    -0.327 N 
HETATM    2  C   UNL     1      40.818 -12.847  -2.419  1.00  0.00     0.223 C 
HETATM    3  O   UNL     1      40.816 -13.958  -2.940  1.00  0.00    -0.273 OA
HETATM    4  H   UNL     1      40.686 -11.579  -0.822  1.00  0.00     0.169 HD
ENDROOT
BRANCH   1   5
HETATM    5  C   UNL     1      40.833 -13.475   0.005  1.00  0.00     0.034 A 
HETATM    6  C   UNL     1      41.656 -13.330   1.122  1.00  0.00     0.032 A 
HETATM    7  C   UNL     1      41.627 -14.278   2.151  1.00  0.00     0.039 A 
HETATM    8  C   UNL     1      40.772 -15.379   2.077  1.00  0.00     0.076 A 
HETATM    9  C   UNL     1      39.958 -15.539   0.956  1.00  0.00     0.039 A 
HETATM   10  C   UNL     1      39.980 -14.583  -0.067  1.00  0.00     0.032 A 
BRANCH   8  11
HETATM   11  O   UNL     1      40.862 -16.270   3.125  1.00  0.00    -0.311 OA
BRANCH  11  12
HETATM   12  C   UNL     1      42.020 -16.991   3.270  1.00  0.00     0.076 A 
HETATM   13  C   UNL     1      42.723 -16.855   4.468  1.00  0.00     0.037 A 
HETATM   14  C   UNL     1      43.880 -17.603   4.681  1.00  0.00     0.003 A 
HETATM   15  C   UNL     1      44.321 -18.496   3.704  1.00  0.00     0.000 A 
HETATM   16  C   UNL     1      43.602 -18.651   2.517  1.00  0.00     0.003 A 
HETATM   17  C   UNL     1      42.442 -17.904   2.302  1.00  0.00     0.037 A 
ENDBRANCH  11  12
ENDBRANCH   8  11
ENDBRANCH   1   5
BRANCH   2  18
HETATM   18  C   UNL     1      40.820 -11.601  -3.276  1.00  0.00     0.123 C 
BRANCH  18  19
HETATM   19  C   UNL     1      39.968 -10.489  -2.679  1.00  0.00     0.132 C 
BRANCH  19  20
HETATM   20  N   UNL     1      40.595  -9.209  -2.391  1.00  0.00    -0.355 N 
HETATM   21  C   UNL     1      41.654  -9.002  -1.534  1.00  0.00     0.275 C 
HETATM   22  O   UNL     1      41.985  -9.819  -0.679  1.00  0.00    -0.265 OA
HETATM   23  H   UNL     1      40.456  -8.470  -3.073  1.00  0.00     0.162 HD
BRANCH  21  24
HETATM   24  C   UNL     1      42.319  -7.728  -1.716  1.00  0.00     0.142 A 
HETATM   25  O   UNL     1      41.591  -6.638  -2.121  1.00  0.00    -0.317 OA
HETATM   26  C   UNL     1      42.455  -5.595  -2.225  1.00  0.00     0.143 A 
HETATM   27  C   UNL     1      43.730  -5.990  -1.897  1.00  0.00     0.027 A 
HETATM   28  C   UNL     1      43.645  -7.365  -1.569  1.00  0.00     0.045 A 
ENDBRANCH  21  24
ENDBRANCH  19  20
ENDBRANCH  18  19
ENDBRANCH   2  18
TORSDOF 7
ENDMDL
