MODEL 1
REMARK VINA RESULT:      -7.4      0.000      0.000
REMARK  2 active torsions:
REMARK  status: ('A' for Active; 'I' for Inactive)
REMARK    1  A    between atoms: C_6  and  N_7 
REMARK       I    between atoms: N_7  and  C_8 
REMARK       I    between atoms: C_8  and  N_9 
REMARK    2  A    between atoms: N_9  and  C_10 
ROOT
HETATM    1  N   UNL     1      42.214 -13.312   5.775  1.00  0.00    -0.306 N 
HETATM    2  C   UNL     1      42.018 -14.578   5.322  1.00  0.00     0.321 C 
HETATM    3  N   UNL     1      43.090 -15.289   4.885  1.00  0.00    -0.338 N 
HETATM    4  O   UNL     1      40.868 -14.990   5.194  1.00  0.00    -0.247 OA
HETATM    5  H   UNL     1      41.326 -12.821   5.802  1.00  0.00     0.171 HD
HETATM    6  H   UNL     1      43.969 -15.083   5.340  1.00  0.00     0.164 HD
ENDROOT
BRANCH   3   7
HETATM    7  C   UNL     1      42.981 -16.605   4.269  1.00  0.00     0.092 C 
HETATM    8  C   UNL     1      43.781 -17.680   5.058  1.00  0.00     0.084 C 
HETATM    9  C   UNL     1      43.845 -18.921   4.266  1.00  0.00     0.034 A 
HETATM   10  C   UNL     1      43.541 -19.036   2.928  1.00  0.00     0.033 A 
HETATM   11  N   UNL     1      44.242 -20.175   4.681  1.00  0.00    -0.354 N 
HETATM   12  N   UNL     1      43.759 -20.356   2.598  1.00  0.00    -0.354 N 
HETATM   13  C   UNL     1      43.052 -17.946   2.063  1.00  0.00     0.061 C 
HETATM   14  H   UNL     1      43.625 -20.761   1.673  1.00  0.00     0.166 HD
HETATM   15  C   UNL     1      44.193 -21.040   3.663  1.00  0.00     0.180 A 
HETATM   16  C   UNL     1      43.317 -16.589   2.748  1.00  0.00     0.031 C 
HETATM   17  H   UNL     1      44.550 -20.410   5.622  1.00  0.00     0.166 HD
ENDBRANCH   3   7
BRANCH   1  18
HETATM   18  C   UNL     1      43.368 -12.512   5.931  1.00  0.00     0.077 A 
HETATM   19  C   UNL     1      44.085 -11.820   4.951  1.00  0.00     0.152 A 
HETATM   20  N   UNL     1      45.151 -11.021   5.197  1.00  0.00    -0.247 NA
HETATM   21 CL   UNL     1      43.842 -12.018   3.255  1.00  0.00    -0.060 Cl
HETATM   22  C   UNL     1      45.567 -10.930   6.475  1.00  0.00     0.118 A 
HETATM   23  C   UNL     1      44.975 -11.620   7.516  1.00  0.00     0.022 A 
HETATM   24  C   UNL     1      43.873 -12.426   7.235  1.00  0.00     0.034 A 
ENDBRANCH   1  18
TORSDOF 2
ENDMDL
MODEL 2
REMARK VINA RESULT:      -7.4      4.824      6.155
REMARK  2 active torsions:
REMARK  status: ('A' for Active; 'I' for Inactive)
REMARK    1  A    between atoms: C_6  and  N_7 
REMARK       I    between atoms: N_7  and  C_8 
REMARK       I    between atoms: C_8  and  N_9 
REMARK    2  A    between atoms: N_9  and  C_10 
ROOT
HETATM    1  N   UNL     1      39.533 -13.522   0.509  1.00  0.00    -0.306 N 
HETATM    2  C   UNL     1      40.047 -14.249   1.534  1.00  0.00     0.321 C 
HETATM    3  N   UNL     1      41.271 -14.819   1.383  1.00  0.00    -0.338 N 
HETATM    4  O   UNL     1      39.337 -14.483   2.510  1.00  0.00    -0.247 OA
HETATM    5  H   UNL     1      38.535 -13.398   0.648  1.00  0.00     0.171 HD
HETATM    6  H   UNL     1      41.919 -14.316   0.792  1.00  0.00     0.164 HD
ENDROOT
BRANCH   3   7
HETATM    7  C   UNL     1      41.864 -15.716   2.366  1.00  0.00     0.092 C 
HETATM    8  C   UNL     1      42.391 -14.943   3.609  1.00  0.00     0.084 C 
HETATM    9  C   UNL     1      43.195 -15.852   4.444  1.00  0.00     0.034 A 
HETATM   10  C   UNL     1      43.681 -17.081   4.056  1.00  0.00     0.033 A 
HETATM   11  N   UNL     1      43.642 -15.651   5.733  1.00  0.00    -0.354 N 
HETATM   12  N   UNL     1      44.390 -17.570   5.132  1.00  0.00    -0.354 N 
HETATM   13  C   UNL     1      43.441 -17.725   2.751  1.00  0.00     0.061 C 
HETATM   14  H   UNL     1      44.876 -18.465   5.158  1.00  0.00     0.166 HD
HETATM   15  C   UNL     1      44.371 -16.694   6.143  1.00  0.00     0.180 A 
HETATM   16  C   UNL     1      42.926 -16.672   1.746  1.00  0.00     0.031 C 
HETATM   17  H   UNL     1      43.462 -14.819   6.292  1.00  0.00     0.166 HD
ENDBRANCH   3   7
BRANCH   1  18
HETATM   18  C   UNL     1      40.027 -13.173  -0.768  1.00  0.00     0.077 A 
HETATM   19  C   UNL     1      39.782 -13.797  -1.995  1.00  0.00     0.152 A 
HETATM   20  N   UNL     1      40.249 -13.358  -3.188  1.00  0.00    -0.247 NA
HETATM   21 CL   UNL     1      38.999 -15.324  -2.163  1.00  0.00    -0.060 Cl
HETATM   22  C   UNL     1      41.041 -12.269  -3.174  1.00  0.00     0.118 A 
HETATM   23  C   UNL     1      41.403 -11.610  -2.015  1.00  0.00     0.022 A 
HETATM   24  C   UNL     1      40.898 -12.077  -0.802  1.00  0.00     0.034 A 
ENDBRANCH   1  18
TORSDOF 2
ENDMDL
MODEL 3
REMARK VINA RESULT:      -7.1      4.802      6.117
REMARK  2 active torsions:
REMARK  status: ('A' for Active; 'I' for Inactive)
REMARK    1  A    between atoms: C_6  and  N_7 
REMARK       I    between atoms: N_7  and  C_8 
REMARK       I    between atoms: C_8  and  N_9 
REMARK    2  A    between atoms: N_9  and  C_10 
ROOT
HETATM    1  N   UNL     1      39.646 -14.413   0.295  1.00  0.00    -0.306 N 
HETATM    2  C   UNL     1      40.384 -14.951   1.300  1.00  0.00     0.321 C 
HETATM    3  N   UNL     1      41.739 -14.906   1.213  1.00  0.00    -0.338 N 
HETATM    4  O   UNL     1      39.809 -15.580   2.186  1.00  0.00    -0.247 OA
HETATM    5  H   UNL     1      38.692 -14.756   0.353  1.00  0.00     0.171 HD
HETATM    6  H   UNL     1      42.121 -14.108   0.725  1.00  0.00     0.164 HD
ENDROOT
BRANCH   3   7
HETATM    7  C   UNL     1      42.625 -15.555   2.170  1.00  0.00     0.092 C 
HETATM    8  C   UNL     1      42.676 -17.095   1.958  1.00  0.00     0.084 C 
HETATM    9  C   UNL     1      43.377 -17.722   3.092  1.00  0.00     0.034 A 
HETATM   10  C   UNL     1      43.661 -17.116   4.296  1.00  0.00     0.033 A 
HETATM   11  N   UNL     1      43.848 -19.014   3.191  1.00  0.00    -0.354 N 
HETATM   12  N   UNL     1      44.299 -18.066   5.063  1.00  0.00    -0.354 N 
HETATM   13  C   UNL     1      43.354 -15.716   4.642  1.00  0.00     0.061 C 
HETATM   14  H   UNL     1      44.636 -17.925   6.014  1.00  0.00     0.166 HD
HETATM   15  C   UNL     1      44.401 -19.219   4.391  1.00  0.00     0.180 A 
HETATM   16  C   UNL     1      42.321 -15.153   3.644  1.00  0.00     0.031 C 
HETATM   17  H   UNL     1      43.770 -19.724   2.465  1.00  0.00     0.166 HD
ENDBRANCH   3   7
BRANCH   1  18
HETATM   18  C   UNL     1      39.990 -13.744  -0.902  1.00  0.00     0.077 A 
HETATM   19  C   UNL     1      39.614 -14.056  -2.211  1.00  0.00     0.152 A 
HETATM   20  N   UNL     1      39.940 -13.321  -3.301  1.00  0.00    -0.247 NA
HETATM   21 CL   UNL     1      38.832 -15.523  -2.668  1.00  0.00    -0.060 Cl
HETATM   22  C   UNL     1      40.718 -12.239  -3.102  1.00  0.00     0.118 A 
HETATM   23  C   UNL     1      41.202 -11.872  -1.860  1.00  0.00     0.022 A 
HETATM   24  C   UNL     1      40.841 -12.641  -0.754  1.00  0.00     0.034 A 
ENDBRANCH   1  18
TORSDOF 2
ENDMDL
MODEL 4
REMARK VINA RESULT:      -7.0      4.014      7.291
REMARK  2 active torsions:
REMARK  status: ('A' for Active; 'I' for Inactive)
REMARK    1  A    between atoms: C_6  and  N_7 
REMARK       I    between atoms: N_7  and  C_8 
REMARK       I    between atoms: C_8  and  N_9 
REMARK    2  A    between atoms: N_9  and  C_10 
ROOT
HETATM    1  N   UNL     1      44.056 -17.570   2.731  1.00  0.00    -0.306 N 
HETATM    2  C   UNL     1      43.207 -16.546   2.457  1.00  0.00     0.321 C 
HETATM    3  N   UNL     1      41.949 -16.585   2.967  1.00  0.00    -0.338 N 
HETATM    4  O   UNL     1      43.555 -15.687   1.650  1.00  0.00    -0.247 OA
HETATM    5  H   UNL     1      44.834 -17.549   2.080  1.00  0.00     0.171 HD
HETATM    6  H   UNL     1      41.850 -17.051   3.858  1.00  0.00     0.164 HD
ENDROOT
BRANCH   3   7
HETATM    7  C   UNL     1      40.921 -15.605   2.640  1.00  0.00     0.092 C 
HETATM    8  C   UNL     1      40.836 -15.345   1.109  1.00  0.00     0.084 C 
HETATM    9  C   UNL     1      39.970 -14.180   0.859  1.00  0.00     0.034 A 
HETATM   10  C   UNL     1      39.558 -13.267   1.804  1.00  0.00     0.033 A 
HETATM   11  N   UNL     1      39.439 -13.758  -0.342  1.00  0.00    -0.354 N 
HETATM   12  N   UNL     1      38.789 -12.341   1.133  1.00  0.00    -0.354 N 
HETATM   13  C   UNL     1      39.873 -13.323   3.243  1.00  0.00     0.061 C 
HETATM   14  H   UNL     1      38.338 -11.533   1.558  1.00  0.00     0.166 HD
HETATM   15  C   UNL     1      38.729 -12.638  -0.170  1.00  0.00     0.180 A 
HETATM   16  C   UNL     1      41.049 -14.296   3.475  1.00  0.00     0.031 C 
HETATM   17  H   UNL     1      39.581 -14.217  -1.240  1.00  0.00     0.166 HD
ENDBRANCH   3   7
BRANCH   1  18
HETATM   18  C   UNL     1      43.929 -18.747   3.504  1.00  0.00     0.077 A 
HETATM   19  C   UNL     1      43.786 -20.065   3.063  1.00  0.00     0.152 A 
HETATM   20  N   UNL     1      43.733 -21.147   3.877  1.00  0.00    -0.247 NA
HETATM   21 CL   UNL     1      43.472 -20.509   1.427  1.00  0.00    -0.060 Cl
HETATM   22  C   UNL     1      43.777 -20.919   5.204  1.00  0.00     0.118 A 
HETATM   23  C   UNL     1      43.851 -19.654   5.754  1.00  0.00     0.022 A 
HETATM   24  C   UNL     1      43.916 -18.560   4.893  1.00  0.00     0.034 A 
ENDBRANCH   1  18
TORSDOF 2
ENDMDL
MODEL 5
REMARK VINA RESULT:      -6.9      3.330      7.180
REMARK  2 active torsions:
REMARK  status: ('A' for Active; 'I' for Inactive)
REMARK    1  A    between atoms: C_6  and  N_7 
REMARK       I    between atoms: N_7  and  C_8 
REMARK       I    between atoms: C_8  and  N_9 
REMARK    2  A    between atoms: N_9  and  C_10 
ROOT
HETATM    1  N   UNL     1      43.896 -17.545   2.563  1.00  0.00    -0.306 N 
HETATM    2  C   UNL     1      43.337 -16.312   2.660  1.00  0.00     0.321 C 
HETATM    3  N   UNL     1      42.546 -16.034   3.728  1.00  0.00    -0.338 N 
HETATM    4  O   UNL     1      43.451 -15.533   1.715  1.00  0.00    -0.247 OA
HETATM    5  H   UNL     1      44.217 -17.699   1.612  1.00  0.00     0.171 HD
HETATM    6  H   UNL     1      42.785 -16.510   4.588  1.00  0.00     0.164 HD
ENDROOT
BRANCH   3   7
HETATM    7  C   UNL     1      41.801 -14.790   3.872  1.00  0.00     0.092 C 
HETATM    8  C   UNL     1      41.698 -14.347   5.360  1.00  0.00     0.084 C 
HETATM    9  C   UNL     1      40.736 -13.237   5.474  1.00  0.00     0.034 A 
HETATM   10  C   UNL     1      39.832 -12.855   4.508  1.00  0.00     0.033 A 
HETATM   11  N   UNL     1      40.525 -12.402   6.551  1.00  0.00    -0.354 N 
HETATM   12  N   UNL     1      39.124 -11.799   5.041  1.00  0.00    -0.354 N 
HETATM   13  C   UNL     1      39.702 -13.460   3.169  1.00  0.00     0.061 C 
HETATM   14  H   UNL     1      38.376 -11.295   4.568  1.00  0.00     0.166 HD
HETATM   15  C   UNL     1      39.542 -11.536   6.284  1.00  0.00     0.180 A 
HETATM   16  C   UNL     1      40.422 -14.825   3.150  1.00  0.00     0.031 C 
HETATM   17  H   UNL     1      41.029 -12.447   7.434  1.00  0.00     0.166 HD
ENDBRANCH   3   7
BRANCH   1  18
HETATM   18  C   UNL     1      43.861 -18.687   3.395  1.00  0.00     0.077 A 
HETATM   19  C   UNL     1      43.784 -20.032   3.022  1.00  0.00     0.152 A 
HETATM   20  N   UNL     1      43.818 -21.073   3.888  1.00  0.00    -0.247 NA
HETATM   21 CL   UNL     1      43.449 -20.573   1.420  1.00  0.00    -0.060 Cl
HETATM   22  C   UNL     1      43.887 -20.778   5.200  1.00  0.00     0.118 A 
HETATM   23  C   UNL     1      43.903 -19.485   5.687  1.00  0.00     0.022 A 
HETATM   24  C   UNL     1      43.878 -18.432   4.773  1.00  0.00     0.034 A 
ENDBRANCH   1  18
TORSDOF 2
ENDMDL
MODEL 6
REMARK VINA RESULT:      -6.8      4.272      5.331
REMARK  2 active torsions:
REMARK  status: ('A' for Active; 'I' for Inactive)
REMARK    1  A    between atoms: C_6  and  N_7 
REMARK       I    between atoms: N_7  and  C_8 
REMARK       I    between atoms: C_8  and  N_9 
REMARK    2  A    between atoms: N_9  and  C_10 
ROOT
HETATM    1  N   UNL     1      39.630 -14.226   0.066  1.00  0.00    -0.306 N 
HETATM    2  C   UNL     1      40.029 -15.256   0.856  1.00  0.00     0.321 C 
HETATM    3  N   UNL     1      41.092 -15.073   1.681  1.00  0.00    -0.338 N 
HETATM    4  O   UNL     1      39.508 -16.358   0.701  1.00  0.00    -0.247 OA
HETATM    5  H   UNL     1      39.029 -14.577  -0.673  1.00  0.00     0.171 HD
HETATM    6  H   UNL     1      41.218 -14.134   2.035  1.00  0.00     0.164 HD
ENDROOT
BRANCH   3   7
HETATM    7  C   UNL     1      41.680 -16.141   2.479  1.00  0.00     0.092 C 
HETATM    8  C   UNL     1      41.691 -15.790   3.995  1.00  0.00     0.084 C 
HETATM    9  C   UNL     1      42.511 -16.777   4.719  1.00  0.00     0.034 A 
HETATM   10  C   UNL     1      43.388 -17.670   4.143  1.00  0.00     0.033 A 
HETATM   11  N   UNL     1      42.593 -16.980   6.080  1.00  0.00    -0.354 N 
HETATM   12  N   UNL     1      43.952 -18.378   5.183  1.00  0.00    -0.354 N 
HETATM   13  C   UNL     1      43.623 -17.828   2.696  1.00  0.00     0.061 C 
HETATM   14  H   UNL     1      44.646 -19.116   5.083  1.00  0.00     0.166 HD
HETATM   15  C   UNL     1      43.473 -17.948   6.356  1.00  0.00     0.180 A 
HETATM   16  C   UNL     1      43.072 -16.595   1.948  1.00  0.00     0.031 C 
HETATM   17  H   UNL     1      42.075 -16.455   6.783  1.00  0.00     0.166 HD
ENDBRANCH   3   7
BRANCH   1  18
HETATM   18  C   UNL     1      40.085 -12.897  -0.088  1.00  0.00     0.077 A 
HETATM   19  C   UNL     1      40.009 -11.840   0.824  1.00  0.00     0.152 A 
HETATM   20  N   UNL     1      40.529 -10.607   0.618  1.00  0.00    -0.247 NA
HETATM   21 CL   UNL     1      39.085 -11.884   2.279  1.00  0.00    -0.060 Cl
HETATM   22  C   UNL     1      41.119 -10.381  -0.572  1.00  0.00     0.118 A 
HETATM   23  C   UNL     1      41.194 -11.330  -1.573  1.00  0.00     0.022 A 
HETATM   24  C   UNL     1      40.661 -12.595  -1.329  1.00  0.00     0.034 A 
ENDBRANCH   1  18
TORSDOF 2
ENDMDL
MODEL 7
REMARK VINA RESULT:      -6.8      3.081      6.915
REMARK  2 active torsions:
REMARK  status: ('A' for Active; 'I' for Inactive)
REMARK    1  A    between atoms: C_6  and  N_7 
REMARK       I    between atoms: N_7  and  C_8 
REMARK       I    between atoms: C_8  and  N_9 
REMARK    2  A    between atoms: N_9  and  C_10 
ROOT
HETATM    1  N   UNL     1      44.114 -17.331   5.522  1.00  0.00    -0.306 N 
HETATM    2  C   UNL     1      43.491 -16.133   5.384  1.00  0.00     0.321 C 
HETATM    3  N   UNL     1      42.561 -15.988   4.404  1.00  0.00    -0.338 N 
HETATM    4  O   UNL     1      43.881 -15.180   6.056  1.00  0.00    -0.247 OA
HETATM    5  H   UNL     1      44.951 -17.215   6.085  1.00  0.00     0.171 HD
HETATM    6  H   UNL     1      42.037 -16.821   4.170  1.00  0.00     0.164 HD
ENDROOT
BRANCH   3   7
HETATM    7  C   UNL     1      41.920 -14.719   4.089  1.00  0.00     0.092 C 
HETATM    8  C   UNL     1      40.471 -14.919   3.560  1.00  0.00     0.084 C 
HETATM    9  C   UNL     1      39.965 -13.643   3.026  1.00  0.00     0.034 A 
HETATM   10  C   UNL     1      40.728 -12.534   2.736  1.00  0.00     0.033 A 
HETATM   11  N   UNL     1      38.669 -13.317   2.685  1.00  0.00    -0.354 N 
HETATM   12  N   UNL     1      39.857 -11.586   2.243  1.00  0.00    -0.354 N 
HETATM   13  C   UNL     1      42.182 -12.413   2.955  1.00  0.00     0.061 C 
HETATM   14  H   UNL     1      40.119 -10.651   1.935  1.00  0.00     0.166 HD
HETATM   15  C   UNL     1      38.611 -12.071   2.205  1.00  0.00     0.180 A 
HETATM   16  C   UNL     1      42.788 -13.818   3.162  1.00  0.00     0.031 C 
HETATM   17  H   UNL     1      37.868 -13.941   2.765  1.00  0.00     0.166 HD
ENDBRANCH   3   7
BRANCH   1  18
HETATM   18  C   UNL     1      43.992 -18.565   4.844  1.00  0.00     0.077 A 
HETATM   19  C   UNL     1      43.924 -18.798   3.468  1.00  0.00     0.152 A 
HETATM   20  N   UNL     1      43.869 -20.026   2.897  1.00  0.00    -0.247 NA
HETATM   21 CL   UNL     1      43.715 -17.559   2.287  1.00  0.00    -0.060 Cl
HETATM   22  C   UNL     1      43.833 -21.087   3.726  1.00  0.00     0.118 A 
HETATM   23  C   UNL     1      43.829 -20.973   5.103  1.00  0.00     0.022 A 
HETATM   24  C   UNL     1      43.898 -19.698   5.663  1.00  0.00     0.034 A 
ENDBRANCH   1  18
TORSDOF 2
ENDMDL
MODEL 8
REMARK VINA RESULT:      -6.7      4.700      7.112
REMARK  2 active torsions:
REMARK  status: ('A' for Active; 'I' for Inactive)
REMARK    1  A    between atoms: C_6  and  N_7 
REMARK       I    between atoms: N_7  and  C_8 
REMARK       I    between atoms: C_8  and  N_9 
REMARK    2  A    between atoms: N_9  and  C_10 
ROOT
HETATM    1  N   UNL     1      41.837 -15.825   4.241  1.00  0.00    -0.306 N 
HETATM    2  C   UNL     1      41.071 -15.012   3.469  1.00  0.00     0.321 C 
HETATM    3  N   UNL     1      41.105 -15.168   2.120  1.00  0.00    -0.338 N 
HETATM    4  O   UNL     1      40.478 -14.075   4.000  1.00  0.00    -0.247 OA
HETATM    5  H   UNL     1      41.926 -15.426   5.170  1.00  0.00     0.171 HD
HETATM    6  H   UNL     1      41.270 -16.109   1.791  1.00  0.00     0.164 HD
ENDROOT
BRANCH   3   7
HETATM    7  C   UNL     1      40.420 -14.276   1.193  1.00  0.00     0.092 C 
HETATM    8  C   UNL     1      39.789 -15.055   0.003  1.00  0.00     0.084 C 
HETATM    9  C   UNL     1      39.333 -14.098  -1.020  1.00  0.00     0.034 A 
HETATM   10  C   UNL     1      39.683 -12.767  -1.089  1.00  0.00     0.033 A 
HETATM   11  N   UNL     1      38.518 -14.338  -2.106  1.00  0.00    -0.354 N 
HETATM   12  N   UNL     1      39.053 -12.262  -2.206  1.00  0.00    -0.354 N 
HETATM   13  C   UNL     1      40.536 -12.055  -0.120  1.00  0.00     0.061 C 
HETATM   14  H   UNL     1      39.117 -11.299  -2.531  1.00  0.00     0.166 HD
HETATM   15  C   UNL     1      38.357 -13.222  -2.825  1.00  0.00     0.180 A 
HETATM   16  C   UNL     1      41.308 -13.082   0.737  1.00  0.00     0.031 C 
HETATM   17  H   UNL     1      38.109 -15.240  -2.344  1.00  0.00     0.166 HD
ENDBRANCH   3   7
BRANCH   1  18
HETATM   18  C   UNL     1      42.710 -16.895   3.942  1.00  0.00     0.077 A 
HETATM   19  C   UNL     1      43.801 -17.359   4.682  1.00  0.00     0.152 A 
HETATM   20  N   UNL     1      44.552 -18.437   4.352  1.00  0.00    -0.247 NA
HETATM   21 CL   UNL     1      44.477 -16.526   6.032  1.00  0.00    -0.060 Cl
HETATM   22  C   UNL     1      44.243 -19.072   3.205  1.00  0.00     0.118 A 
HETATM   23  C   UNL     1      43.228 -18.663   2.362  1.00  0.00     0.022 A 
HETATM   24  C   UNL     1      42.464 -17.557   2.732  1.00  0.00     0.034 A 
ENDBRANCH   1  18
TORSDOF 2
ENDMDL
MODEL 9
REMARK VINA RESULT:      -6.6      2.868      7.596
REMARK  2 active torsions:
REMARK  status: ('A' for Active; 'I' for Inactive)
REMARK    1  A    between atoms: C_6  and  N_7 
REMARK       I    between atoms: N_7  and  C_8 
REMARK       I    between atoms: C_8  and  N_9 
REMARK    2  A    between atoms: N_9  and  C_10 
ROOT
HETATM    1  N   UNL     1      42.562 -13.123   2.230  1.00  0.00    -0.306 N 
HETATM    2  C   UNL     1      42.933 -12.096   3.036  1.00  0.00     0.321 C 
HETATM    3  N   UNL     1      43.224 -12.358   4.337  1.00  0.00    -0.338 N 
HETATM    4  O   UNL     1      42.862 -10.947   2.604  1.00  0.00    -0.247 OA
HETATM    5  H   UNL     1      42.119 -12.756   1.394  1.00  0.00     0.171 HD
HETATM    6  H   UNL     1      43.621 -13.268   4.524  1.00  0.00     0.164 HD
ENDROOT
BRANCH   3   7
HETATM    7  C   UNL     1      43.515 -11.320   5.318  1.00  0.00     0.092 C 
HETATM    8  C   UNL     1      44.784 -11.653   6.153  1.00  0.00     0.084 C 
HETATM    9  C   UNL     1      44.888 -10.712   7.281  1.00  0.00     0.034 A 
HETATM   10  C   UNL     1      43.884  -9.883   7.731  1.00  0.00     0.033 A 
HETATM   11  N   UNL     1      45.965 -10.499   8.115  1.00  0.00    -0.354 N 
HETATM   12  N   UNL     1      44.405  -9.200   8.809  1.00  0.00    -0.354 N 
HETATM   13  C   UNL     1      42.543  -9.757   7.130  1.00  0.00     0.061 C 
HETATM   14  H   UNL     1      43.904  -8.508   9.364  1.00  0.00     0.166 HD
HETATM   15  C   UNL     1      45.664  -9.586   9.043  1.00  0.00     0.180 A 
HETATM   16  C   UNL     1      42.282 -10.961   6.200  1.00  0.00     0.031 C 
HETATM   17  H   UNL     1      46.860 -10.982   8.051  1.00  0.00     0.166 HD
ENDBRANCH   3   7
BRANCH   1  18
HETATM   18  C   UNL     1      42.422 -14.513   2.442  1.00  0.00     0.077 A 
HETATM   19  C   UNL     1      41.480 -15.182   3.229  1.00  0.00     0.152 A 
HETATM   20  N   UNL     1      41.378 -16.529   3.328  1.00  0.00    -0.247 NA
HETATM   21 CL   UNL     1      40.417 -14.400   4.338  1.00  0.00    -0.060 Cl
HETATM   22  C   UNL     1      42.282 -17.265   2.652  1.00  0.00     0.118 A 
HETATM   23  C   UNL     1      43.297 -16.711   1.896  1.00  0.00     0.022 A 
HETATM   24  C   UNL     1      43.371 -15.322   1.802  1.00  0.00     0.034 A 
ENDBRANCH   1  18
TORSDOF 2
ENDMDL
MODEL 10
REMARK VINA RESULT:      -6.6      3.537      5.154
REMARK  2 active torsions:
REMARK  status: ('A' for Active; 'I' for Inactive)
REMARK    1  A    between atoms: C_6  and  N_7 
REMARK       I    between atoms: N_7  and  C_8 
REMARK       I    between atoms: C_8  and  N_9 
REMARK    2  A    between atoms: N_9  and  C_10 
ROOT
HETATM    1  N   UNL     1      44.537 -10.630   8.524  1.00  0.00    -0.306 N 
HETATM    2  C   UNL     1      44.417 -11.501   7.489  1.00  0.00     0.321 C 
HETATM    3  N   UNL     1      43.259 -12.198   7.352  1.00  0.00    -0.338 N 
HETATM    4  O   UNL     1      45.402 -11.733   6.791  1.00  0.00    -0.247 OA
HETATM    5  H   UNL     1      45.516 -10.400   8.662  1.00  0.00     0.171 HD
HETATM    6  H   UNL     1      42.422 -11.727   7.670  1.00  0.00     0.164 HD
ENDROOT
BRANCH   3   7
HETATM    7  C   UNL     1      43.065 -13.243   6.355  1.00  0.00     0.092 C 
HETATM    8  C   UNL     1      41.619 -13.234   5.783  1.00  0.00     0.084 C 
HETATM    9  C   UNL     1      41.405 -14.449   4.978  1.00  0.00     0.034 A 
HETATM   10  C   UNL     1      42.210 -15.567   4.979  1.00  0.00     0.033 A 
HETATM   11  N   UNL     1      40.368 -14.723   4.110  1.00  0.00    -0.354 N 
HETATM   12  N   UNL     1      41.629 -16.460   4.105  1.00  0.00    -0.354 N 
HETATM   13  C   UNL     1      43.456 -15.723   5.753  1.00  0.00     0.061 C 
HETATM   14  H   UNL     1      41.988 -17.387   3.888  1.00  0.00     0.166 HD
HETATM   15  C   UNL     1      40.507 -15.946   3.589  1.00  0.00     0.180 A 
HETATM   16  C   UNL     1      43.514 -14.647   6.857  1.00  0.00     0.031 C 
HETATM   17  H   UNL     1      39.593 -14.095   3.907  1.00  0.00     0.166 HD
ENDBRANCH   3   7
BRANCH   1  18
HETATM   18  C   UNL     1      43.658 -10.233   9.557  1.00  0.00     0.077 A 
HETATM   19  C   UNL     1      42.512  -9.438   9.465  1.00  0.00     0.152 A 
HETATM   20  N   UNL     1      41.687  -9.155  10.502  1.00  0.00    -0.247 NA
HETATM   21 CL   UNL     1      42.067  -8.543   8.061  1.00  0.00    -0.060 Cl
HETATM   22  C   UNL     1      42.030  -9.643  11.710  1.00  0.00     0.118 A 
HETATM   23  C   UNL     1      43.175 -10.385  11.931  1.00  0.00     0.022 A 
HETATM   24  C   UNL     1      43.999 -10.671  10.843  1.00  0.00     0.034 A 
ENDBRANCH   1  18
TORSDOF 2
ENDMDL
