MODEL 1
REMARK VINA RESULT:      -8.9      0.000      0.000
REMARK  7 active torsions:
REMARK  status: ('A' for Active; 'I' for Inactive)
REMARK    1  A    between atoms: N_7  and  C_8 
REMARK    2  A    between atoms: C_8  and  C_9 
REMARK       I    between atoms: C_9  and  N_10 
REMARK    3  A    between atoms: N_10  and  C_11 
REMARK    4  A    between atoms: C_11  and  C_12 
REMARK    5  A    between atoms: C_12  and  C_13 
REMARK    6  A    between atoms: C_12  and  C_23 
REMARK    7  A    between atoms: C_26  and  O_27 
ROOT
HETATM    1  C   UNL     1      41.078 -10.225   4.279  1.00  0.00     0.136 C 
ENDROOT
BRANCH   1   2
HETATM    2  N   UNL     1      40.710  -9.856   2.921  1.00  0.00    -0.359 N 
HETATM    3  C   UNL     1      39.537 -10.310   2.355  1.00  0.00     0.236 C 
HETATM    4  O   UNL     1      38.744 -11.032   2.954  1.00  0.00    -0.272 OA
HETATM    5  H   UNL     1      41.291  -9.191   2.407  1.00  0.00     0.162 HD
BRANCH   3   6
HETATM    6  C   UNL     1      39.316  -9.870   0.913  1.00  0.00     0.239 C 
BRANCH   6   7
HETATM    7  N   UNL     1      39.875 -10.841  -0.001  1.00  0.00    -0.259 N 
HETATM    8  C   UNL     1      41.182 -10.883  -0.360  1.00  0.00     0.326 A 
HETATM    9  N   UNL     1      41.378 -11.963  -1.183  1.00  0.00    -0.324 N 
HETATM   10  O   UNL     1      42.054 -10.093  -0.037  1.00  0.00    -0.247 OA
HETATM   11  C   UNL     1      40.153 -12.700  -1.446  1.00  0.00     0.119 A 
HETATM   12  H   UNL     1      42.287 -12.160  -1.580  1.00  0.00     0.165 HD
HETATM   13  C   UNL     1      40.272 -14.165  -0.963  1.00  0.00     0.019 C 
HETATM   14  C   UNL     1      39.175 -11.853  -0.595  1.00  0.00     0.257 A 
HETATM   15  C   UNL     1      39.807 -12.592  -2.938  1.00  0.00     0.041 C 
HETATM   16  C   UNL     1      40.468 -14.304   0.553  1.00  0.00     0.013 C 
HETATM   17  C   UNL     1      39.074 -15.020  -1.408  1.00  0.00     0.007 C 
HETATM   18  C   UNL     1      38.836 -14.924  -2.911  1.00  0.00     0.001 C 
HETATM   19  C   UNL     1      38.638 -13.481  -3.354  1.00  0.00     0.003 C 
HETATM   20  O   UNL     1      37.980 -12.075  -0.462  1.00  0.00    -0.270 OA
ENDBRANCH   6   7
ENDBRANCH   3   6
ENDBRANCH   1   2
BRANCH   1  21
HETATM   21  C   UNL     1      42.106 -11.371   4.363  1.00  0.00     0.071 C 
BRANCH  21  22
HETATM   22  C   UNL     1      41.494 -12.741   4.545  1.00  0.00    -0.020 A 
HETATM   23  C   UNL     1      41.954 -13.963   3.937  1.00  0.00    -0.001 A 
HETATM   24  C   UNL     1      41.122 -14.993   4.377  1.00  0.00     0.042 A 
HETATM   25  C   UNL     1      43.009 -14.288   3.060  1.00  0.00     0.014 A 
HETATM   26  C   UNL     1      41.295 -16.328   3.991  1.00  0.00     0.030 A 
HETATM   27  N   UNL     1      40.184 -14.428   5.207  1.00  0.00    -0.365 N 
HETATM   28  C   UNL     1      42.353 -16.622   3.127  1.00  0.00     0.002 A 
HETATM   29  C   UNL     1      43.199 -15.617   2.665  1.00  0.00     0.001 A 
HETATM   30  H   UNL     1      39.451 -14.943   5.674  1.00  0.00     0.165 HD
HETATM   31  C   UNL     1      40.390 -13.081   5.310  1.00  0.00     0.097 A 
ENDBRANCH  21  22
BRANCH  21  32
HETATM   32  C   UNL     1      43.107 -11.230   5.504  1.00  0.00    -0.048 A 
HETATM   33  C   UNL     1      42.714 -10.606   6.699  1.00  0.00     0.011 A 
HETATM   34  C   UNL     1      43.603 -10.483   7.771  1.00  0.00     0.037 A 
HETATM   35  C   UNL     1      44.901 -10.983   7.680  1.00  0.00     0.068 A 
HETATM   36  C   UNL     1      45.315 -11.580   6.492  1.00  0.00     0.037 A 
HETATM   37  C   UNL     1      44.428 -11.699   5.415  1.00  0.00     0.011 A 
BRANCH  35  38
HETATM   38  O   UNL     1      45.663 -10.818   8.804  1.00  0.00    -0.356 OA
HETATM   39  C   UNL     1      45.074 -10.080   9.868  1.00  0.00     0.210 C 
ENDBRANCH  35  38
ENDBRANCH  21  32
ENDBRANCH   1  21
TORSDOF 7
ENDMDL
MODEL 2
REMARK VINA RESULT:      -8.7      3.807      8.849
REMARK  7 active torsions:
REMARK  status: ('A' for Active; 'I' for Inactive)
REMARK    1  A    between atoms: N_7  and  C_8 
REMARK    2  A    between atoms: C_8  and  C_9 
REMARK       I    between atoms: C_9  and  N_10 
REMARK    3  A    between atoms: N_10  and  C_11 
REMARK    4  A    between atoms: C_11  and  C_12 
REMARK    5  A    between atoms: C_12  and  C_13 
REMARK    6  A    between atoms: C_12  and  C_23 
REMARK    7  A    between atoms: C_26  and  O_27 
ROOT
HETATM    1  C   UNL     1      43.980 -12.792   6.116  1.00  0.00     0.136 C 
ENDROOT
BRANCH   1   2
HETATM    2  N   UNL     1      44.508 -12.223   7.346  1.00  0.00    -0.359 N 
HETATM    3  C   UNL     1      45.265 -11.070   7.326  1.00  0.00     0.236 C 
HETATM    4  O   UNL     1      45.527 -10.462   6.292  1.00  0.00    -0.272 OA
HETATM    5  H   UNL     1      44.251 -12.640   8.242  1.00  0.00     0.162 HD
BRANCH   3   6
HETATM    6  C   UNL     1      45.778 -10.626   8.690  1.00  0.00     0.239 C 
BRANCH   6   7
HETATM    7  N   UNL     1      44.847  -9.707   9.305  1.00  0.00    -0.259 N 
HETATM    8  C   UNL     1      44.770  -8.387   9.002  1.00  0.00     0.326 A 
HETATM    9  N   UNL     1      43.739  -7.831   9.717  1.00  0.00    -0.324 N 
HETATM   10  O   UNL     1      45.497  -7.768   8.243  1.00  0.00    -0.247 OA
HETATM   11  C   UNL     1      43.077  -8.788  10.588  1.00  0.00     0.119 A 
HETATM   12  H   UNL     1      43.529  -6.844   9.651  1.00  0.00     0.165 HD
HETATM   13  C   UNL     1      41.579  -8.926  10.225  1.00  0.00     0.019 C 
HETATM   14  C   UNL     1      43.908 -10.048  10.238  1.00  0.00     0.257 A 
HETATM   15  C   UNL     1      43.299  -8.382  12.052  1.00  0.00     0.041 C 
HETATM   16  C   UNL     1      41.331  -9.476   8.814  1.00  0.00     0.013 C 
HETATM   17  C   UNL     1      40.811  -9.774  11.252  1.00  0.00     0.007 C 
HETATM   18  C   UNL     1      41.017  -9.266  12.675  1.00  0.00     0.001 C 
HETATM   19  C   UNL     1      42.494  -9.219  13.042  1.00  0.00     0.003 C 
HETATM   20  O   UNL     1      43.732 -11.164  10.706  1.00  0.00    -0.270 OA
ENDBRANCH   6   7
ENDBRANCH   3   6
ENDBRANCH   1   2
BRANCH   1  21
HETATM   21  C   UNL     1      42.603 -13.468   6.275  1.00  0.00     0.071 C 
BRANCH  21  22
HETATM   22  C   UNL     1      42.482 -14.802   5.575  1.00  0.00    -0.020 A 
HETATM   23  C   UNL     1      42.738 -15.057   4.182  1.00  0.00    -0.001 A 
HETATM   24  C   UNL     1      42.522 -16.416   3.953  1.00  0.00     0.042 A 
HETATM   25  C   UNL     1      43.143 -14.255   3.094  1.00  0.00     0.014 A 
HETATM   26  C   UNL     1      42.697 -17.014   2.699  1.00  0.00     0.030 A 
HETATM   27  N   UNL     1      42.137 -16.971   5.150  1.00  0.00    -0.365 N 
HETATM   28  C   UNL     1      43.107 -16.197   1.642  1.00  0.00     0.002 A 
HETATM   29  C   UNL     1      43.325 -14.836   1.833  1.00  0.00     0.001 A 
HETATM   30  H   UNL     1      41.917 -17.948   5.282  1.00  0.00     0.165 HD
HETATM   31  C   UNL     1      42.102 -16.015   6.127  1.00  0.00     0.097 A 
ENDBRANCH  21  22
BRANCH  21  32
HETATM   32  C   UNL     1      41.435 -12.639   5.752  1.00  0.00    -0.048 A 
HETATM   33  C   UNL     1      41.689 -11.480   5.001  1.00  0.00     0.011 A 
HETATM   34  C   UNL     1      40.639 -10.712   4.488  1.00  0.00     0.037 A 
HETATM   35  C   UNL     1      39.313 -11.084   4.706  1.00  0.00     0.068 A 
HETATM   36  C   UNL     1      39.044 -12.217   5.472  1.00  0.00     0.037 A 
HETATM   37  C   UNL     1      40.095 -12.983   5.991  1.00  0.00     0.011 A 
BRANCH  35  38
HETATM   38  O   UNL     1      38.381 -10.262   4.135  1.00  0.00    -0.356 OA
HETATM   39  C   UNL     1      38.468 -10.086   2.726  1.00  0.00     0.210 C 
ENDBRANCH  35  38
ENDBRANCH  21  32
ENDBRANCH   1  21
TORSDOF 7
ENDMDL
MODEL 3
REMARK VINA RESULT:      -8.7      4.055      8.029
REMARK  7 active torsions:
REMARK  status: ('A' for Active; 'I' for Inactive)
REMARK    1  A    between atoms: N_7  and  C_8 
REMARK    2  A    between atoms: C_8  and  C_9 
REMARK       I    between atoms: C_9  and  N_10 
REMARK    3  A    between atoms: N_10  and  C_11 
REMARK    4  A    between atoms: C_11  and  C_12 
REMARK    5  A    between atoms: C_12  and  C_13 
REMARK    6  A    between atoms: C_12  and  C_23 
REMARK    7  A    between atoms: C_26  and  O_27 
ROOT
HETATM    1  C   UNL     1      40.016 -12.094   5.449  1.00  0.00     0.136 C 
ENDROOT
BRANCH   1   2
HETATM    2  N   UNL     1      40.193 -10.783   6.052  1.00  0.00    -0.359 N 
HETATM    3  C   UNL     1      39.480 -10.416   7.175  1.00  0.00     0.236 C 
HETATM    4  O   UNL     1      38.675 -11.162   7.727  1.00  0.00    -0.272 OA
HETATM    5  H   UNL     1      40.909 -10.153   5.685  1.00  0.00     0.162 HD
BRANCH   3   6
HETATM    6  C   UNL     1      39.747  -8.997   7.660  1.00  0.00     0.239 C 
BRANCH   6   7
HETATM    7  N   UNL     1      40.945  -8.957   8.467  1.00  0.00    -0.259 N 
HETATM    8  C   UNL     1      42.203  -8.940   7.960  1.00  0.00     0.326 A 
HETATM    9  N   UNL     1      43.094  -8.834   8.998  1.00  0.00    -0.324 N 
HETATM   10  O   UNL     1      42.518  -9.027   6.785  1.00  0.00    -0.247 OA
HETATM   11  C   UNL     1      42.445  -8.807  10.298  1.00  0.00     0.119 A 
HETATM   12  H   UNL     1      44.092  -8.828   8.832  1.00  0.00     0.165 HD
HETATM   13  C   UNL     1      42.766  -7.494  11.051  1.00  0.00     0.019 C 
HETATM   14  C   UNL     1      40.970  -8.898   9.832  1.00  0.00     0.257 A 
HETATM   15  C   UNL     1      42.842 -10.060  11.091  1.00  0.00     0.041 C 
HETATM   16  C   UNL     1      42.244  -6.232  10.350  1.00  0.00     0.013 C 
HETATM   17  C   UNL     1      42.262  -7.523  12.504  1.00  0.00     0.007 C 
HETATM   18  C   UNL     1      42.757  -8.756  13.252  1.00  0.00     0.001 C 
HETATM   19  C   UNL     1      42.358 -10.040  12.538  1.00  0.00     0.003 C 
HETATM   20  O   UNL     1      39.995  -8.894  10.569  1.00  0.00    -0.270 OA
ENDBRANCH   6   7
ENDBRANCH   3   6
ENDBRANCH   1   2
BRANCH   1  21
HETATM   21  C   UNL     1      41.261 -12.618   4.706  1.00  0.00     0.071 C 
BRANCH  21  22
HETATM   22  C   UNL     1      41.287 -14.117   4.517  1.00  0.00    -0.020 A 
HETATM   23  C   UNL     1      42.029 -14.834   3.514  1.00  0.00    -0.001 A 
HETATM   24  C   UNL     1      41.786 -16.196   3.699  1.00  0.00     0.042 A 
HETATM   25  C   UNL     1      42.895 -14.449   2.469  1.00  0.00     0.014 A 
HETATM   26  C   UNL     1      42.367 -17.188   2.900  1.00  0.00     0.030 A 
HETATM   27  N   UNL     1      40.921 -16.311   4.760  1.00  0.00    -0.365 N 
HETATM   28  C   UNL     1      43.226 -16.778   1.878  1.00  0.00     0.002 A 
HETATM   29  C   UNL     1      43.487 -15.428   1.661  1.00  0.00     0.001 A 
HETATM   30  H   UNL     1      40.573 -17.188   5.121  1.00  0.00     0.165 HD
HETATM   31  C   UNL     1      40.609 -15.075   5.255  1.00  0.00     0.097 A 
ENDBRANCH  21  22
BRANCH  21  32
HETATM   32  C   UNL     1      42.583 -12.282   5.386  1.00  0.00    -0.048 A 
HETATM   33  C   UNL     1      43.582 -11.607   4.665  1.00  0.00     0.011 A 
HETATM   34  C   UNL     1      44.796 -11.266   5.269  1.00  0.00     0.037 A 
HETATM   35  C   UNL     1      45.041 -11.581   6.604  1.00  0.00     0.068 A 
HETATM   36  C   UNL     1      44.071 -12.274   7.325  1.00  0.00     0.037 A 
HETATM   37  C   UNL     1      42.857 -12.623   6.721  1.00  0.00     0.011 A 
BRANCH  35  38
HETATM   38  O   UNL     1      46.257 -11.173   7.080  1.00  0.00    -0.356 OA
HETATM   39  C   UNL     1      46.292  -9.910   7.734  1.00  0.00     0.210 C 
ENDBRANCH  35  38
ENDBRANCH  21  32
ENDBRANCH   1  21
TORSDOF 7
ENDMDL
MODEL 4
REMARK VINA RESULT:      -8.7      3.249      8.827
REMARK  7 active torsions:
REMARK  status: ('A' for Active; 'I' for Inactive)
REMARK    1  A    between atoms: N_7  and  C_8 
REMARK    2  A    between atoms: C_8  and  C_9 
REMARK       I    between atoms: C_9  and  N_10 
REMARK    3  A    between atoms: N_10  and  C_11 
REMARK    4  A    between atoms: C_11  and  C_12 
REMARK    5  A    between atoms: C_12  and  C_13 
REMARK    6  A    between atoms: C_12  and  C_23 
REMARK    7  A    between atoms: C_26  and  O_27 
ROOT
HETATM    1  C   UNL     1      43.013 -14.171   5.422  1.00  0.00     0.136 C 
ENDROOT
BRANCH   1   2
HETATM    2  N   UNL     1      43.271 -12.755   5.631  1.00  0.00    -0.359 N 
HETATM    3  C   UNL     1      42.258 -11.897   6.006  1.00  0.00     0.236 C 
HETATM    4  O   UNL     1      41.102 -12.269   6.190  1.00  0.00    -0.272 OA
HETATM    5  H   UNL     1      44.229 -12.406   5.574  1.00  0.00     0.162 HD
BRANCH   3   6
HETATM    6  C   UNL     1      42.680 -10.439   6.145  1.00  0.00     0.239 C 
BRANCH   6   7
HETATM    7  N   UNL     1      43.393 -10.237   7.386  1.00  0.00    -0.259 N 
HETATM    8  C   UNL     1      44.729 -10.419   7.534  1.00  0.00     0.326 A 
HETATM    9  N   UNL     1      45.080 -10.076   8.815  1.00  0.00    -0.324 N 
HETATM   10  O   UNL     1      45.507 -10.838   6.693  1.00  0.00    -0.247 OA
HETATM   11  C   UNL     1      43.942  -9.664   9.621  1.00  0.00     0.119 A 
HETATM   12  H   UNL     1      46.035 -10.162   9.137  1.00  0.00     0.165 HD
HETATM   13  C   UNL     1      44.116  -8.212  10.126  1.00  0.00     0.019 C 
HETATM   14  C   UNL     1      42.828  -9.809   8.555  1.00  0.00     0.257 A 
HETATM   15  C   UNL     1      43.737 -10.671  10.761  1.00  0.00     0.041 C 
HETATM   16  C   UNL     1      44.173  -7.167   9.004  1.00  0.00     0.013 C 
HETATM   17  C   UNL     1      43.031  -7.820  11.143  1.00  0.00     0.007 C 
HETATM   18  C   UNL     1      42.936  -8.824  12.286  1.00  0.00     0.001 C 
HETATM   19  C   UNL     1      42.679 -10.234  11.772  1.00  0.00     0.003 C 
HETATM   20  O   UNL     1      41.644  -9.559   8.731  1.00  0.00    -0.270 OA
ENDBRANCH   6   7
ENDBRANCH   3   6
ENDBRANCH   1   2
BRANCH   1  21
HETATM   21  C   UNL     1      42.920 -14.581   3.939  1.00  0.00     0.071 C 
BRANCH  21  22
HETATM   22  C   UNL     1      41.570 -14.326   3.307  1.00  0.00    -0.020 A 
HETATM   23  C   UNL     1      41.219 -13.202   2.480  1.00  0.00    -0.001 A 
HETATM   24  C   UNL     1      39.887 -13.359   2.095  1.00  0.00     0.042 A 
HETATM   25  C   UNL     1      41.916 -12.067   2.015  1.00  0.00     0.014 A 
HETATM   26  C   UNL     1      39.221 -12.448   1.267  1.00  0.00     0.030 A 
HETATM   27  N   UNL     1      39.435 -14.522   2.672  1.00  0.00    -0.365 N 
HETATM   28  C   UNL     1      39.939 -11.337   0.815  1.00  0.00     0.002 A 
HETATM   29  C   UNL     1      41.267 -11.146   1.184  1.00  0.00     0.001 A 
HETATM   30  H   UNL     1      38.500 -14.889   2.561  1.00  0.00     0.165 HD
HETATM   31  C   UNL     1      40.430 -15.107   3.405  1.00  0.00     0.097 A 
ENDBRANCH  21  22
BRANCH  21  32
HETATM   32  C   UNL     1      43.207 -16.055   3.678  1.00  0.00    -0.048 A 
HETATM   33  C   UNL     1      43.547 -16.896   4.751  1.00  0.00     0.011 A 
HETATM   34  C   UNL     1      43.793 -18.256   4.546  1.00  0.00     0.037 A 
HETATM   35  C   UNL     1      43.702 -18.813   3.271  1.00  0.00     0.068 A 
HETATM   36  C   UNL     1      43.393 -17.987   2.192  1.00  0.00     0.037 A 
HETATM   37  C   UNL     1      43.151 -16.622   2.394  1.00  0.00     0.011 A 
BRANCH  35  38
HETATM   38  O   UNL     1      43.946 -20.157   3.209  1.00  0.00    -0.356 OA
HETATM   39  C   UNL     1      44.009 -20.849   4.450  1.00  0.00     0.210 C 
ENDBRANCH  35  38
ENDBRANCH  21  32
ENDBRANCH   1  21
TORSDOF 7
ENDMDL
MODEL 5
REMARK VINA RESULT:      -8.3      1.991      2.881
REMARK  7 active torsions:
REMARK  status: ('A' for Active; 'I' for Inactive)
REMARK    1  A    between atoms: N_7  and  C_8 
REMARK    2  A    between atoms: C_8  and  C_9 
REMARK       I    between atoms: C_9  and  N_10 
REMARK    3  A    between atoms: N_10  and  C_11 
REMARK    4  A    between atoms: C_11  and  C_12 
REMARK    5  A    between atoms: C_12  and  C_13 
REMARK    6  A    between atoms: C_12  and  C_23 
REMARK    7  A    between atoms: C_26  and  O_27 
ROOT
HETATM    1  C   UNL     1      41.159 -13.625   5.825  1.00  0.00     0.136 C 
ENDROOT
BRANCH   1   2
HETATM    2  N   UNL     1      40.290 -12.799   5.001  1.00  0.00    -0.359 N 
HETATM    3  C   UNL     1      40.078 -11.471   5.305  1.00  0.00     0.236 C 
HETATM    4  O   UNL     1      40.605 -10.913   6.264  1.00  0.00    -0.272 OA
HETATM    5  H   UNL     1      39.893 -13.188   4.144  1.00  0.00     0.162 HD
BRANCH   3   6
HETATM    6  C   UNL     1      39.111 -10.754   4.371  1.00  0.00     0.239 C 
BRANCH   6   7
HETATM    7  N   UNL     1      39.572 -10.839   3.004  1.00  0.00    -0.259 N 
HETATM    8  C   UNL     1      40.418  -9.948   2.430  1.00  0.00     0.326 A 
HETATM    9  N   UNL     1      40.698 -10.366   1.154  1.00  0.00    -0.324 N 
HETATM   10  O   UNL     1      40.853  -8.925   2.934  1.00  0.00    -0.247 OA
HETATM   11  C   UNL     1      39.998 -11.588   0.794  1.00  0.00     0.119 A 
HETATM   12  H   UNL     1      41.297  -9.824   0.545  1.00  0.00     0.165 HD
HETATM   13  C   UNL     1      40.995 -12.715   0.437  1.00  0.00     0.019 C 
HETATM   14  C   UNL     1      39.248 -11.836   2.127  1.00  0.00     0.257 A 
HETATM   15  C   UNL     1      39.006 -11.290  -0.339  1.00  0.00     0.041 C 
HETATM   16  C   UNL     1      41.899 -13.137   1.604  1.00  0.00     0.013 C 
HETATM   17  C   UNL     1      40.287 -13.952  -0.140  1.00  0.00     0.007 C 
HETATM   18  C   UNL     1      39.378 -13.592  -1.309  1.00  0.00     0.001 C 
HETATM   19  C   UNL     1      38.349 -12.542  -0.913  1.00  0.00     0.003 C 
HETATM   20  O   UNL     1      38.508 -12.782   2.357  1.00  0.00    -0.270 OA
ENDBRANCH   6   7
ENDBRANCH   3   6
ENDBRANCH   1   2
BRANCH   1  21
HETATM   21  C   UNL     1      42.608 -13.725   5.308  1.00  0.00     0.071 C 
BRANCH  21  22
HETATM   22  C   UNL     1      43.230 -15.094   5.461  1.00  0.00    -0.020 A 
HETATM   23  C   UNL     1      43.313 -16.107   4.442  1.00  0.00    -0.001 A 
HETATM   24  C   UNL     1      43.971 -17.208   4.993  1.00  0.00     0.042 A 
HETATM   25  C   UNL     1      42.898 -16.185   3.096  1.00  0.00     0.014 A 
HETATM   26  C   UNL     1      44.240 -18.375   4.267  1.00  0.00     0.030 A 
HETATM   27  N   UNL     1      44.266 -16.891   6.297  1.00  0.00    -0.365 N 
HETATM   28  C   UNL     1      43.824 -18.421   2.934  1.00  0.00     0.002 A 
HETATM   29  C   UNL     1      43.160 -17.343   2.355  1.00  0.00     0.001 A 
HETATM   30  H   UNL     1      44.747 -17.505   6.939  1.00  0.00     0.165 HD
HETATM   31  C   UNL     1      43.822 -15.632   6.592  1.00  0.00     0.097 A 
ENDBRANCH  21  22
BRANCH  21  32
HETATM   32  C   UNL     1      43.582 -12.769   5.988  1.00  0.00    -0.048 A 
HETATM   33  C   UNL     1      44.611 -12.178   5.237  1.00  0.00     0.011 A 
HETATM   34  C   UNL     1      45.506 -11.280   5.828  1.00  0.00     0.037 A 
HETATM   35  C   UNL     1      45.392 -10.946   7.176  1.00  0.00     0.068 A 
HETATM   36  C   UNL     1      44.394 -11.544   7.941  1.00  0.00     0.037 A 
HETATM   37  C   UNL     1      43.501 -12.448   7.353  1.00  0.00     0.011 A 
BRANCH  35  38
HETATM   38  O   UNL     1      46.315 -10.041   7.626  1.00  0.00    -0.356 OA
HETATM   39  C   UNL     1      45.814  -8.945   8.381  1.00  0.00     0.210 C 
ENDBRANCH  35  38
ENDBRANCH  21  32
ENDBRANCH   1  21
TORSDOF 7
ENDMDL
MODEL 6
REMARK VINA RESULT:      -8.3      2.712      5.746
REMARK  7 active torsions:
REMARK  status: ('A' for Active; 'I' for Inactive)
REMARK    1  A    between atoms: N_7  and  C_8 
REMARK    2  A    between atoms: C_8  and  C_9 
REMARK       I    between atoms: C_9  and  N_10 
REMARK    3  A    between atoms: N_10  and  C_11 
REMARK    4  A    between atoms: C_11  and  C_12 
REMARK    5  A    between atoms: C_12  and  C_13 
REMARK    6  A    between atoms: C_12  and  C_23 
REMARK    7  A    between atoms: C_26  and  O_27 
ROOT
HETATM    1  C   UNL     1      40.728 -15.535   1.219  1.00  0.00     0.136 C 
ENDROOT
BRANCH   1   2
HETATM    2  N   UNL     1      40.975 -14.358   0.402  1.00  0.00    -0.359 N 
HETATM    3  C   UNL     1      40.220 -14.104  -0.723  1.00  0.00     0.236 C 
HETATM    4  O   UNL     1      39.306 -14.837  -1.093  1.00  0.00    -0.272 OA
HETATM    5  H   UNL     1      41.666 -13.670   0.709  1.00  0.00     0.162 HD
BRANCH   3   6
HETATM    6  C   UNL     1      40.629 -12.854  -1.493  1.00  0.00     0.239 C 
BRANCH   6   7
HETATM    7  N   UNL     1      39.901 -11.703  -1.010  1.00  0.00    -0.259 N 
HETATM    8  C   UNL     1      38.734 -11.262  -1.544  1.00  0.00     0.326 A 
HETATM    9  N   UNL     1      38.287 -10.197  -0.805  1.00  0.00    -0.324 N 
HETATM   10  O   UNL     1      38.168 -11.706  -2.529  1.00  0.00    -0.247 OA
HETATM   11  C   UNL     1      39.189  -9.845   0.280  1.00  0.00     0.119 A 
HETATM   12  H   UNL     1      37.438  -9.706  -1.053  1.00  0.00     0.165 HD
HETATM   13  C   UNL     1      38.481  -9.960   1.650  1.00  0.00     0.019 C 
HETATM   14  C   UNL     1      40.269 -10.933   0.057  1.00  0.00     0.257 A 
HETATM   15  C   UNL     1      39.768  -8.446   0.025  1.00  0.00     0.041 C 
HETATM   16  C   UNL     1      38.025 -11.385   1.995  1.00  0.00     0.013 C 
HETATM   17  C   UNL     1      39.343  -9.402   2.795  1.00  0.00     0.007 C 
HETATM   18  C   UNL     1      39.819  -7.983   2.507  1.00  0.00     0.001 C 
HETATM   19  C   UNL     1      40.587  -7.907   1.195  1.00  0.00     0.003 C 
HETATM   20  O   UNL     1      41.270 -11.086   0.742  1.00  0.00    -0.270 OA
ENDBRANCH   6   7
ENDBRANCH   3   6
ENDBRANCH   1   2
BRANCH   1  21
HETATM   21  C   UNL     1      41.173 -15.387   2.688  1.00  0.00     0.071 C 
BRANCH  21  22
HETATM   22  C   UNL     1      41.862 -14.078   2.999  1.00  0.00    -0.020 A 
HETATM   23  C   UNL     1      41.392 -13.068   3.910  1.00  0.00    -0.001 A 
HETATM   24  C   UNL     1      42.327 -12.033   3.914  1.00  0.00     0.042 A 
HETATM   25  C   UNL     1      40.259 -12.944   4.741  1.00  0.00     0.014 A 
HETATM   26  C   UNL     1      42.192 -10.887   4.708  1.00  0.00     0.030 A 
HETATM   27  N   UNL     1      43.322 -12.384   3.033  1.00  0.00    -0.365 N 
HETATM   28  C   UNL     1      41.063 -10.795   5.527  1.00  0.00     0.002 A 
HETATM   29  C   UNL     1      40.108 -11.806   5.544  1.00  0.00     0.001 A 
HETATM   30  H   UNL     1      44.136 -11.819   2.836  1.00  0.00     0.165 HD
HETATM   31  C   UNL     1      43.052 -13.603   2.473  1.00  0.00     0.097 A 
ENDBRANCH  21  22
BRANCH  21  32
HETATM   32  C   UNL     1      42.142 -16.466   3.160  1.00  0.00    -0.048 A 
HETATM   33  C   UNL     1      42.468 -16.557   4.523  1.00  0.00     0.011 A 
HETATM   34  C   UNL     1      43.335 -17.549   4.988  1.00  0.00     0.037 A 
HETATM   35  C   UNL     1      43.891 -18.478   4.110  1.00  0.00     0.068 A 
HETATM   36  C   UNL     1      43.599 -18.386   2.752  1.00  0.00     0.037 A 
HETATM   37  C   UNL     1      42.735 -17.388   2.282  1.00  0.00     0.011 A 
BRANCH  35  38
HETATM   38  O   UNL     1      44.705 -19.410   4.694  1.00  0.00    -0.356 OA
HETATM   39  C   UNL     1      44.110 -20.660   5.018  1.00  0.00     0.210 C 
ENDBRANCH  35  38
ENDBRANCH  21  32
ENDBRANCH   1  21
TORSDOF 7
ENDMDL
MODEL 7
REMARK VINA RESULT:      -8.1      1.266      2.227
REMARK  7 active torsions:
REMARK  status: ('A' for Active; 'I' for Inactive)
REMARK    1  A    between atoms: N_7  and  C_8 
REMARK    2  A    between atoms: C_8  and  C_9 
REMARK       I    between atoms: C_9  and  N_10 
REMARK    3  A    between atoms: N_10  and  C_11 
REMARK    4  A    between atoms: C_11  and  C_12 
REMARK    5  A    between atoms: C_12  and  C_13 
REMARK    6  A    between atoms: C_12  and  C_23 
REMARK    7  A    between atoms: C_26  and  O_27 
ROOT
HETATM    1  C   UNL     1      41.704  -9.744   3.815  1.00  0.00     0.136 C 
ENDROOT
BRANCH   1   2
HETATM    2  N   UNL     1      41.203  -9.654   2.453  1.00  0.00    -0.359 N 
HETATM    3  C   UNL     1      40.223  -8.744   2.116  1.00  0.00     0.236 C 
HETATM    4  O   UNL     1      39.729  -7.965   2.927  1.00  0.00    -0.272 OA
HETATM    5  H   UNL     1      41.636 -10.219   1.721  1.00  0.00     0.162 HD
BRANCH   3   6
HETATM    6  C   UNL     1      39.777  -8.803   0.660  1.00  0.00     0.239 C 
BRANCH   6   7
HETATM    7  N   UNL     1      39.193 -10.091   0.363  1.00  0.00    -0.259 N 
HETATM    8  C   UNL     1      37.999 -10.515   0.848  1.00  0.00     0.326 A 
HETATM    9  N   UNL     1      37.721 -11.749   0.316  1.00  0.00    -0.324 N 
HETATM   10  O   UNL     1      37.283  -9.928   1.642  1.00  0.00    -0.247 OA
HETATM   11  C   UNL     1      38.776 -12.237  -0.558  1.00  0.00     0.119 A 
HETATM   12  H   UNL     1      36.881 -12.251   0.570  1.00  0.00     0.165 HD
HETATM   13  C   UNL     1      38.243 -12.477  -1.990  1.00  0.00     0.019 C 
HETATM   14  C   UNL     1      39.744 -11.032  -0.461  1.00  0.00     0.257 A 
HETATM   15  C   UNL     1      39.407 -13.492   0.061  1.00  0.00     0.041 C 
HETATM   16  C   UNL     1      37.744 -11.204  -2.688  1.00  0.00     0.013 C 
HETATM   17  C   UNL     1      39.279 -13.181  -2.882  1.00  0.00     0.007 C 
HETATM   18  C   UNL     1      39.806 -14.459  -2.238  1.00  0.00     0.001 C 
HETATM   19  C   UNL     1      40.403 -14.187  -0.864  1.00  0.00     0.003 C 
HETATM   20  O   UNL     1      40.813 -10.935  -1.047  1.00  0.00    -0.270 OA
ENDBRANCH   6   7
ENDBRANCH   3   6
ENDBRANCH   1   2
BRANCH   1  21
HETATM   21  C   UNL     1      42.544 -11.005   4.095  1.00  0.00     0.071 C 
BRANCH  21  22
HETATM   22  C   UNL     1      41.760 -12.296   4.052  1.00  0.00    -0.020 A 
HETATM   23  C   UNL     1      42.098 -13.470   3.290  1.00  0.00    -0.001 A 
HETATM   24  C   UNL     1      41.123 -14.435   3.544  1.00  0.00     0.042 A 
HETATM   25  C   UNL     1      43.152 -13.804   2.415  1.00  0.00     0.014 A 
HETATM   26  C   UNL     1      41.151 -15.714   2.975  1.00  0.00     0.030 A 
HETATM   27  N   UNL     1      40.217 -13.875   4.412  1.00  0.00    -0.365 N 
HETATM   28  C   UNL     1      42.211 -16.019   2.117  1.00  0.00     0.002 A 
HETATM   29  C   UNL     1      43.198 -15.078   1.837  1.00  0.00     0.001 A 
HETATM   30  H   UNL     1      39.402 -14.351   4.773  1.00  0.00     0.165 HD
HETATM   31  C   UNL     1      40.582 -12.593   4.719  1.00  0.00     0.097 A 
ENDBRANCH  21  22
BRANCH  21  32
HETATM   32  C   UNL     1      43.237 -11.007   5.453  1.00  0.00    -0.048 A 
HETATM   33  C   UNL     1      44.417 -11.748   5.629  1.00  0.00     0.011 A 
HETATM   34  C   UNL     1      45.086 -11.751   6.856  1.00  0.00     0.037 A 
HETATM   35  C   UNL     1      44.601 -11.012   7.934  1.00  0.00     0.068 A 
HETATM   36  C   UNL     1      43.417 -10.294   7.784  1.00  0.00     0.037 A 
HETATM   37  C   UNL     1      42.741 -10.295   6.558  1.00  0.00     0.011 A 
BRANCH  35  38
HETATM   38  O   UNL     1      45.359 -11.083   9.071  1.00  0.00    -0.356 OA
HETATM   39  C   UNL     1      45.164 -10.050  10.029  1.00  0.00     0.210 C 
ENDBRANCH  35  38
ENDBRANCH  21  32
ENDBRANCH   1  21
TORSDOF 7
ENDMDL
MODEL 8
REMARK VINA RESULT:      -8.1      2.549      7.214
REMARK  7 active torsions:
REMARK  status: ('A' for Active; 'I' for Inactive)
REMARK    1  A    between atoms: N_7  and  C_8 
REMARK    2  A    between atoms: C_8  and  C_9 
REMARK       I    between atoms: C_9  and  N_10 
REMARK    3  A    between atoms: N_10  and  C_11 
REMARK    4  A    between atoms: C_11  and  C_12 
REMARK    5  A    between atoms: C_12  and  C_13 
REMARK    6  A    between atoms: C_12  and  C_23 
REMARK    7  A    between atoms: C_26  and  O_27 
ROOT
HETATM    1  C   UNL     1      39.581  -9.746   1.084  1.00  0.00     0.136 C 
ENDROOT
BRANCH   1   2
HETATM    2  N   UNL     1      39.334 -10.867   1.976  1.00  0.00    -0.359 N 
HETATM    3  C   UNL     1      39.542 -10.751   3.335  1.00  0.00     0.236 C 
HETATM    4  O   UNL     1      39.934  -9.714   3.864  1.00  0.00    -0.272 OA
HETATM    5  H   UNL     1      38.928 -11.727   1.602  1.00  0.00     0.162 HD
BRANCH   3   6
HETATM    6  C   UNL     1      39.278 -12.026   4.128  1.00  0.00     0.239 C 
BRANCH   6   7
HETATM    7  N   UNL     1      40.474 -12.835   4.194  1.00  0.00    -0.259 N 
HETATM    8  C   UNL     1      41.411 -12.729   5.168  1.00  0.00     0.326 A 
HETATM    9  N   UNL     1      42.371 -13.687   4.962  1.00  0.00    -0.324 N 
HETATM   10  O   UNL     1      41.433 -11.912   6.075  1.00  0.00    -0.247 OA
HETATM   11  C   UNL     1      42.123 -14.487   3.773  1.00  0.00     0.119 A 
HETATM   12  H   UNL     1      43.175 -13.762   5.571  1.00  0.00     0.165 HD
HETATM   13  C   UNL     1      41.964 -15.983   4.134  1.00  0.00     0.019 C 
HETATM   14  C   UNL     1      40.800 -13.826   3.312  1.00  0.00     0.257 A 
HETATM   15  C   UNL     1      43.240 -14.236   2.751  1.00  0.00     0.041 C 
HETATM   16  C   UNL     1      40.759 -16.279   5.037  1.00  0.00     0.013 C 
HETATM   17  C   UNL     1      41.904 -16.875   2.884  1.00  0.00     0.007 C 
HETATM   18  C   UNL     1      43.084 -16.626   1.951  1.00  0.00     0.001 C 
HETATM   19  C   UNL     1      43.172 -15.163   1.540  1.00  0.00     0.003 C 
HETATM   20  O   UNL     1      40.149 -14.159   2.331  1.00  0.00    -0.270 OA
ENDBRANCH   6   7
ENDBRANCH   3   6
ENDBRANCH   1   2
BRANCH   1  21
HETATM   21  C   UNL     1      39.530 -10.111  -0.413  1.00  0.00     0.071 C 
BRANCH  21  22
HETATM   22  C   UNL     1      39.881 -11.550  -0.714  1.00  0.00    -0.020 A 
HETATM   23  C   UNL     1      39.099 -12.468  -1.500  1.00  0.00    -0.001 A 
HETATM   24  C   UNL     1      39.785 -13.682  -1.541  1.00  0.00     0.042 A 
HETATM   25  C   UNL     1      37.872 -12.373  -2.190  1.00  0.00     0.014 A 
HETATM   26  C   UNL     1      39.313 -14.800  -2.239  1.00  0.00     0.030 A 
HETATM   27  N   UNL     1      40.932 -13.522  -0.801  1.00  0.00    -0.365 N 
HETATM   28  C   UNL     1      38.099 -14.675  -2.920  1.00  0.00     0.002 A 
HETATM   29  C   UNL     1      37.385 -13.480  -2.895  1.00  0.00     0.001 A 
HETATM   30  H   UNL     1      41.625 -14.243  -0.660  1.00  0.00     0.165 HD
HETATM   31  C   UNL     1      40.998 -12.253  -0.295  1.00  0.00     0.097 A 
ENDBRANCH  21  22
BRANCH  21  32
HETATM   32  C   UNL     1      40.463  -9.284  -1.291  1.00  0.00    -0.048 A 
HETATM   33  C   UNL     1      41.480  -8.520  -0.695  1.00  0.00     0.011 A 
HETATM   34  C   UNL     1      42.365  -7.770  -1.475  1.00  0.00     0.037 A 
HETATM   35  C   UNL     1      42.263  -7.768  -2.865  1.00  0.00     0.068 A 
HETATM   36  C   UNL     1      41.243  -8.498  -3.470  1.00  0.00     0.037 A 
HETATM   37  C   UNL     1      40.351  -9.246  -2.690  1.00  0.00     0.011 A 
BRANCH  35  38
HETATM   38  O   UNL     1      43.201  -7.011  -3.512  1.00  0.00    -0.356 OA
HETATM   39  C   UNL     1      42.830  -6.488  -4.781  1.00  0.00     0.210 C 
ENDBRANCH  35  38
ENDBRANCH  21  32
ENDBRANCH   1  21
TORSDOF 7
ENDMDL
MODEL 9
REMARK VINA RESULT:      -8.0     17.628     20.639
REMARK  7 active torsions:
REMARK  status: ('A' for Active; 'I' for Inactive)
REMARK    1  A    between atoms: N_7  and  C_8 
REMARK    2  A    between atoms: C_8  and  C_9 
REMARK       I    between atoms: C_9  and  N_10 
REMARK    3  A    between atoms: N_10  and  C_11 
REMARK    4  A    between atoms: C_11  and  C_12 
REMARK    5  A    between atoms: C_12  and  C_13 
REMARK    6  A    between atoms: C_12  and  C_23 
REMARK    7  A    between atoms: C_26  and  O_27 
ROOT
HETATM    1  C   UNL     1      43.841 -29.358  -1.276  1.00  0.00     0.136 C 
ENDROOT
BRANCH   1   2
HETATM    2  N   UNL     1      44.016 -29.124   0.149  1.00  0.00    -0.359 N 
HETATM    3  C   UNL     1      43.529 -30.017   1.080  1.00  0.00     0.236 C 
HETATM    4  O   UNL     1      42.936 -31.048   0.769  1.00  0.00    -0.272 OA
HETATM    5  H   UNL     1      44.573 -28.326   0.462  1.00  0.00     0.162 HD
BRANCH   3   6
HETATM    6  C   UNL     1      43.755 -29.609   2.530  1.00  0.00     0.239 C 
BRANCH   6   7
HETATM    7  N   UNL     1      44.985 -30.183   3.029  1.00  0.00    -0.259 N 
HETATM    8  C   UNL     1      45.041 -31.248   3.867  1.00  0.00     0.326 A 
HETATM    9  N   UNL     1      46.358 -31.568   4.084  1.00  0.00    -0.324 N 
HETATM   10  O   UNL     1      44.096 -31.829   4.375  1.00  0.00    -0.247 OA
HETATM   11  C   UNL     1      47.276 -30.674   3.397  1.00  0.00     0.119 A 
HETATM   12  H   UNL     1      46.618 -32.325   4.702  1.00  0.00     0.165 HD
HETATM   13  C   UNL     1      48.167 -31.451   2.400  1.00  0.00     0.019 C 
HETATM   14  C   UNL     1      46.240 -29.755   2.702  1.00  0.00     0.257 A 
HETATM   15  C   UNL     1      48.089 -29.887   4.435  1.00  0.00     0.041 C 
HETATM   16  C   UNL     1      47.386 -32.124   1.263  1.00  0.00     0.013 C 
HETATM   17  C   UNL     1      49.280 -30.569   1.811  1.00  0.00     0.007 C 
HETATM   18  C   UNL     1      50.094 -29.879   2.900  1.00  0.00     0.001 C 
HETATM   19  C   UNL     1      49.208 -29.051   3.820  1.00  0.00     0.003 C 
HETATM   20  O   UNL     1      46.510 -28.817   1.964  1.00  0.00    -0.270 OA
ENDBRANCH   6   7
ENDBRANCH   3   6
ENDBRANCH   1   2
BRANCH   1  21
HETATM   21  C   UNL     1      44.881 -30.316  -1.888  1.00  0.00     0.071 C 
BRANCH  21  22
HETATM   22  C   UNL     1      46.285 -29.757  -1.942  1.00  0.00    -0.020 A 
HETATM   23  C   UNL     1      47.502 -30.523  -2.002  1.00  0.00    -0.001 A 
HETATM   24  C   UNL     1      48.567 -29.623  -2.053  1.00  0.00     0.042 A 
HETATM   25  C   UNL     1      47.795 -31.903  -2.028  1.00  0.00     0.014 A 
HETATM   26  C   UNL     1      49.904 -30.030  -2.134  1.00  0.00     0.030 A 
HETATM   27  N   UNL     1      48.029 -28.359  -2.011  1.00  0.00    -0.365 N 
HETATM   28  C   UNL     1      50.164 -31.403  -2.166  1.00  0.00     0.002 A 
HETATM   29  C   UNL     1      49.126 -32.329  -2.112  1.00  0.00     0.001 A 
HETATM   30  H   UNL     1      48.571 -27.507  -2.036  1.00  0.00     0.165 HD
HETATM   31  C   UNL     1      46.665 -28.425  -1.938  1.00  0.00     0.097 A 
ENDBRANCH  21  22
BRANCH  21  32
HETATM   32  C   UNL     1      44.571 -30.746  -3.318  1.00  0.00    -0.048 A 
HETATM   33  C   UNL     1      44.440 -32.111  -3.618  1.00  0.00     0.011 A 
HETATM   34  C   UNL     1      44.133 -32.535  -4.915  1.00  0.00     0.037 A 
HETATM   35  C   UNL     1      43.943 -31.609  -5.940  1.00  0.00     0.068 A 
HETATM   36  C   UNL     1      44.097 -30.252  -5.664  1.00  0.00     0.037 A 
HETATM   37  C   UNL     1      44.410 -29.826  -4.367  1.00  0.00     0.011 A 
BRANCH  35  38
HETATM   38  O   UNL     1      43.627 -32.150  -7.155  1.00  0.00    -0.356 OA
HETATM   39  C   UNL     1      44.108 -31.460  -8.303  1.00  0.00     0.210 C 
ENDBRANCH  35  38
ENDBRANCH  21  32
ENDBRANCH   1  21
TORSDOF 7
ENDMDL
MODEL 10
REMARK VINA RESULT:      -8.0      3.718      8.082
REMARK  7 active torsions:
REMARK  status: ('A' for Active; 'I' for Inactive)
REMARK    1  A    between atoms: N_7  and  C_8 
REMARK    2  A    between atoms: C_8  and  C_9 
REMARK       I    between atoms: C_9  and  N_10 
REMARK    3  A    between atoms: N_10  and  C_11 
REMARK    4  A    between atoms: C_11  and  C_12 
REMARK    5  A    between atoms: C_12  and  C_13 
REMARK    6  A    between atoms: C_12  and  C_23 
REMARK    7  A    between atoms: C_26  and  O_27 
ROOT
HETATM    1  C   UNL     1      42.213 -14.167   5.762  1.00  0.00     0.136 C 
ENDROOT
BRANCH   1   2
HETATM    2  N   UNL     1      41.536 -12.889   5.604  1.00  0.00    -0.359 N 
HETATM    3  C   UNL     1      40.229 -12.723   6.012  1.00  0.00     0.236 C 
HETATM    4  O   UNL     1      39.573 -13.622   6.531  1.00  0.00    -0.272 OA
HETATM    5  H   UNL     1      42.059 -12.084   5.255  1.00  0.00     0.162 HD
BRANCH   3   6
HETATM    6  C   UNL     1      39.650 -11.340   5.739  1.00  0.00     0.239 C 
BRANCH   6   7
HETATM    7  N   UNL     1      40.158 -10.383   6.697  1.00  0.00    -0.259 N 
HETATM    8  C   UNL     1      41.257  -9.615   6.494  1.00  0.00     0.326 A 
HETATM    9  N   UNL     1      41.413  -8.778   7.570  1.00  0.00    -0.324 N 
HETATM   10  O   UNL     1      42.011  -9.656   5.536  1.00  0.00    -0.247 OA
HETATM   11  C   UNL     1      40.403  -8.982   8.595  1.00  0.00     0.119 A 
HETATM   12  H   UNL     1      42.192  -8.135   7.624  1.00  0.00     0.165 HD
HETATM   13  C   UNL     1      39.583  -7.692   8.832  1.00  0.00     0.019 C 
HETATM   14  C   UNL     1      39.587 -10.106   7.907  1.00  0.00     0.257 A 
HETATM   15  C   UNL     1      41.074  -9.504   9.873  1.00  0.00     0.041 C 
HETATM   16  C   UNL     1      38.780  -7.233   7.606  1.00  0.00     0.013 C 
HETATM   17  C   UNL     1      38.647  -7.816  10.045  1.00  0.00     0.007 C 
HETATM   18  C   UNL     1      39.395  -8.264  11.295  1.00  0.00     0.001 C 
HETATM   19  C   UNL     1      40.126  -9.580  11.067  1.00  0.00     0.003 C 
HETATM   20  O   UNL     1      38.585 -10.635   8.367  1.00  0.00    -0.270 OA
ENDBRANCH   6   7
ENDBRANCH   3   6
ENDBRANCH   1   2
BRANCH   1  21
HETATM   21  C   UNL     1      42.552 -14.868   4.433  1.00  0.00     0.071 C 
BRANCH  21  22
HETATM   22  C   UNL     1      41.399 -14.945   3.459  1.00  0.00    -0.020 A 
HETATM   23  C   UNL     1      41.212 -14.116   2.297  1.00  0.00    -0.001 A 
HETATM   24  C   UNL     1      40.034 -14.525   1.670  1.00  0.00     0.042 A 
HETATM   25  C   UNL     1      41.944 -13.060   1.715  1.00  0.00     0.014 A 
HETATM   26  C   UNL     1      39.556 -13.938   0.492  1.00  0.00     0.030 A 
HETATM   27  N   UNL     1      39.512 -15.551   2.421  1.00  0.00    -0.365 N 
HETATM   28  C   UNL     1      40.305 -12.899  -0.066  1.00  0.00     0.002 A 
HETATM   29  C   UNL     1      41.482 -12.463   0.536  1.00  0.00     0.001 A 
HETATM   30  H   UNL     1      38.658 -16.043   2.199  1.00  0.00     0.165 HD
HETATM   31  C   UNL     1      40.315 -15.808   3.498  1.00  0.00     0.097 A 
ENDBRANCH  21  22
BRANCH  21  32
HETATM   32  C   UNL     1      43.035 -16.306   4.589  1.00  0.00    -0.048 A 
HETATM   33  C   UNL     1      43.474 -17.017   3.460  1.00  0.00     0.011 A 
HETATM   34  C   UNL     1      43.943 -18.329   3.576  1.00  0.00     0.037 A 
HETATM   35  C   UNL     1      43.994 -18.960   4.817  1.00  0.00     0.068 A 
HETATM   36  C   UNL     1      43.537 -18.278   5.943  1.00  0.00     0.037 A 
HETATM   37  C   UNL     1      43.060 -16.966   5.829  1.00  0.00     0.011 A 
BRANCH  35  38
HETATM   38  O   UNL     1      44.493 -20.233   4.798  1.00  0.00    -0.356 OA
HETATM   39  C   UNL     1      43.935 -21.119   3.835  1.00  0.00     0.210 C 
ENDBRANCH  35  38
ENDBRANCH  21  32
ENDBRANCH   1  21
TORSDOF 7
ENDMDL
