MODEL 1
REMARK VINA RESULT:      -9.6      0.000      0.000
REMARK  6 active torsions:
REMARK  status: ('A' for Active; 'I' for Inactive)
REMARK    1  A    between atoms: C_3  and  C_4 
REMARK    2  A    between atoms: C_4  and  C_5 
REMARK       I    between atoms: C_5  and  N_6 
REMARK    3  A    between atoms: N_6  and  C_7 
REMARK    4  A    between atoms: C_7  and  C_8 
REMARK    5  A    between atoms: C_8  and  C_9 
REMARK    6  A    between atoms: C_28  and  O_29 
ROOT
HETATM    1  C   UNL     1      41.175 -13.865   4.024  1.00  0.00     0.222 C 
HETATM    2  N   UNL     1      40.630 -13.337   2.875  1.00  0.00    -0.360 N 
HETATM    3  O   UNL     1      40.502 -14.191   4.999  1.00  0.00    -0.273 OA
HETATM    4  H   UNL     1      41.226 -13.177   2.065  1.00  0.00     0.162 HD
ENDROOT
BRANCH   1   5
HETATM    5  C   UNL     1      42.685 -14.006   4.013  1.00  0.00     0.148 C 
BRANCH   5   6
HETATM    6  C   UNL     1      43.083 -15.458   3.991  1.00  0.00     0.033 C 
HETATM    7  C   UNL     1      43.054 -16.263   2.910  1.00  0.00    -0.036 C 
HETATM    8  C   UNL     1      42.672 -15.793   1.529  1.00  0.00     0.050 C 
HETATM    9  C   UNL     1      43.391 -17.693   3.074  1.00  0.00     0.005 A 
HETATM   10  C   UNL     1      43.562 -18.212   4.361  1.00  0.00     0.099 A 
HETATM   11  C   UNL     1      43.498 -18.583   1.998  1.00  0.00     0.017 A 
HETATM   12  O   UNL     1      43.577 -17.340   5.471  1.00  0.00    -0.274 OA
HETATM   13  C   UNL     1      43.762 -19.583   4.617  1.00  0.00     0.006 A 
HETATM   14  C   UNL     1      43.510 -15.968   5.317  1.00  0.00     0.295 C 
HETATM   15  O   UNL     1      43.750 -15.205   6.250  1.00  0.00    -0.259 OA
HETATM   16  C   UNL     1      43.876 -20.098   6.023  1.00  0.00     0.054 C 
HETATM   17  C   UNL     1      43.876 -20.431   3.511  1.00  0.00     0.074 A 
HETATM   18  C   UNL     1      43.750 -19.939   2.215  1.00  0.00     0.038 A 
BRANCH  17  19
HETATM   19  O   UNL     1      44.120 -21.770   3.614  1.00  0.00    -0.360 OA
HETATM   20  H   UNL     1      44.328 -21.996   4.534  1.00  0.00     0.217 HD
ENDBRANCH  17  19
ENDBRANCH   5   6
ENDBRANCH   1   5
BRANCH   2  21
HETATM   21  C   UNL     1      39.207 -13.051   2.793  1.00  0.00     0.127 C 
BRANCH  21  22
HETATM   22  C   UNL     1      38.938 -11.710   2.102  1.00  0.00     0.060 C 
BRANCH  22  23
HETATM   23  C   UNL     1      39.839 -11.459   0.934  1.00  0.00    -0.029 A 
HETATM   24  C   UNL     1      39.914 -12.196  -0.290  1.00  0.00    -0.000 A 
HETATM   25  C   UNL     1      40.923 -11.617  -1.065  1.00  0.00     0.043 A 
HETATM   26  C   UNL     1      39.224 -13.309  -0.812  1.00  0.00     0.038 A 
HETATM   27  C   UNL     1      41.281 -12.094  -2.331  1.00  0.00     0.032 A 
HETATM   28  N   UNL     1      41.434 -10.564  -0.343  1.00  0.00    -0.365 N 
HETATM   29  C   UNL     1      40.583 -13.200  -2.825  1.00  0.00     0.026 A 
HETATM   30  C   UNL     1      39.570 -13.794  -2.076  1.00  0.00     0.035 A 
HETATM   31 CL   UNL     1      38.729 -15.154  -2.718  1.00  0.00    -0.084 Cl
HETATM   32  H   UNL     1      42.182  -9.961  -0.656  1.00  0.00     0.165 HD
HETATM   33  C   UNL     1      40.790 -10.460   0.858  1.00  0.00     0.096 A 
ENDBRANCH  22  23
ENDBRANCH  21  22
ENDBRANCH   2  21
TORSDOF 6
ENDMDL
MODEL 2
REMARK VINA RESULT:      -9.5      1.167      2.053
REMARK  6 active torsions:
REMARK  status: ('A' for Active; 'I' for Inactive)
REMARK    1  A    between atoms: C_3  and  C_4 
REMARK    2  A    between atoms: C_4  and  C_5 
REMARK       I    between atoms: C_5  and  N_6 
REMARK    3  A    between atoms: N_6  and  C_7 
REMARK    4  A    between atoms: C_7  and  C_8 
REMARK    5  A    between atoms: C_8  and  C_9 
REMARK    6  A    between atoms: C_28  and  O_29 
ROOT
HETATM    1  C   UNL     1      41.352 -13.537   3.568  1.00  0.00     0.222 C 
HETATM    2  N   UNL     1      40.500 -13.482   2.486  1.00  0.00    -0.360 N 
HETATM    3  O   UNL     1      41.006 -13.252   4.712  1.00  0.00    -0.273 OA
HETATM    4  H   UNL     1      40.816 -13.822   1.581  1.00  0.00     0.162 HD
ENDROOT
BRANCH   1   5
HETATM    5  C   UNL     1      42.771 -13.965   3.246  1.00  0.00     0.148 C 
BRANCH   5   6
HETATM    6  C   UNL     1      42.910 -15.461   3.343  1.00  0.00     0.033 C 
HETATM    7  C   UNL     1      43.290 -16.143   4.443  1.00  0.00    -0.036 C 
HETATM    8  C   UNL     1      43.570 -15.493   5.774  1.00  0.00     0.050 C 
HETATM    9  C   UNL     1      43.468 -17.608   4.349  1.00  0.00     0.005 A 
HETATM   10  C   UNL     1      43.408 -18.225   3.096  1.00  0.00     0.099 A 
HETATM   11  C   UNL     1      43.749 -18.417   5.456  1.00  0.00     0.017 A 
HETATM   12  O   UNL     1      43.016 -17.477   1.964  1.00  0.00    -0.274 OA
HETATM   13  C   UNL     1      43.687 -19.592   2.898  1.00  0.00     0.006 A 
HETATM   14  C   UNL     1      42.606 -16.161   2.071  1.00  0.00     0.295 C 
HETATM   15  O   UNL     1      42.054 -15.583   1.138  1.00  0.00    -0.259 OA
HETATM   16  C   UNL     1      43.671 -20.192   1.521  1.00  0.00     0.054 C 
HETATM   17  C   UNL     1      43.949 -20.363   4.034  1.00  0.00     0.074 A 
HETATM   18  C   UNL     1      43.977 -19.786   5.300  1.00  0.00     0.038 A 
BRANCH  17  19
HETATM   19  O   UNL     1      44.186 -21.707   3.991  1.00  0.00    -0.360 OA
HETATM   20  H   UNL     1      45.131 -21.878   4.125  1.00  0.00     0.217 HD
ENDBRANCH  17  19
ENDBRANCH   5   6
ENDBRANCH   1   5
BRANCH   2  21
HETATM   21  C   UNL     1      39.142 -12.986   2.638  1.00  0.00     0.127 C 
BRANCH  21  22
HETATM   22  C   UNL     1      38.946 -11.645   1.923  1.00  0.00     0.060 C 
BRANCH  22  23
HETATM   23  C   UNL     1      39.852 -11.468   0.746  1.00  0.00    -0.029 A 
HETATM   24  C   UNL     1      39.918 -12.268  -0.439  1.00  0.00    -0.000 A 
HETATM   25  C   UNL     1      40.935 -11.745  -1.241  1.00  0.00     0.043 A 
HETATM   26  C   UNL     1      39.211 -13.396  -0.903  1.00  0.00     0.038 A 
HETATM   27  C   UNL     1      41.288 -12.293  -2.479  1.00  0.00     0.032 A 
HETATM   28  N   UNL     1      41.461 -10.664  -0.573  1.00  0.00    -0.365 N 
HETATM   29  C   UNL     1      40.574 -13.412  -2.917  1.00  0.00     0.026 A 
HETATM   30  C   UNL     1      39.552 -13.951  -2.141  1.00  0.00     0.035 A 
HETATM   31 CL   UNL     1      38.691 -15.330  -2.713  1.00  0.00    -0.084 Cl
HETATM   32  H   UNL     1      42.219 -10.089  -0.916  1.00  0.00     0.165 HD
HETATM   33  C   UNL     1      40.818 -10.488   0.620  1.00  0.00     0.096 A 
ENDBRANCH  22  23
ENDBRANCH  21  22
ENDBRANCH   2  21
TORSDOF 6
ENDMDL
MODEL 3
REMARK VINA RESULT:      -9.3      5.576      7.645
REMARK  6 active torsions:
REMARK  status: ('A' for Active; 'I' for Inactive)
REMARK    1  A    between atoms: C_3  and  C_4 
REMARK    2  A    between atoms: C_4  and  C_5 
REMARK       I    between atoms: C_5  and  N_6 
REMARK    3  A    between atoms: N_6  and  C_7 
REMARK    4  A    between atoms: C_7  and  C_8 
REMARK    5  A    between atoms: C_8  and  C_9 
REMARK    6  A    between atoms: C_28  and  O_29 
ROOT
HETATM    1  C   UNL     1      43.156 -13.416   5.617  1.00  0.00     0.222 C 
HETATM    2  N   UNL     1      43.720 -13.006   6.804  1.00  0.00    -0.360 N 
HETATM    3  O   UNL     1      43.457 -12.934   4.527  1.00  0.00    -0.273 OA
HETATM    4  H   UNL     1      43.503 -13.508   7.663  1.00  0.00     0.162 HD
ENDROOT
BRANCH   1   5
HETATM    5  C   UNL     1      42.112 -14.509   5.746  1.00  0.00     0.148 C 
BRANCH   5   6
HETATM    6  C   UNL     1      42.644 -15.817   5.224  1.00  0.00     0.033 C 
HETATM    7  C   UNL     1      42.476 -16.289   3.971  1.00  0.00    -0.036 C 
HETATM    8  C   UNL     1      41.771 -15.525   2.879  1.00  0.00     0.050 C 
HETATM    9  C   UNL     1      42.983 -17.637   3.641  1.00  0.00     0.005 A 
HETATM   10  C   UNL     1      43.468 -18.456   4.666  1.00  0.00     0.099 A 
HETATM   11  C   UNL     1      42.958 -18.169   2.346  1.00  0.00     0.017 A 
HETATM   12  O   UNL     1      43.622 -17.932   5.968  1.00  0.00    -0.274 OA
HETATM   13  C   UNL     1      43.855 -19.795   4.463  1.00  0.00     0.006 A 
HETATM   14  C   UNL     1      43.384 -16.598   6.245  1.00  0.00     0.295 C 
HETATM   15  O   UNL     1      43.732 -16.092   7.310  1.00  0.00    -0.259 OA
HETATM   16  C   UNL     1      44.309 -20.651   5.611  1.00  0.00     0.054 C 
HETATM   17  C   UNL     1      43.826 -20.278   3.151  1.00  0.00     0.074 A 
HETATM   18  C   UNL     1      43.386 -19.476   2.102  1.00  0.00     0.038 A 
BRANCH  17  19
HETATM   19  O   UNL     1      44.222 -21.538   2.806  1.00  0.00    -0.360 OA
HETATM   20  H   UNL     1      43.470 -22.028   2.436  1.00  0.00     0.217 HD
ENDBRANCH  17  19
ENDBRANCH   5   6
ENDBRANCH   1   5
BRANCH   2  21
HETATM   21  C   UNL     1      44.655 -11.894   6.834  1.00  0.00     0.127 C 
BRANCH  21  22
HETATM   22  C   UNL     1      43.965 -10.583   7.225  1.00  0.00     0.060 C 
BRANCH  22  23
HETATM   23  C   UNL     1      44.287 -10.142   8.618  1.00  0.00    -0.029 A 
HETATM   24  C   UNL     1      43.402  -9.561   9.581  1.00  0.00    -0.000 A 
HETATM   25  C   UNL     1      44.154  -9.281  10.725  1.00  0.00     0.043 A 
HETATM   26  C   UNL     1      42.030  -9.238   9.586  1.00  0.00     0.038 A 
HETATM   27  C   UNL     1      43.609  -8.691  11.871  1.00  0.00     0.032 A 
HETATM   28  N   UNL     1      45.444  -9.685  10.470  1.00  0.00    -0.365 N 
HETATM   29  C   UNL     1      42.247  -8.378  11.851  1.00  0.00     0.026 A 
HETATM   30  C   UNL     1      41.473  -8.650  10.726  1.00  0.00     0.035 A 
HETATM   31 CL   UNL     1      39.796  -8.253  10.736  1.00  0.00    -0.084 Cl
HETATM   32  H   UNL     1      46.212  -9.603  11.121  1.00  0.00     0.165 HD
HETATM   33  C   UNL     1      45.535 -10.204   9.209  1.00  0.00     0.096 A 
ENDBRANCH  22  23
ENDBRANCH  21  22
ENDBRANCH   2  21
TORSDOF 6
ENDMDL
MODEL 4
REMARK VINA RESULT:      -9.3      1.725      2.173
REMARK  6 active torsions:
REMARK  status: ('A' for Active; 'I' for Inactive)
REMARK    1  A    between atoms: C_3  and  C_4 
REMARK    2  A    between atoms: C_4  and  C_5 
REMARK       I    between atoms: C_5  and  N_6 
REMARK    3  A    between atoms: N_6  and  C_7 
REMARK    4  A    between atoms: C_7  and  C_8 
REMARK    5  A    between atoms: C_8  and  C_9 
REMARK    6  A    between atoms: C_28  and  O_29 
ROOT
HETATM    1  C   UNL     1      41.533 -14.135   5.757  1.00  0.00     0.222 C 
HETATM    2  N   UNL     1      41.161 -13.135   4.886  1.00  0.00    -0.360 N 
HETATM    3  O   UNL     1      40.727 -14.781   6.424  1.00  0.00    -0.273 OA
HETATM    4  H   UNL     1      41.863 -12.702   4.291  1.00  0.00     0.162 HD
ENDROOT
BRANCH   1   5
HETATM    5  C   UNL     1      43.026 -14.381   5.852  1.00  0.00     0.148 C 
BRANCH   5   6
HETATM    6  C   UNL     1      43.367 -15.772   5.387  1.00  0.00     0.033 C 
HETATM    7  C   UNL     1      43.314 -16.208   4.112  1.00  0.00    -0.036 C 
HETATM    8  C   UNL     1      42.962 -15.325   2.941  1.00  0.00     0.050 C 
HETATM    9  C   UNL     1      43.592 -17.632   3.830  1.00  0.00     0.005 A 
HETATM   10  C   UNL     1      43.732 -18.525   4.898  1.00  0.00     0.099 A 
HETATM   11  C   UNL     1      43.673 -18.156   2.534  1.00  0.00     0.017 A 
HETATM   12  O   UNL     1      43.773 -18.035   6.221  1.00  0.00    -0.274 OA
HETATM   13  C   UNL     1      43.875 -19.916   4.723  1.00  0.00     0.006 A 
HETATM   14  C   UNL     1      43.762 -16.679   6.492  1.00  0.00     0.295 C 
HETATM   15  O   UNL     1      44.025 -16.246   7.612  1.00  0.00    -0.259 OA
HETATM   16  C   UNL     1      43.957 -20.839   5.905  1.00  0.00     0.054 C 
HETATM   17  C   UNL     1      43.964 -20.391   3.411  1.00  0.00     0.074 A 
HETATM   18  C   UNL     1      43.868 -19.523   2.327  1.00  0.00     0.038 A 
BRANCH  17  19
HETATM   19  O   UNL     1      44.154 -21.706   3.100  1.00  0.00    -0.360 OA
HETATM   20  H   UNL     1      44.191 -22.234   3.913  1.00  0.00     0.217 HD
ENDBRANCH  17  19
ENDBRANCH   5   6
ENDBRANCH   1   5
BRANCH   2  21
HETATM   21  C   UNL     1      39.770 -12.726   4.780  1.00  0.00     0.127 C 
BRANCH  21  22
HETATM   22  C   UNL     1      39.461 -12.122   3.406  1.00  0.00     0.060 C 
BRANCH  22  23
HETATM   23  C   UNL     1      39.621 -13.100   2.285  1.00  0.00    -0.029 A 
HETATM   24  C   UNL     1      39.923 -12.822   0.914  1.00  0.00    -0.000 A 
HETATM   25  C   UNL     1      39.940 -14.042   0.233  1.00  0.00     0.043 A 
HETATM   26  C   UNL     1      40.178 -11.643   0.183  1.00  0.00     0.038 A 
HETATM   27  C   UNL     1      40.191 -14.146  -1.140  1.00  0.00     0.032 A 
HETATM   28  N   UNL     1      39.666 -15.024   1.156  1.00  0.00    -0.365 N 
HETATM   29  C   UNL     1      40.438 -12.964  -1.842  1.00  0.00     0.026 A 
HETATM   30  C   UNL     1      40.433 -11.734  -1.188  1.00  0.00     0.035 A 
HETATM   31 CL   UNL     1      40.744 -10.296  -2.086  1.00  0.00    -0.084 Cl
HETATM   32  H   UNL     1      39.610 -16.011   0.947  1.00  0.00     0.165 HD
HETATM   33  C   UNL     1      39.475 -14.470   2.391  1.00  0.00     0.096 A 
ENDBRANCH  22  23
ENDBRANCH  21  22
ENDBRANCH   2  21
TORSDOF 6
ENDMDL
MODEL 5
REMARK VINA RESULT:      -9.2      5.172      7.322
REMARK  6 active torsions:
REMARK  status: ('A' for Active; 'I' for Inactive)
REMARK    1  A    between atoms: C_3  and  C_4 
REMARK    2  A    between atoms: C_4  and  C_5 
REMARK       I    between atoms: C_5  and  N_6 
REMARK    3  A    between atoms: N_6  and  C_7 
REMARK    4  A    between atoms: C_7  and  C_8 
REMARK    5  A    between atoms: C_8  and  C_9 
REMARK    6  A    between atoms: C_28  and  O_29 
ROOT
HETATM    1  C   UNL     1      42.032 -13.461   4.212  1.00  0.00     0.222 C 
HETATM    2  N   UNL     1      42.472 -12.352   4.900  1.00  0.00    -0.360 N 
HETATM    3  O   UNL     1      40.934 -13.981   4.404  1.00  0.00    -0.273 OA
HETATM    4  H   UNL     1      43.348 -11.909   4.630  1.00  0.00     0.162 HD
ENDROOT
BRANCH   1   5
HETATM    5  C   UNL     1      43.012 -14.017   3.197  1.00  0.00     0.148 C 
BRANCH   5   6
HETATM    6  C   UNL     1      43.079 -15.519   3.289  1.00  0.00     0.033 C 
HETATM    7  C   UNL     1      43.511 -16.220   4.357  1.00  0.00    -0.036 C 
HETATM    8  C   UNL     1      43.933 -15.585   5.659  1.00  0.00     0.050 C 
HETATM    9  C   UNL     1      43.603 -17.692   4.256  1.00  0.00     0.005 A 
HETATM   10  C   UNL     1      43.409 -18.305   3.015  1.00  0.00     0.099 A 
HETATM   11  C   UNL     1      43.930 -18.515   5.341  1.00  0.00     0.017 A 
HETATM   12  O   UNL     1      42.966 -17.539   1.916  1.00  0.00    -0.274 OA
HETATM   13  C   UNL     1      43.598 -19.686   2.801  1.00  0.00     0.006 A 
HETATM   14  C   UNL     1      42.636 -16.202   2.050  1.00  0.00     0.295 C 
HETATM   15  O   UNL     1      42.041 -15.596   1.162  1.00  0.00    -0.259 OA
HETATM   16  C   UNL     1      43.438 -20.285   1.433  1.00  0.00     0.054 C 
HETATM   17  C   UNL     1      43.911 -20.469   3.916  1.00  0.00     0.074 A 
HETATM   18  C   UNL     1      44.072 -19.894   5.173  1.00  0.00     0.038 A 
BRANCH  17  19
HETATM   19  O   UNL     1      44.072 -21.824   3.860  1.00  0.00    -0.360 OA
HETATM   20  H   UNL     1      44.999 -22.036   3.669  1.00  0.00     0.217 HD
ENDBRANCH  17  19
ENDBRANCH   5   6
ENDBRANCH   1   5
BRANCH   2  21
HETATM   21  C   UNL     1      41.675 -11.784   5.975  1.00  0.00     0.127 C 
BRANCH  21  22
HETATM   22  C   UNL     1      42.163 -10.384   6.362  1.00  0.00     0.060 C 
BRANCH  22  23
HETATM   23  C   UNL     1      43.287 -10.405   7.350  1.00  0.00    -0.029 A 
HETATM   24  C   UNL     1      43.290  -9.894   8.686  1.00  0.00    -0.000 A 
HETATM   25  C   UNL     1      44.566 -10.107   9.213  1.00  0.00     0.043 A 
HETATM   26  C   UNL     1      42.326  -9.262   9.499  1.00  0.00     0.038 A 
HETATM   27  C   UNL     1      44.934  -9.716  10.505  1.00  0.00     0.032 A 
HETATM   28  N   UNL     1      45.308 -10.730   8.236  1.00  0.00    -0.365 N 
HETATM   29  C   UNL     1      43.962  -9.090  11.291  1.00  0.00     0.026 A 
HETATM   30  C   UNL     1      42.680  -8.870  10.794  1.00  0.00     0.035 A 
HETATM   31 CL   UNL     1      41.506  -8.096  11.792  1.00  0.00    -0.084 Cl
HETATM   32  H   UNL     1      46.275 -11.005   8.335  1.00  0.00     0.165 HD
HETATM   33  C   UNL     1      44.549 -10.915   7.115  1.00  0.00     0.096 A 
ENDBRANCH  22  23
ENDBRANCH  21  22
ENDBRANCH   2  21
TORSDOF 6
ENDMDL
MODEL 6
REMARK VINA RESULT:      -9.2      4.613      6.652
REMARK  6 active torsions:
REMARK  status: ('A' for Active; 'I' for Inactive)
REMARK    1  A    between atoms: C_3  and  C_4 
REMARK    2  A    between atoms: C_4  and  C_5 
REMARK       I    between atoms: C_5  and  N_6 
REMARK    3  A    between atoms: N_6  and  C_7 
REMARK    4  A    between atoms: C_7  and  C_8 
REMARK    5  A    between atoms: C_8  and  C_9 
REMARK    6  A    between atoms: C_28  and  O_29 
ROOT
HETATM    1  C   UNL     1      41.713 -13.508   4.247  1.00  0.00     0.222 C 
HETATM    2  N   UNL     1      41.914 -12.430   5.081  1.00  0.00    -0.360 N 
HETATM    3  O   UNL     1      40.626 -14.065   4.117  1.00  0.00    -0.273 OA
HETATM    4  H   UNL     1      42.811 -11.950   5.074  1.00  0.00     0.162 HD
ENDROOT
BRANCH   1   5
HETATM    5  C   UNL     1      42.946 -13.978   3.498  1.00  0.00     0.148 C 
BRANCH   5   6
HETATM    6  C   UNL     1      43.037 -15.481   3.513  1.00  0.00     0.033 C 
HETATM    7  C   UNL     1      43.433 -16.232   4.560  1.00  0.00    -0.036 C 
HETATM    8  C   UNL     1      43.786 -15.663   5.911  1.00  0.00     0.050 C 
HETATM    9  C   UNL     1      43.556 -17.695   4.384  1.00  0.00     0.005 A 
HETATM   10  C   UNL     1      43.428 -18.243   3.104  1.00  0.00     0.099 A 
HETATM   11  C   UNL     1      43.850 -18.570   5.437  1.00  0.00     0.017 A 
HETATM   12  O   UNL     1      43.021 -17.424   2.029  1.00  0.00    -0.274 OA
HETATM   13  C   UNL     1      43.652 -19.606   2.825  1.00  0.00     0.006 A 
HETATM   14  C   UNL     1      42.661 -16.103   2.219  1.00  0.00     0.295 C 
HETATM   15  O   UNL     1      42.095 -15.458   1.339  1.00  0.00    -0.259 OA
HETATM   16  C   UNL     1      43.564 -20.132   1.421  1.00  0.00     0.054 C 
HETATM   17  C   UNL     1      43.929 -20.444   3.910  1.00  0.00     0.074 A 
HETATM   18  C   UNL     1      44.025 -19.936   5.202  1.00  0.00     0.038 A 
BRANCH  17  19
HETATM   19  O   UNL     1      44.117 -21.791   3.788  1.00  0.00    -0.360 OA
HETATM   20  H   UNL     1      44.879 -22.065   4.323  1.00  0.00     0.217 HD
ENDBRANCH  17  19
ENDBRANCH   5   6
ENDBRANCH   1   5
BRANCH   2  21
HETATM   21  C   UNL     1      40.842 -11.947   5.936  1.00  0.00     0.127 C 
BRANCH  21  22
HETATM   22  C   UNL     1      40.804 -10.416   5.985  1.00  0.00     0.060 C 
BRANCH  22  23
HETATM   23  C   UNL     1      41.270  -9.858   7.293  1.00  0.00    -0.029 A 
HETATM   24  C   UNL     1      42.600  -9.857   7.821  1.00  0.00    -0.000 A 
HETATM   25  C   UNL     1      42.548  -9.259   9.083  1.00  0.00     0.043 A 
HETATM   26  C   UNL     1      43.847 -10.316   7.348  1.00  0.00     0.038 A 
HETATM   27  C   UNL     1      43.674  -9.101   9.900  1.00  0.00     0.032 A 
HETATM   28  N   UNL     1      41.239  -8.904   9.309  1.00  0.00    -0.365 N 
HETATM   29  C   UNL     1      44.897  -9.566   9.409  1.00  0.00     0.026 A 
HETATM   30  C   UNL     1      44.979 -10.161   8.153  1.00  0.00     0.035 A 
HETATM   31 CL   UNL     1      46.505 -10.721   7.579  1.00  0.00    -0.084 Cl
HETATM   32  H   UNL     1      40.901  -8.452  10.147  1.00  0.00     0.165 HD
HETATM   33  C   UNL     1      40.464  -9.257   8.240  1.00  0.00     0.096 A 
ENDBRANCH  22  23
ENDBRANCH  21  22
ENDBRANCH   2  21
TORSDOF 6
ENDMDL
MODEL 7
REMARK VINA RESULT:      -9.0      7.031     10.276
REMARK  6 active torsions:
REMARK  status: ('A' for Active; 'I' for Inactive)
REMARK    1  A    between atoms: C_3  and  C_4 
REMARK    2  A    between atoms: C_4  and  C_5 
REMARK       I    between atoms: C_5  and  N_6 
REMARK    3  A    between atoms: N_6  and  C_7 
REMARK    4  A    between atoms: C_7  and  C_8 
REMARK    5  A    between atoms: C_8  and  C_9 
REMARK    6  A    between atoms: C_28  and  O_29 
ROOT
HETATM    1  C   UNL     1      44.862 -11.126   7.658  1.00  0.00     0.222 C 
HETATM    2  N   UNL     1      43.673 -11.801   7.830  1.00  0.00    -0.360 N 
HETATM    3  O   UNL     1      45.353 -10.899   6.555  1.00  0.00    -0.273 OA
HETATM    4  H   UNL     1      43.267 -11.874   8.760  1.00  0.00     0.162 HD
ENDROOT
BRANCH   1   5
HETATM    5  C   UNL     1      45.542 -10.689   8.941  1.00  0.00     0.148 C 
BRANCH   5   6
HETATM    6  C   UNL     1      44.758  -9.593   9.613  1.00  0.00     0.033 C 
HETATM    7  C   UNL     1      44.003  -9.736  10.721  1.00  0.00    -0.036 C 
HETATM    8  C   UNL     1      43.890 -11.025  11.495  1.00  0.00     0.050 C 
HETATM    9  C   UNL     1      43.219  -8.580  11.205  1.00  0.00     0.005 A 
HETATM   10  C   UNL     1      43.140  -7.428  10.416  1.00  0.00     0.099 A 
HETATM   11  C   UNL     1      42.496  -8.593  12.404  1.00  0.00     0.017 A 
HETATM   12  O   UNL     1      43.937  -7.318   9.256  1.00  0.00    -0.274 OA
HETATM   13  C   UNL     1      42.318  -6.330  10.738  1.00  0.00     0.006 A 
HETATM   14  C   UNL     1      44.863  -8.287   8.918  1.00  0.00     0.295 C 
HETATM   15  O   UNL     1      45.709  -8.091   8.048  1.00  0.00    -0.259 OA
HETATM   16  C   UNL     1      42.221  -5.143   9.823  1.00  0.00     0.054 C 
HETATM   17  C   UNL     1      41.626  -6.382  11.952  1.00  0.00     0.074 A 
HETATM   18  C   UNL     1      41.715  -7.498  12.779  1.00  0.00     0.038 A 
BRANCH  17  19
HETATM   19  O   UNL     1      40.836  -5.368  12.410  1.00  0.00    -0.360 OA
HETATM   20  H   UNL     1      40.653  -4.744  11.690  1.00  0.00     0.217 HD
ENDBRANCH  17  19
ENDBRANCH   5   6
ENDBRANCH   1   5
BRANCH   2  21
HETATM   21  C   UNL     1      42.972 -12.367   6.689  1.00  0.00     0.127 C 
BRANCH  21  22
HETATM   22  C   UNL     1      43.314 -13.848   6.492  1.00  0.00     0.060 C 
BRANCH  22  23
HETATM   23  C   UNL     1      43.139 -14.308   5.079  1.00  0.00    -0.029 A 
HETATM   24  C   UNL     1      43.306 -15.632   4.561  1.00  0.00    -0.000 A 
HETATM   25  C   UNL     1      43.071 -15.575   3.185  1.00  0.00     0.043 A 
HETATM   26  C   UNL     1      43.643 -16.876   5.133  1.00  0.00     0.038 A 
HETATM   27  C   UNL     1      43.161 -16.694   2.349  1.00  0.00     0.032 A 
HETATM   28  N   UNL     1      42.765 -14.269   2.880  1.00  0.00    -0.365 N 
HETATM   29  C   UNL     1      43.498 -17.915   2.938  1.00  0.00     0.026 A 
HETATM   30  C   UNL     1      43.733 -18.002   4.308  1.00  0.00     0.035 A 
HETATM   31 CL   UNL     1      44.145 -19.525   5.002  1.00  0.00    -0.084 Cl
HETATM   32  H   UNL     1      42.550 -13.930   1.953  1.00  0.00     0.165 HD
HETATM   33  C   UNL     1      42.802 -13.501   4.010  1.00  0.00     0.096 A 
ENDBRANCH  22  23
ENDBRANCH  21  22
ENDBRANCH   2  21
TORSDOF 6
ENDMDL
MODEL 8
REMARK VINA RESULT:      -9.0      2.990      7.880
REMARK  6 active torsions:
REMARK  status: ('A' for Active; 'I' for Inactive)
REMARK    1  A    between atoms: C_3  and  C_4 
REMARK    2  A    between atoms: C_4  and  C_5 
REMARK       I    between atoms: C_5  and  N_6 
REMARK    3  A    between atoms: N_6  and  C_7 
REMARK    4  A    between atoms: C_7  and  C_8 
REMARK    5  A    between atoms: C_8  and  C_9 
REMARK    6  A    between atoms: C_28  and  O_29 
ROOT
HETATM    1  C   UNL     1      40.595 -13.409   4.836  1.00  0.00     0.222 C 
HETATM    2  N   UNL     1      41.854 -13.181   4.324  1.00  0.00    -0.360 N 
HETATM    3  O   UNL     1      40.372 -14.206   5.744  1.00  0.00    -0.273 OA
HETATM    4  H   UNL     1      41.991 -12.440   3.640  1.00  0.00     0.162 HD
ENDROOT
BRANCH   1   5
HETATM    5  C   UNL     1      39.483 -12.609   4.184  1.00  0.00     0.148 C 
BRANCH   5   6
HETATM    6  C   UNL     1      39.693 -12.521   2.696  1.00  0.00     0.033 C 
HETATM    7  C   UNL     1      39.722 -13.567   1.845  1.00  0.00    -0.036 C 
HETATM    8  C   UNL     1      39.478 -14.994   2.266  1.00  0.00     0.050 C 
HETATM    9  C   UNL     1      40.031 -13.321   0.420  1.00  0.00     0.005 A 
HETATM   10  C   UNL     1      40.452 -12.048   0.022  1.00  0.00     0.099 A 
HETATM   11  C   UNL     1      39.975 -14.320  -0.559  1.00  0.00     0.017 A 
HETATM   12  O   UNL     1      40.418 -10.979   0.942  1.00  0.00    -0.274 OA
HETATM   13  C   UNL     1      40.884 -11.756  -1.287  1.00  0.00     0.006 A 
HETATM   14  C   UNL     1      39.898 -11.133   2.214  1.00  0.00     0.295 C 
HETATM   15  O   UNL     1      39.658 -10.164   2.932  1.00  0.00    -0.259 OA
HETATM   16  C   UNL     1      41.387 -10.387  -1.647  1.00  0.00     0.054 C 
HETATM   17  C   UNL     1      40.797 -12.781  -2.234  1.00  0.00     0.074 A 
HETATM   18  C   UNL     1      40.345 -14.048  -1.878  1.00  0.00     0.038 A 
BRANCH  17  19
HETATM   19  O   UNL     1      41.134 -12.621  -3.547  1.00  0.00    -0.360 OA
HETATM   20  H   UNL     1      40.415 -12.943  -4.112  1.00  0.00     0.217 HD
ENDBRANCH  17  19
ENDBRANCH   5   6
ENDBRANCH   1   5
BRANCH   2  21
HETATM   21  C   UNL     1      42.992 -13.958   4.786  1.00  0.00     0.127 C 
BRANCH  21  22
HETATM   22  C   UNL     1      43.174 -15.239   3.965  1.00  0.00     0.060 C 
BRANCH  22  23
HETATM   23  C   UNL     1      43.424 -16.448   4.811  1.00  0.00    -0.029 A 
HETATM   24  C   UNL     1      43.590 -17.802   4.378  1.00  0.00    -0.000 A 
HETATM   25  C   UNL     1      43.766 -18.588   5.520  1.00  0.00     0.043 A 
HETATM   26  C   UNL     1      43.600 -18.438   3.119  1.00  0.00     0.038 A 
HETATM   27  C   UNL     1      43.946 -19.975   5.471  1.00  0.00     0.032 A 
HETATM   28  N   UNL     1      43.717 -17.743   6.603  1.00  0.00    -0.365 N 
HETATM   29  C   UNL     1      43.950 -20.582   4.212  1.00  0.00     0.026 A 
HETATM   30  C   UNL     1      43.782 -19.823   3.057  1.00  0.00     0.035 A 
HETATM   31 CL   UNL     1      43.794 -20.604   1.521  1.00  0.00    -0.084 Cl
HETATM   32  H   UNL     1      43.813 -18.035   7.566  1.00  0.00     0.165 HD
HETATM   33  C   UNL     1      43.513 -16.456   6.189  1.00  0.00     0.096 A 
ENDBRANCH  22  23
ENDBRANCH  21  22
ENDBRANCH   2  21
TORSDOF 6
ENDMDL
MODEL 9
REMARK VINA RESULT:      -9.0      2.040      2.858
REMARK  6 active torsions:
REMARK  status: ('A' for Active; 'I' for Inactive)
REMARK    1  A    between atoms: C_3  and  C_4 
REMARK    2  A    between atoms: C_4  and  C_5 
REMARK       I    between atoms: C_5  and  N_6 
REMARK    3  A    between atoms: N_6  and  C_7 
REMARK    4  A    between atoms: C_7  and  C_8 
REMARK    5  A    between atoms: C_8  and  C_9 
REMARK    6  A    between atoms: C_28  and  O_29 
ROOT
HETATM    1  C   UNL     1      41.687 -13.467   3.330  1.00  0.00     0.222 C 
HETATM    2  N   UNL     1      41.390 -12.384   2.531  1.00  0.00    -0.360 N 
HETATM    3  O   UNL     1      40.868 -13.995   4.079  1.00  0.00    -0.273 OA
HETATM    4  H   UNL     1      42.080 -12.051   1.861  1.00  0.00     0.162 HD
ENDROOT
BRANCH   1   5
HETATM    5  C   UNL     1      43.117 -13.963   3.233  1.00  0.00     0.148 C 
BRANCH   5   6
HETATM    6  C   UNL     1      43.174 -15.458   3.403  1.00  0.00     0.033 C 
HETATM    7  C   UNL     1      43.426 -16.107   4.558  1.00  0.00    -0.036 C 
HETATM    8  C   UNL     1      43.626 -15.410   5.881  1.00  0.00     0.050 C 
HETATM    9  C   UNL     1      43.539 -17.581   4.541  1.00  0.00     0.005 A 
HETATM   10  C   UNL     1      43.554 -18.251   3.313  1.00  0.00     0.099 A 
HETATM   11  C   UNL     1      43.686 -18.351   5.701  1.00  0.00     0.017 A 
HETATM   12  O   UNL     1      43.295 -17.538   2.123  1.00  0.00    -0.274 OA
HETATM   13  C   UNL     1      43.781 -19.637   3.197  1.00  0.00     0.006 A 
HETATM   14  C   UNL     1      42.943 -16.201   2.140  1.00  0.00     0.295 C 
HETATM   15  O   UNL     1      42.499 -15.641   1.140  1.00  0.00    -0.259 OA
HETATM   16  C   UNL     1      43.850 -20.297   1.850  1.00  0.00     0.054 C 
HETATM   17  C   UNL     1      43.908 -20.367   4.382  1.00  0.00     0.074 A 
HETATM   18  C   UNL     1      43.859 -19.735   5.621  1.00  0.00     0.038 A 
BRANCH  17  19
HETATM   19  O   UNL     1      44.081 -21.720   4.415  1.00  0.00    -0.360 OA
HETATM   20  H   UNL     1      43.240 -22.163   4.225  1.00  0.00     0.217 HD
ENDBRANCH  17  19
ENDBRANCH   5   6
ENDBRANCH   1   5
BRANCH   2  21
HETATM   21  C   UNL     1      40.087 -11.744   2.607  1.00  0.00     0.127 C 
BRANCH  21  22
HETATM   22  C   UNL     1      39.072 -12.415   1.676  1.00  0.00     0.060 C 
BRANCH  22  23
HETATM   23  C   UNL     1      39.644 -12.770   0.340  1.00  0.00    -0.029 A 
HETATM   24  C   UNL     1      40.010 -11.882  -0.721  1.00  0.00    -0.000 A 
HETATM   25  C   UNL     1      40.466 -12.666  -1.785  1.00  0.00     0.043 A 
HETATM   26  C   UNL     1      39.990 -10.481  -0.882  1.00  0.00     0.038 A 
HETATM   27  C   UNL     1      40.896 -12.126  -3.001  1.00  0.00     0.032 A 
HETATM   28  N   UNL     1      40.387 -13.979  -1.382  1.00  0.00    -0.365 N 
HETATM   29  C   UNL     1      40.865 -10.735  -3.137  1.00  0.00     0.026 A 
HETATM   30  C   UNL     1      40.421  -9.929  -2.092  1.00  0.00     0.035 A 
HETATM   31 CL   UNL     1      40.398  -8.217  -2.294  1.00  0.00    -0.084 Cl
HETATM   32  H   UNL     1      40.649 -14.772  -1.950  1.00  0.00     0.165 HD
HETATM   33  C   UNL     1      39.896 -14.052  -0.108  1.00  0.00     0.096 A 
ENDBRANCH  22  23
ENDBRANCH  21  22
ENDBRANCH   2  21
TORSDOF 6
ENDMDL
MODEL 10
REMARK VINA RESULT:      -8.9      6.092      8.293
REMARK  6 active torsions:
REMARK  status: ('A' for Active; 'I' for Inactive)
REMARK    1  A    between atoms: C_3  and  C_4 
REMARK    2  A    between atoms: C_4  and  C_5 
REMARK       I    between atoms: C_5  and  N_6 
REMARK    3  A    between atoms: N_6  and  C_7 
REMARK    4  A    between atoms: C_7  and  C_8 
REMARK    5  A    between atoms: C_8  and  C_9 
REMARK    6  A    between atoms: C_28  and  O_29 
ROOT
HETATM    1  C   UNL     1      43.411 -11.899   6.534  1.00  0.00     0.222 C 
HETATM    2  N   UNL     1      43.503 -11.625   7.881  1.00  0.00    -0.360 N 
HETATM    3  O   UNL     1      44.214 -11.475   5.705  1.00  0.00    -0.273 OA
HETATM    4  H   UNL     1      42.866 -12.082   8.530  1.00  0.00     0.162 HD
ENDROOT
BRANCH   1   5
HETATM    5  C   UNL     1      42.229 -12.760   6.133  1.00  0.00     0.148 C 
BRANCH   5   6
HETATM    6  C   UNL     1      42.696 -14.055   5.524  1.00  0.00     0.033 C 
HETATM    7  C   UNL     1      42.660 -14.362   4.211  1.00  0.00    -0.036 C 
HETATM    8  C   UNL     1      42.197 -13.405   3.142  1.00  0.00     0.050 C 
HETATM    9  C   UNL     1      43.072 -15.716   3.782  1.00  0.00     0.005 A 
HETATM   10  C   UNL     1      43.322 -16.693   4.751  1.00  0.00     0.099 A 
HETATM   11  C   UNL     1      43.177 -16.094   2.438  1.00  0.00     0.017 A 
HETATM   12  O   UNL     1      43.343 -16.338   6.116  1.00  0.00    -0.274 OA
HETATM   13  C   UNL     1      43.599 -18.038   4.432  1.00  0.00     0.006 A 
HETATM   14  C   UNL     1      43.203 -15.024   6.526  1.00  0.00     0.295 C 
HETATM   15  O   UNL     1      43.445 -14.683   7.682  1.00  0.00    -0.259 OA
HETATM   16  C   UNL     1      43.798 -19.062   5.512  1.00  0.00     0.054 C 
HETATM   17  C   UNL     1      43.708 -18.366   3.077  1.00  0.00     0.074 A 
HETATM   18  C   UNL     1      43.503 -17.407   2.090  1.00  0.00     0.038 A 
BRANCH  17  19
HETATM   19  O   UNL     1      44.020 -19.617   2.630  1.00  0.00    -0.360 OA
HETATM   20  H   UNL     1      43.276 -19.980   2.125  1.00  0.00     0.217 HD
ENDBRANCH  17  19
ENDBRANCH   5   6
ENDBRANCH   1   5
BRANCH   2  21
HETATM   21  C   UNL     1      44.527 -10.725   8.385  1.00  0.00     0.127 C 
BRANCH  21  22
HETATM   22  C   UNL     1      43.918  -9.545   9.151  1.00  0.00     0.060 C 
BRANCH  22  23
HETATM   23  C   UNL     1      43.269  -9.951  10.436  1.00  0.00    -0.029 A 
HETATM   24  C   UNL     1      41.979  -9.571  10.926  1.00  0.00    -0.000 A 
HETATM   25  C   UNL     1      41.816 -10.165  12.181  1.00  0.00     0.043 A 
HETATM   26  C   UNL     1      40.933  -8.770  10.423  1.00  0.00     0.038 A 
HETATM   27  C   UNL     1      40.668  -9.995  12.962  1.00  0.00     0.032 A 
HETATM   28  N   UNL     1      42.959 -10.884  12.439  1.00  0.00    -0.365 N 
HETATM   29  C   UNL     1      39.646  -9.195  12.442  1.00  0.00     0.026 A 
HETATM   30  C   UNL     1      39.779  -8.595  11.193  1.00  0.00     0.035 A 
HETATM   31 CL   UNL     1      38.499  -7.616  10.583  1.00  0.00    -0.084 Cl
HETATM   32  H   UNL     1      43.126 -11.418  13.280  1.00  0.00     0.165 HD
HETATM   33  C   UNL     1      43.837 -10.764  11.398  1.00  0.00     0.096 A 
ENDBRANCH  22  23
ENDBRANCH  21  22
ENDBRANCH   2  21
TORSDOF 6
ENDMDL
