MODEL 1
REMARK VINA RESULT:     -10.2      0.000      0.000
REMARK  7 active torsions:
REMARK  status: ('A' for Active; 'I' for Inactive)
REMARK    1  A    between atoms: C_4  and  C_5 
REMARK    2  A    between atoms: C_5  and  C_6 
REMARK       I    between atoms: C_6  and  N_7 
REMARK    3  A    between atoms: N_7  and  C_8 
REMARK    4  A    between atoms: C_11  and  C_12 
REMARK       I    between atoms: C_12  and  N_13 
REMARK    5  A    between atoms: N_13  and  C_14 
REMARK    6  A    between atoms: C_15  and  C_16 
REMARK       I    between atoms: C_16  and  N_17 
REMARK    7  A    between atoms: N_20  and  C_21 
ROOT
HETATM    1  C   UNL     1      42.695 -10.990   3.323  1.00  0.00     0.256 C 
HETATM    2  N   UNL     1      41.492 -10.506   2.799  1.00  0.00    -0.322 N 
HETATM    3  O   UNL     1      43.496 -11.677   2.691  1.00  0.00    -0.267 OA
HETATM    4  H   UNL     1      40.736 -10.512   3.470  1.00  0.00     0.169 HD
ENDROOT
BRANCH   2   5
HETATM    5  C   UNL     1      41.145 -10.868   1.472  1.00  0.00     0.050 C 
HETATM    6  C   UNL     1      40.223 -11.886   1.139  1.00  0.00     0.059 C 
HETATM    7  C   UNL     1      39.675 -11.866  -0.154  1.00  0.00     0.019 C 
HETATM    8  C   UNL     1      40.165 -11.005  -1.141  1.00  0.00     0.001 C 
HETATM    9  C   UNL     1      41.200 -10.128  -0.842  1.00  0.00     0.002 C 
HETATM   10  C   UNL     1      41.681 -10.049   0.462  1.00  0.00     0.030 C 
BRANCH   6  11
HETATM   11  C   UNL     1      39.845 -12.982   2.106  1.00  0.00     0.256 C 
HETATM   12  N   UNL     1      40.655 -14.125   2.266  1.00  0.00    -0.345 N 
HETATM   13  C   UNL     1      41.959 -14.377   1.629  1.00  0.00     0.146 C 
HETATM   14  C   UNL     1      39.992 -15.315   2.829  1.00  0.00     0.146 C 
HETATM   15  C   UNL     1      42.864 -15.365   2.395  1.00  0.00     0.143 C 
HETATM   16  N   UNL     1      42.101 -16.584   2.725  1.00  0.00    -0.378 N 
HETATM   17  C   UNL     1      40.933 -16.279   3.571  1.00  0.00     0.143 C 
HETATM   18  O   UNL     1      38.836 -12.865   2.801  1.00  0.00    -0.267 OA
BRANCH  16  19
HETATM   19  C   UNL     1      42.868 -17.717   3.000  1.00  0.00     0.030 A 
HETATM   20  C   UNL     1      43.646 -17.868   4.155  1.00  0.00     0.029 A 
HETATM   21  C   UNL     1      44.358 -19.047   4.407  1.00  0.00     0.002 A 
HETATM   22  C   UNL     1      44.301 -20.107   3.508  1.00  0.00     0.000 A 
HETATM   23  C   UNL     1      43.533 -19.986   2.356  1.00  0.00     0.002 A 
HETATM   24  C   UNL     1      42.829 -18.804   2.108  1.00  0.00     0.029 A 
ENDBRANCH  16  19
ENDBRANCH   6  11
ENDBRANCH   2   5
BRANCH   1  25
HETATM   25  C   UNL     1      42.929 -10.787   4.787  1.00  0.00     0.032 A 
HETATM   26  C   UNL     1      42.067 -10.063   5.617  1.00  0.00     0.019 A 
HETATM   27  C   UNL     1      42.292 -10.014   7.002  1.00  0.00     0.030 A 
HETATM   28  C   UNL     1      43.389 -10.664   7.571  1.00  0.00     0.034 A 
HETATM   29  C   UNL     1      44.285 -11.331   6.731  1.00  0.00     0.030 A 
HETATM   30  C   UNL     1      44.055 -11.397   5.355  1.00  0.00     0.019 A 
BRANCH  28  31
HETATM   31  N   UNL     1      43.652 -10.721   8.954  1.00  0.00    -0.327 N 
HETATM   32  C   UNL     1      43.927  -9.667   9.810  1.00  0.00     0.226 C 
HETATM   33  O   UNL     1      44.060  -8.488   9.496  1.00  0.00    -0.273 OA
HETATM   34  H   UNL     1      43.600 -11.640   9.374  1.00  0.00     0.169 HD
BRANCH  32  35
HETATM   35  C   UNL     1      44.020 -10.106  11.265  1.00  0.00     0.141 C 
BRANCH  35  36
HETATM   36  C   UNL     1      43.020  -9.410  12.151  1.00  0.00    -0.050 A 
HETATM   37  C   UNL     1      43.377  -8.230  12.819  1.00  0.00     0.007 A 
HETATM   38  C   UNL     1      42.460  -7.580  13.644  1.00  0.00     0.001 A 
HETATM   39  C   UNL     1      41.182  -8.105  13.818  1.00  0.00     0.000 A 
HETATM   40  C   UNL     1      40.819  -9.283  13.166  1.00  0.00     0.001 A 
HETATM   41  C   UNL     1      41.733  -9.933  12.335  1.00  0.00     0.007 A 
ENDBRANCH  35  36
ENDBRANCH  32  35
ENDBRANCH  28  31
ENDBRANCH   1  25
TORSDOF 7
ENDMDL
MODEL 2
REMARK VINA RESULT:      -9.8      1.143      1.603
REMARK  7 active torsions:
REMARK  status: ('A' for Active; 'I' for Inactive)
REMARK    1  A    between atoms: C_4  and  C_5 
REMARK    2  A    between atoms: C_5  and  C_6 
REMARK       I    between atoms: C_6  and  N_7 
REMARK    3  A    between atoms: N_7  and  C_8 
REMARK    4  A    between atoms: C_11  and  C_12 
REMARK       I    between atoms: C_12  and  N_13 
REMARK    5  A    between atoms: N_13  and  C_14 
REMARK    6  A    between atoms: C_15  and  C_16 
REMARK       I    between atoms: C_16  and  N_17 
REMARK    7  A    between atoms: N_20  and  C_21 
ROOT
HETATM    1  C   UNL     1      42.177 -10.524   3.008  1.00  0.00     0.256 C 
HETATM    2  N   UNL     1      41.123 -10.134   2.176  1.00  0.00    -0.322 N 
HETATM    3  O   UNL     1      43.052 -11.326   2.683  1.00  0.00    -0.267 OA
HETATM    4  H   UNL     1      40.252 -10.006   2.674  1.00  0.00     0.169 HD
ENDROOT
BRANCH   2   5
HETATM    5  C   UNL     1      41.021 -10.733   0.895  1.00  0.00     0.050 C 
HETATM    6  C   UNL     1      40.282 -11.905   0.619  1.00  0.00     0.059 C 
HETATM    7  C   UNL     1      39.935 -12.153  -0.719  1.00  0.00     0.019 C 
HETATM    8  C   UNL     1      40.466 -11.390  -1.763  1.00  0.00     0.001 C 
HETATM    9  C   UNL     1      41.337 -10.346  -1.483  1.00  0.00     0.002 C 
HETATM   10  C   UNL     1      41.606 -10.008  -0.159  1.00  0.00     0.030 C 
BRANCH   6  11
HETATM   11  C   UNL     1      39.891 -12.886   1.698  1.00  0.00     0.256 C 
HETATM   12  N   UNL     1      40.686 -14.018   1.978  1.00  0.00    -0.345 N 
HETATM   13  C   UNL     1      41.984 -14.356   1.370  1.00  0.00     0.146 C 
HETATM   14  C   UNL     1      40.007 -15.132   2.665  1.00  0.00     0.146 C 
HETATM   15  C   UNL     1      42.877 -15.269   2.235  1.00  0.00     0.143 C 
HETATM   16  N   UNL     1      42.097 -16.435   2.694  1.00  0.00    -0.378 N 
HETATM   17  C   UNL     1      40.936 -16.025   3.505  1.00  0.00     0.143 C 
HETATM   18  O   UNL     1      38.886 -12.682   2.378  1.00  0.00    -0.267 OA
BRANCH  16  19
HETATM   19  C   UNL     1      42.848 -17.543   3.087  1.00  0.00     0.030 A 
HETATM   20  C   UNL     1      43.503 -17.641   4.322  1.00  0.00     0.029 A 
HETATM   21  C   UNL     1      44.203 -18.797   4.688  1.00  0.00     0.002 A 
HETATM   22  C   UNL     1      44.258 -19.887   3.826  1.00  0.00     0.000 A 
HETATM   23  C   UNL     1      43.613 -19.819   2.596  1.00  0.00     0.002 A 
HETATM   24  C   UNL     1      42.920 -18.660   2.235  1.00  0.00     0.029 A 
ENDBRANCH  16  19
ENDBRANCH   6  11
ENDBRANCH   2   5
BRANCH   1  25
HETATM   25  C   UNL     1      42.134 -10.054   4.428  1.00  0.00     0.032 A 
HETATM   26  C   UNL     1      42.741 -10.734   5.488  1.00  0.00     0.019 A 
HETATM   27  C   UNL     1      42.757 -10.171   6.775  1.00  0.00     0.030 A 
HETATM   28  C   UNL     1      42.149  -8.940   7.023  1.00  0.00     0.034 A 
HETATM   29  C   UNL     1      41.485  -8.294   5.975  1.00  0.00     0.030 A 
HETATM   30  C   UNL     1      41.483  -8.842   4.691  1.00  0.00     0.019 A 
BRANCH  28  31
HETATM   31  N   UNL     1      42.175  -8.274   8.264  1.00  0.00    -0.327 N 
HETATM   32  C   UNL     1      43.243  -7.616   8.852  1.00  0.00     0.226 C 
HETATM   33  O   UNL     1      44.391  -7.557   8.420  1.00  0.00    -0.273 OA
HETATM   34  H   UNL     1      41.298  -8.247   8.767  1.00  0.00     0.169 HD
BRANCH  32  35
HETATM   35  C   UNL     1      42.851  -6.897  10.136  1.00  0.00     0.141 C 
BRANCH  35  36
HETATM   36  C   UNL     1      42.387  -7.839  11.216  1.00  0.00    -0.050 A 
HETATM   37  C   UNL     1      41.069  -7.771  11.687  1.00  0.00     0.007 A 
HETATM   38  C   UNL     1      40.630  -8.636  12.689  1.00  0.00     0.001 A 
HETATM   39  C   UNL     1      41.504  -9.572  13.235  1.00  0.00     0.000 A 
HETATM   40  C   UNL     1      42.820  -9.644  12.780  1.00  0.00     0.001 A 
HETATM   41  C   UNL     1      43.261  -8.783  11.774  1.00  0.00     0.007 A 
ENDBRANCH  35  36
ENDBRANCH  32  35
ENDBRANCH  28  31
ENDBRANCH   1  25
TORSDOF 7
ENDMDL
MODEL 3
REMARK VINA RESULT:      -9.6      1.417      2.189
REMARK  7 active torsions:
REMARK  status: ('A' for Active; 'I' for Inactive)
REMARK    1  A    between atoms: C_4  and  C_5 
REMARK    2  A    between atoms: C_5  and  C_6 
REMARK       I    between atoms: C_6  and  N_7 
REMARK    3  A    between atoms: N_7  and  C_8 
REMARK    4  A    between atoms: C_11  and  C_12 
REMARK       I    between atoms: C_12  and  N_13 
REMARK    5  A    between atoms: N_13  and  C_14 
REMARK    6  A    between atoms: C_15  and  C_16 
REMARK       I    between atoms: C_16  and  N_17 
REMARK    7  A    between atoms: N_20  and  C_21 
ROOT
HETATM    1  C   UNL     1      40.625 -10.223   3.799  1.00  0.00     0.256 C 
HETATM    2  N   UNL     1      39.661 -11.198   3.522  1.00  0.00    -0.322 N 
HETATM    3  O   UNL     1      40.957  -9.337   3.012  1.00  0.00    -0.267 OA
HETATM    4  H   UNL     1      39.894 -12.105   3.903  1.00  0.00     0.169 HD
ENDROOT
BRANCH   2   5
HETATM    5  C   UNL     1      39.061 -11.201   2.238  1.00  0.00     0.050 C 
HETATM    6  C   UNL     1      39.580 -11.886   1.117  1.00  0.00     0.059 C 
HETATM    7  C   UNL     1      38.704 -12.142   0.050  1.00  0.00     0.019 C 
HETATM    8  C   UNL     1      37.429 -11.571   0.000  1.00  0.00     0.001 C 
HETATM    9  C   UNL     1      36.998 -10.751   1.035  1.00  0.00     0.002 C 
HETATM   10  C   UNL     1      37.804 -10.575   2.156  1.00  0.00     0.030 C 
BRANCH   6  11
HETATM   11  C   UNL     1      41.026 -12.314   1.030  1.00  0.00     0.256 C 
HETATM   12  N   UNL     1      41.456 -13.546   1.566  1.00  0.00    -0.345 N 
HETATM   13  C   UNL     1      40.609 -14.586   2.173  1.00  0.00     0.146 C 
HETATM   14  C   UNL     1      42.895 -13.653   1.869  1.00  0.00     0.146 C 
HETATM   15  C   UNL     1      41.211 -16.006   2.130  1.00  0.00     0.143 C 
HETATM   16  N   UNL     1      42.596 -15.974   2.638  1.00  0.00    -0.378 N 
HETATM   17  C   UNL     1      43.450 -15.087   1.828  1.00  0.00     0.143 C 
HETATM   18  O   UNL     1      41.843 -11.600   0.448  1.00  0.00    -0.267 OA
BRANCH  16  19
HETATM   19  C   UNL     1      43.103 -17.197   3.078  1.00  0.00     0.030 A 
HETATM   20  C   UNL     1      43.609 -17.411   4.368  1.00  0.00     0.029 A 
HETATM   21  C   UNL     1      44.061 -18.672   4.775  1.00  0.00     0.002 A 
HETATM   22  C   UNL     1      44.010 -19.752   3.899  1.00  0.00     0.000 A 
HETATM   23  C   UNL     1      43.509 -19.569   2.616  1.00  0.00     0.002 A 
HETATM   24  C   UNL     1      43.065 -18.306   2.214  1.00  0.00     0.029 A 
ENDBRANCH  16  19
ENDBRANCH   6  11
ENDBRANCH   2   5
BRANCH   1  25
HETATM   25  C   UNL     1      41.404 -10.377   5.068  1.00  0.00     0.032 A 
HETATM   26  C   UNL     1      42.678 -10.950   5.131  1.00  0.00     0.019 A 
HETATM   27  C   UNL     1      43.395 -10.955   6.338  1.00  0.00     0.030 A 
HETATM   28  C   UNL     1      42.841 -10.411   7.499  1.00  0.00     0.034 A 
HETATM   29  C   UNL     1      41.541  -9.898   7.448  1.00  0.00     0.030 A 
HETATM   30  C   UNL     1      40.833  -9.876   6.245  1.00  0.00     0.019 A 
BRANCH  28  31
HETATM   31  N   UNL     1      43.514 -10.315   8.733  1.00  0.00    -0.327 N 
HETATM   32  C   UNL     1      44.091  -9.189   9.299  1.00  0.00     0.226 C 
HETATM   33  O   UNL     1      44.178  -8.078   8.787  1.00  0.00    -0.273 OA
HETATM   34  H   UNL     1      43.549 -11.164   9.282  1.00  0.00     0.169 HD
BRANCH  32  35
HETATM   35  C   UNL     1      44.606  -9.445  10.710  1.00  0.00     0.141 C 
BRANCH  35  36
HETATM   36  C   UNL     1      43.556  -9.220  11.766  1.00  0.00    -0.050 A 
HETATM   37  C   UNL     1      42.530 -10.158  11.944  1.00  0.00     0.007 A 
HETATM   38  C   UNL     1      41.551  -9.959  12.917  1.00  0.00     0.001 A 
HETATM   39  C   UNL     1      41.582  -8.818  13.716  1.00  0.00     0.000 A 
HETATM   40  C   UNL     1      42.594  -7.875  13.542  1.00  0.00     0.001 A 
HETATM   41  C   UNL     1      43.578  -8.074  12.572  1.00  0.00     0.007 A 
ENDBRANCH  35  36
ENDBRANCH  32  35
ENDBRANCH  28  31
ENDBRANCH   1  25
TORSDOF 7
ENDMDL
MODEL 4
REMARK VINA RESULT:      -9.5      1.762      2.556
REMARK  7 active torsions:
REMARK  status: ('A' for Active; 'I' for Inactive)
REMARK    1  A    between atoms: C_4  and  C_5 
REMARK    2  A    between atoms: C_5  and  C_6 
REMARK       I    between atoms: C_6  and  N_7 
REMARK    3  A    between atoms: N_7  and  C_8 
REMARK    4  A    between atoms: C_11  and  C_12 
REMARK       I    between atoms: C_12  and  N_13 
REMARK    5  A    between atoms: N_13  and  C_14 
REMARK    6  A    between atoms: C_15  and  C_16 
REMARK       I    between atoms: C_16  and  N_17 
REMARK    7  A    between atoms: N_20  and  C_21 
ROOT
HETATM    1  C   UNL     1      39.866 -10.487   4.986  1.00  0.00     0.256 C 
HETATM    2  N   UNL     1      40.036  -9.731   3.822  1.00  0.00    -0.322 N 
HETATM    3  O   UNL     1      39.177 -11.504   5.054  1.00  0.00    -0.267 OA
HETATM    4  H   UNL     1      40.074  -8.736   3.997  1.00  0.00     0.169 HD
ENDROOT
BRANCH   2   5
HETATM    5  C   UNL     1      39.333 -10.127   2.655  1.00  0.00     0.050 C 
HETATM    6  C   UNL     1      39.765 -11.140   1.770  1.00  0.00     0.059 C 
HETATM    7  C   UNL     1      38.807 -11.703   0.911  1.00  0.00     0.019 C 
HETATM    8  C   UNL     1      37.528 -11.152   0.786  1.00  0.00     0.001 C 
HETATM    9  C   UNL     1      37.176 -10.040   1.539  1.00  0.00     0.002 C 
HETATM   10  C   UNL     1      38.070  -9.535   2.481  1.00  0.00     0.030 C 
BRANCH   6  11
HETATM   11  C   UNL     1      41.202 -11.600   1.709  1.00  0.00     0.256 C 
HETATM   12  N   UNL     1      41.569 -12.904   2.104  1.00  0.00    -0.345 N 
HETATM   13  C   UNL     1      40.661 -13.985   2.525  1.00  0.00     0.146 C 
HETATM   14  C   UNL     1      42.984 -13.096   2.469  1.00  0.00     0.146 C 
HETATM   15  C   UNL     1      41.228 -15.407   2.332  1.00  0.00     0.143 C 
HETATM   16  N   UNL     1      42.581 -15.485   2.916  1.00  0.00    -0.378 N 
HETATM   17  C   UNL     1      43.503 -14.531   2.274  1.00  0.00     0.143 C 
HETATM   18  O   UNL     1      42.069 -10.846   1.269  1.00  0.00    -0.267 OA
BRANCH  16  19
HETATM   19  C   UNL     1      43.030 -16.770   3.221  1.00  0.00     0.030 A 
HETATM   20  C   UNL     1      43.086 -17.817   2.291  1.00  0.00     0.029 A 
HETATM   21  C   UNL     1      43.592 -19.075   2.637  1.00  0.00     0.002 A 
HETATM   22  C   UNL     1      44.062 -19.313   3.925  1.00  0.00     0.000 A 
HETATM   23  C   UNL     1      44.023 -18.291   4.867  1.00  0.00     0.002 A 
HETATM   24  C   UNL     1      43.511 -17.038   4.516  1.00  0.00     0.029 A 
ENDBRANCH  16  19
ENDBRANCH   6  11
ENDBRANCH   2   5
BRANCH   1  25
HETATM   25  C   UNL     1      40.431  -9.923   6.251  1.00  0.00     0.032 A 
HETATM   26  C   UNL     1      39.688  -9.754   7.424  1.00  0.00     0.019 A 
HETATM   27  C   UNL     1      40.316  -9.328   8.606  1.00  0.00     0.030 A 
HETATM   28  C   UNL     1      41.683  -9.044   8.626  1.00  0.00     0.034 A 
HETATM   29  C   UNL     1      42.410  -9.150   7.436  1.00  0.00     0.030 A 
HETATM   30  C   UNL     1      41.793  -9.591   6.263  1.00  0.00     0.019 A 
BRANCH  28  31
HETATM   31  N   UNL     1      42.404  -8.676   9.779  1.00  0.00    -0.327 N 
HETATM   32  C   UNL     1      43.247  -9.468  10.541  1.00  0.00     0.226 C 
HETATM   33  O   UNL     1      43.464 -10.666  10.383  1.00  0.00    -0.273 OA
HETATM   34  H   UNL     1      42.317  -7.708  10.062  1.00  0.00     0.169 HD
BRANCH  32  35
HETATM   35  C   UNL     1      43.957  -8.681  11.635  1.00  0.00     0.141 C 
BRANCH  35  36
HETATM   36  C   UNL     1      43.091  -8.449  12.845  1.00  0.00    -0.050 A 
HETATM   37  C   UNL     1      43.329  -7.346  13.677  1.00  0.00     0.007 A 
HETATM   38  C   UNL     1      42.535  -7.124  14.802  1.00  0.00     0.001 A 
HETATM   39  C   UNL     1      41.501  -8.005  15.112  1.00  0.00     0.000 A 
HETATM   40  C   UNL     1      41.260  -9.110  14.296  1.00  0.00     0.001 A 
HETATM   41  C   UNL     1      42.050  -9.332  13.167  1.00  0.00     0.007 A 
ENDBRANCH  35  36
ENDBRANCH  32  35
ENDBRANCH  28  31
ENDBRANCH   1  25
TORSDOF 7
ENDMDL
MODEL 5
REMARK VINA RESULT:      -9.3      3.210     10.902
REMARK  7 active torsions:
REMARK  status: ('A' for Active; 'I' for Inactive)
REMARK    1  A    between atoms: C_4  and  C_5 
REMARK    2  A    between atoms: C_5  and  C_6 
REMARK       I    between atoms: C_6  and  N_7 
REMARK    3  A    between atoms: N_7  and  C_8 
REMARK    4  A    between atoms: C_11  and  C_12 
REMARK       I    between atoms: C_12  and  N_13 
REMARK    5  A    between atoms: N_13  and  C_14 
REMARK    6  A    between atoms: C_15  and  C_16 
REMARK       I    between atoms: C_16  and  N_17 
REMARK    7  A    between atoms: N_20  and  C_21 
ROOT
HETATM    1  C   UNL     1      40.527 -14.576   0.409  1.00  0.00     0.256 C 
HETATM    2  N   UNL     1      41.742 -14.283   1.037  1.00  0.00    -0.322 N 
HETATM    3  O   UNL     1      39.835 -15.559   0.669  1.00  0.00    -0.267 OA
HETATM    4  H   UNL     1      42.429 -13.890   0.409  1.00  0.00     0.169 HD
ENDROOT
BRANCH   2   5
HETATM    5  C   UNL     1      42.236 -15.199   2.001  1.00  0.00     0.050 C 
HETATM    6  C   UNL     1      41.829 -15.230   3.353  1.00  0.00     0.059 C 
HETATM    7  C   UNL     1      42.076 -16.408   4.078  1.00  0.00     0.019 C 
HETATM    8  C   UNL     1      42.870 -17.432   3.554  1.00  0.00     0.001 C 
HETATM    9  C   UNL     1      43.413 -17.307   2.282  1.00  0.00     0.002 C 
HETATM   10  C   UNL     1      43.088 -16.200   1.501  1.00  0.00     0.030 C 
BRANCH   6  11
HETATM   11  C   UNL     1      41.177 -14.047   4.028  1.00  0.00     0.256 C 
HETATM   12  N   UNL     1      41.922 -13.170   4.843  1.00  0.00    -0.345 N 
HETATM   13  C   UNL     1      43.376 -13.208   5.080  1.00  0.00     0.146 C 
HETATM   14  C   UNL     1      41.149 -12.376   5.816  1.00  0.00     0.146 C 
HETATM   15  C   UNL     1      43.990 -11.856   5.498  1.00  0.00     0.143 C 
HETATM   16  N   UNL     1      43.207 -11.277   6.606  1.00  0.00    -0.378 N 
HETATM   17  C   UNL     1      41.806 -11.043   6.216  1.00  0.00     0.143 C 
HETATM   18  O   UNL     1      39.984 -13.813   3.836  1.00  0.00    -0.267 OA
BRANCH  16  19
HETATM   19  C   UNL     1      43.871 -10.320   7.376  1.00  0.00     0.030 A 
HETATM   20  C   UNL     1      45.256 -10.319   7.591  1.00  0.00     0.029 A 
HETATM   21  C   UNL     1      45.879  -9.307   8.331  1.00  0.00     0.002 A 
HETATM   22  C   UNL     1      45.128  -8.266   8.867  1.00  0.00     0.000 A 
HETATM   23  C   UNL     1      43.753  -8.239   8.664  1.00  0.00     0.002 A 
HETATM   24  C   UNL     1      43.137  -9.256   7.930  1.00  0.00     0.029 A 
ENDBRANCH  16  19
ENDBRANCH   6  11
ENDBRANCH   2   5
BRANCH   1  25
HETATM   25  C   UNL     1      40.141 -13.721  -0.757  1.00  0.00     0.032 A 
HETATM   26  C   UNL     1      39.039 -13.981  -1.578  1.00  0.00     0.019 A 
HETATM   27  C   UNL     1      38.672 -13.070  -2.582  1.00  0.00     0.030 A 
HETATM   28  C   UNL     1      39.412 -11.905  -2.794  1.00  0.00     0.034 A 
HETATM   29  C   UNL     1      40.552 -11.681  -2.016  1.00  0.00     0.030 A 
HETATM   30  C   UNL     1      40.909 -12.576  -1.005  1.00  0.00     0.019 A 
BRANCH  28  31
HETATM   31  N   UNL     1      39.077 -10.908  -3.732  1.00  0.00    -0.327 N 
HETATM   32  C   UNL     1      38.466  -9.688  -3.491  1.00  0.00     0.226 C 
HETATM   33  O   UNL     1      38.041  -9.285  -2.413  1.00  0.00    -0.273 OA
HETATM   34  H   UNL     1      39.346 -11.096  -4.689  1.00  0.00     0.169 HD
BRANCH  32  35
HETATM   35  C   UNL     1      38.392  -8.817  -4.738  1.00  0.00     0.141 C 
BRANCH  35  36
HETATM   36  C   UNL     1      39.685  -8.102  -5.029  1.00  0.00    -0.050 A 
HETATM   37  C   UNL     1      40.717  -8.104  -4.080  1.00  0.00     0.007 A 
HETATM   38  C   UNL     1      41.917  -7.442  -4.338  1.00  0.00     0.001 A 
HETATM   39  C   UNL     1      42.096  -6.765  -5.542  1.00  0.00     0.000 A 
HETATM   40  C   UNL     1      41.074  -6.750  -6.491  1.00  0.00     0.001 A 
HETATM   41  C   UNL     1      39.874  -7.415  -6.237  1.00  0.00     0.007 A 
ENDBRANCH  35  36
ENDBRANCH  32  35
ENDBRANCH  28  31
ENDBRANCH   1  25
TORSDOF 7
ENDMDL
MODEL 6
REMARK VINA RESULT:      -9.1      1.963      5.791
REMARK  7 active torsions:
REMARK  status: ('A' for Active; 'I' for Inactive)
REMARK    1  A    between atoms: C_4  and  C_5 
REMARK    2  A    between atoms: C_5  and  C_6 
REMARK       I    between atoms: C_6  and  N_7 
REMARK    3  A    between atoms: N_7  and  C_8 
REMARK    4  A    between atoms: C_11  and  C_12 
REMARK       I    between atoms: C_12  and  N_13 
REMARK    5  A    between atoms: N_13  and  C_14 
REMARK    6  A    between atoms: C_15  and  C_16 
REMARK       I    between atoms: C_16  and  N_17 
REMARK    7  A    between atoms: N_20  and  C_21 
ROOT
HETATM    1  C   UNL     1      43.020 -14.864   5.647  1.00  0.00     0.256 C 
HETATM    2  N   UNL     1      43.573 -15.217   4.412  1.00  0.00    -0.322 N 
HETATM    3  O   UNL     1      42.336 -15.618   6.337  1.00  0.00    -0.267 OA
HETATM    4  H   UNL     1      43.562 -14.460   3.741  1.00  0.00     0.169 HD
ENDROOT
BRANCH   2   5
HETATM    5  C   UNL     1      43.292 -16.507   3.894  1.00  0.00     0.050 C 
HETATM    6  C   UNL     1      42.182 -16.812   3.076  1.00  0.00     0.059 C 
HETATM    7  C   UNL     1      42.241 -17.992   2.316  1.00  0.00     0.019 C 
HETATM    8  C   UNL     1      43.257 -18.932   2.508  1.00  0.00     0.001 C 
HETATM    9  C   UNL     1      44.250 -18.695   3.450  1.00  0.00     0.002 C 
HETATM   10  C   UNL     1      44.276 -17.482   4.133  1.00  0.00     0.030 C 
BRANCH   6  11
HETATM   11  C   UNL     1      40.953 -15.936   3.022  1.00  0.00     0.256 C 
HETATM   12  N   UNL     1      40.794 -14.963   2.013  1.00  0.00    -0.345 N 
HETATM   13  C   UNL     1      41.695 -14.721   0.872  1.00  0.00     0.146 C 
HETATM   14  C   UNL     1      39.852 -13.869   2.311  1.00  0.00     0.146 C 
HETATM   15  C   UNL     1      41.020 -14.051  -0.343  1.00  0.00     0.143 C 
HETATM   16  N   UNL     1      40.266 -12.863   0.101  1.00  0.00    -0.378 N 
HETATM   17  C   UNL     1      39.215 -13.220   1.070  1.00  0.00     0.143 C 
HETATM   18  O   UNL     1      40.050 -16.095   3.843  1.00  0.00    -0.267 OA
BRANCH  16  19
HETATM   19  C   UNL     1      39.989 -11.922  -0.892  1.00  0.00     0.030 A 
HETATM   20  C   UNL     1      38.807 -11.910  -1.645  1.00  0.00     0.029 A 
HETATM   21  C   UNL     1      38.557 -10.913  -2.595  1.00  0.00     0.002 A 
HETATM   22  C   UNL     1      39.485  -9.898  -2.809  1.00  0.00     0.000 A 
HETATM   23  C   UNL     1      40.663  -9.883  -2.072  1.00  0.00     0.002 A 
HETATM   24  C   UNL     1      40.909 -10.885  -1.129  1.00  0.00     0.029 A 
ENDBRANCH  16  19
ENDBRANCH   6  11
ENDBRANCH   2   5
BRANCH   1  25
HETATM   25  C   UNL     1      43.140 -13.432   6.062  1.00  0.00     0.032 A 
HETATM   26  C   UNL     1      42.151 -12.471   5.830  1.00  0.00     0.019 A 
HETATM   27  C   UNL     1      42.285 -11.174   6.352  1.00  0.00     0.030 A 
HETATM   28  C   UNL     1      43.415 -10.814   7.088  1.00  0.00     0.034 A 
HETATM   29  C   UNL     1      44.433 -11.757   7.262  1.00  0.00     0.030 A 
HETATM   30  C   UNL     1      44.295 -13.053   6.760  1.00  0.00     0.019 A 
BRANCH  28  31
HETATM   31  N   UNL     1      43.600  -9.560   7.701  1.00  0.00    -0.327 N 
HETATM   32  C   UNL     1      42.707  -8.869   8.505  1.00  0.00     0.226 C 
HETATM   33  O   UNL     1      41.556  -9.201   8.771  1.00  0.00    -0.273 OA
HETATM   34  H   UNL     1      44.506  -9.132   7.563  1.00  0.00     0.169 HD
BRANCH  32  35
HETATM   35  C   UNL     1      43.316  -7.605   9.100  1.00  0.00     0.141 C 
BRANCH  35  36
HETATM   36  C   UNL     1      43.076  -7.482  10.581  1.00  0.00    -0.050 A 
HETATM   37  C   UNL     1      43.582  -8.454  11.456  1.00  0.00     0.007 A 
HETATM   38  C   UNL     1      43.363  -8.351  12.830  1.00  0.00     0.001 A 
HETATM   39  C   UNL     1      42.631  -7.283  13.343  1.00  0.00     0.000 A 
HETATM   40  C   UNL     1      42.117  -6.315  12.481  1.00  0.00     0.001 A 
HETATM   41  C   UNL     1      42.338  -6.412  11.106  1.00  0.00     0.007 A 
ENDBRANCH  35  36
ENDBRANCH  32  35
ENDBRANCH  28  31
ENDBRANCH   1  25
TORSDOF 7
ENDMDL
MODEL 7
REMARK VINA RESULT:      -9.0      2.872     11.473
REMARK  7 active torsions:
REMARK  status: ('A' for Active; 'I' for Inactive)
REMARK    1  A    between atoms: C_4  and  C_5 
REMARK    2  A    between atoms: C_5  and  C_6 
REMARK       I    between atoms: C_6  and  N_7 
REMARK    3  A    between atoms: N_7  and  C_8 
REMARK    4  A    between atoms: C_11  and  C_12 
REMARK       I    between atoms: C_12  and  N_13 
REMARK    5  A    between atoms: N_13  and  C_14 
REMARK    6  A    between atoms: C_15  and  C_16 
REMARK       I    between atoms: C_16  and  N_17 
REMARK    7  A    between atoms: N_20  and  C_21 
ROOT
HETATM    1  C   UNL     1      41.531  -9.965   5.757  1.00  0.00     0.256 C 
HETATM    2  N   UNL     1      40.556  -9.999   6.759  1.00  0.00    -0.322 N 
HETATM    3  O   UNL     1      41.902  -8.939   5.190  1.00  0.00    -0.267 OA
HETATM    4  H   UNL     1      39.959 -10.813   6.704  1.00  0.00     0.169 HD
ENDROOT
BRANCH   2   5
HETATM    5  C   UNL     1      39.916  -8.785   7.114  1.00  0.00     0.050 C 
HETATM    6  C   UNL     1      40.366  -7.914   8.131  1.00  0.00     0.059 C 
HETATM    7  C   UNL     1      39.899  -6.590   8.105  1.00  0.00     0.019 C 
HETATM    8  C   UNL     1      38.877  -6.194   7.237  1.00  0.00     0.001 C 
HETATM    9  C   UNL     1      38.319  -7.115   6.360  1.00  0.00     0.002 C 
HETATM   10  C   UNL     1      38.844  -8.403   6.288  1.00  0.00     0.030 C 
BRANCH   6  11
HETATM   11  C   UNL     1      41.291  -8.370   9.234  1.00  0.00     0.256 C 
HETATM   12  N   UNL     1      41.020  -8.070  10.585  1.00  0.00    -0.345 N 
HETATM   13  C   UNL     1      39.825  -7.390  11.114  1.00  0.00     0.146 C 
HETATM   14  C   UNL     1      42.172  -8.116  11.503  1.00  0.00     0.146 C 
HETATM   15  C   UNL     1      39.509  -7.708  12.590  1.00  0.00     0.143 C 
HETATM   16  N   UNL     1      40.724  -7.529  13.407  1.00  0.00    -0.378 N 
HETATM   17  C   UNL     1      41.810  -8.423  12.966  1.00  0.00     0.143 C 
HETATM   18  O   UNL     1      42.280  -9.051   8.962  1.00  0.00    -0.267 OA
BRANCH  16  19
HETATM   19  C   UNL     1      40.508  -7.339  14.773  1.00  0.00     0.030 A 
HETATM   20  C   UNL     1      41.251  -7.977  15.775  1.00  0.00     0.029 A 
HETATM   21  C   UNL     1      41.026  -7.713  17.131  1.00  0.00     0.002 A 
HETATM   22  C   UNL     1      40.053  -6.795  17.515  1.00  0.00     0.000 A 
HETATM   23  C   UNL     1      39.304  -6.144  16.542  1.00  0.00     0.002 A 
HETATM   24  C   UNL     1      39.531  -6.417  15.190  1.00  0.00     0.029 A 
ENDBRANCH  16  19
ENDBRANCH   6  11
ENDBRANCH   2   5
BRANCH   1  25
HETATM   25  C   UNL     1      42.025 -11.281   5.243  1.00  0.00     0.032 A 
HETATM   26  C   UNL     1      41.798 -12.500   5.890  1.00  0.00     0.019 A 
HETATM   27  C   UNL     1      42.192 -13.707   5.288  1.00  0.00     0.030 A 
HETATM   28  C   UNL     1      42.836 -13.709   4.050  1.00  0.00     0.034 A 
HETATM   29  C   UNL     1      43.121 -12.485   3.437  1.00  0.00     0.030 A 
HETATM   30  C   UNL     1      42.715 -11.285   4.024  1.00  0.00     0.019 A 
BRANCH  28  31
HETATM   31  N   UNL     1      43.205 -14.873   3.346  1.00  0.00    -0.327 N 
HETATM   32  C   UNL     1      42.412 -15.966   3.040  1.00  0.00     0.226 C 
HETATM   33  O   UNL     1      41.250 -16.147   3.394  1.00  0.00    -0.273 OA
HETATM   34  H   UNL     1      44.154 -14.892   2.996  1.00  0.00     0.169 HD
BRANCH  32  35
HETATM   35  C   UNL     1      43.124 -16.972   2.145  1.00  0.00     0.141 C 
BRANCH  35  36
HETATM   36  C   UNL     1      43.452 -18.259   2.856  1.00  0.00    -0.050 A 
HETATM   37  C   UNL     1      43.282 -19.485   2.199  1.00  0.00     0.007 A 
HETATM   38  C   UNL     1      43.579 -20.683   2.849  1.00  0.00     0.001 A 
HETATM   39  C   UNL     1      44.041 -20.669   4.163  1.00  0.00     0.000 A 
HETATM   40  C   UNL     1      44.206 -19.455   4.829  1.00  0.00     0.001 A 
HETATM   41  C   UNL     1      43.914 -18.254   4.180  1.00  0.00     0.007 A 
ENDBRANCH  35  36
ENDBRANCH  32  35
ENDBRANCH  28  31
ENDBRANCH   1  25
TORSDOF 7
ENDMDL
MODEL 8
REMARK VINA RESULT:      -9.0      3.250      7.550
REMARK  7 active torsions:
REMARK  status: ('A' for Active; 'I' for Inactive)
REMARK    1  A    between atoms: C_4  and  C_5 
REMARK    2  A    between atoms: C_5  and  C_6 
REMARK       I    between atoms: C_6  and  N_7 
REMARK    3  A    between atoms: N_7  and  C_8 
REMARK    4  A    between atoms: C_11  and  C_12 
REMARK       I    between atoms: C_12  and  N_13 
REMARK    5  A    between atoms: N_13  and  C_14 
REMARK    6  A    between atoms: C_15  and  C_16 
REMARK       I    between atoms: C_16  and  N_17 
REMARK    7  A    between atoms: N_20  and  C_21 
ROOT
HETATM    1  C   UNL     1      41.698  -9.042   6.742  1.00  0.00     0.256 C 
HETATM    2  N   UNL     1      40.302  -9.126   6.742  1.00  0.00    -0.322 N 
HETATM    3  O   UNL     1      42.326  -7.988   6.654  1.00  0.00    -0.267 OA
HETATM    4  H   UNL     1      39.953  -9.933   6.243  1.00  0.00     0.169 HD
ENDROOT
BRANCH   2   5
HETATM    5  C   UNL     1      39.558  -7.929   6.582  1.00  0.00     0.050 C 
HETATM    6  C   UNL     1      39.176  -7.389   5.334  1.00  0.00     0.059 C 
HETATM    7  C   UNL     1      38.125  -6.458   5.324  1.00  0.00     0.019 C 
HETATM    8  C   UNL     1      37.610  -5.928   6.511  1.00  0.00     0.001 C 
HETATM    9  C   UNL     1      38.122  -6.342   7.733  1.00  0.00     0.002 C 
HETATM   10  C   UNL     1      39.084  -7.348   7.772  1.00  0.00     0.030 C 
BRANCH   6  11
HETATM   11  C   UNL     1      39.873  -7.760   4.046  1.00  0.00     0.256 C 
HETATM   12  N   UNL     1      39.825  -9.078   3.544  1.00  0.00    -0.345 N 
HETATM   13  C   UNL     1      39.065 -10.208   4.105  1.00  0.00     0.146 C 
HETATM   14  C   UNL     1      40.893  -9.448   2.598  1.00  0.00     0.146 C 
HETATM   15  C   UNL     1      38.720 -11.314   3.086  1.00  0.00     0.143 C 
HETATM   16  N   UNL     1      39.935 -11.704   2.347  1.00  0.00    -0.378 N 
HETATM   17  C   UNL     1      40.511 -10.564   1.611  1.00  0.00     0.143 C 
HETATM   18  O   UNL     1      40.460  -6.896   3.396  1.00  0.00    -0.267 OA
BRANCH  16  19
HETATM   19  C   UNL     1      39.891 -12.959   1.738  1.00  0.00     0.030 A 
HETATM   20  C   UNL     1      39.911 -13.152   0.350  1.00  0.00     0.029 A 
HETATM   21  C   UNL     1      39.915 -14.435  -0.209  1.00  0.00     0.002 A 
HETATM   22  C   UNL     1      39.907 -15.558   0.612  1.00  0.00     0.000 A 
HETATM   23  C   UNL     1      39.892 -15.397   1.993  1.00  0.00     0.002 A 
HETATM   24  C   UNL     1      39.882 -14.112   2.544  1.00  0.00     0.029 A 
ENDBRANCH  16  19
ENDBRANCH   6  11
ENDBRANCH   2   5
BRANCH   1  25
HETATM   25  C   UNL     1      42.457 -10.330   6.683  1.00  0.00     0.032 A 
HETATM   26  C   UNL     1      43.424 -10.704   7.621  1.00  0.00     0.019 A 
HETATM   27  C   UNL     1      44.011 -11.979   7.565  1.00  0.00     0.030 A 
HETATM   28  C   UNL     1      43.658 -12.884   6.562  1.00  0.00     0.034 A 
HETATM   29  C   UNL     1      42.740 -12.483   5.587  1.00  0.00     0.030 A 
HETATM   30  C   UNL     1      42.141 -11.223   5.650  1.00  0.00     0.019 A 
BRANCH  28  31
HETATM   31  N   UNL     1      44.147 -14.202   6.471  1.00  0.00    -0.327 N 
HETATM   32  C   UNL     1      43.501 -15.373   6.835  1.00  0.00     0.226 C 
HETATM   33  O   UNL     1      42.401 -15.463   7.372  1.00  0.00    -0.273 OA
HETATM   34  H   UNL     1      45.066 -14.303   6.060  1.00  0.00     0.169 HD
BRANCH  32  35
HETATM   35  C   UNL     1      44.295 -16.617   6.459  1.00  0.00     0.141 C 
BRANCH  35  36
HETATM   36  C   UNL     1      43.972 -17.122   5.077  1.00  0.00    -0.050 A 
HETATM   37  C   UNL     1      44.350 -18.418   4.698  1.00  0.00     0.007 A 
HETATM   38  C   UNL     1      44.059 -18.894   3.420  1.00  0.00     0.001 A 
HETATM   39  C   UNL     1      43.395 -18.080   2.506  1.00  0.00     0.000 A 
HETATM   40  C   UNL     1      43.021 -16.787   2.869  1.00  0.00     0.001 A 
HETATM   41  C   UNL     1      43.308 -16.308   4.149  1.00  0.00     0.007 A 
ENDBRANCH  35  36
ENDBRANCH  32  35
ENDBRANCH  28  31
ENDBRANCH   1  25
TORSDOF 7
ENDMDL
MODEL 9
REMARK VINA RESULT:      -8.8      3.409     10.190
REMARK  7 active torsions:
REMARK  status: ('A' for Active; 'I' for Inactive)
REMARK    1  A    between atoms: C_4  and  C_5 
REMARK    2  A    between atoms: C_5  and  C_6 
REMARK       I    between atoms: C_6  and  N_7 
REMARK    3  A    between atoms: N_7  and  C_8 
REMARK    4  A    between atoms: C_11  and  C_12 
REMARK       I    between atoms: C_12  and  N_13 
REMARK    5  A    between atoms: N_13  and  C_14 
REMARK    6  A    between atoms: C_15  and  C_16 
REMARK       I    between atoms: C_16  and  N_17 
REMARK    7  A    between atoms: N_20  and  C_21 
ROOT
HETATM    1  C   UNL     1      38.508 -10.046   5.108  1.00  0.00     0.256 C 
HETATM    2  N   UNL     1      38.531  -8.839   4.400  1.00  0.00    -0.322 N 
HETATM    3  O   UNL     1      38.003 -10.183   6.221  1.00  0.00    -0.267 OA
HETATM    4  H   UNL     1      39.389  -8.698   3.885  1.00  0.00     0.169 HD
ENDROOT
BRANCH   2   5
HETATM    5  C   UNL     1      37.983  -7.687   5.020  1.00  0.00     0.050 C 
HETATM    6  C   UNL     1      38.746  -6.703   5.688  1.00  0.00     0.059 C 
HETATM    7  C   UNL     1      38.150  -5.448   5.891  1.00  0.00     0.019 C 
HETATM    8  C   UNL     1      36.792  -5.235   5.631  1.00  0.00     0.001 C 
HETATM    9  C   UNL     1      36.011  -6.272   5.138  1.00  0.00     0.002 C 
HETATM   10  C   UNL     1      36.605  -7.491   4.821  1.00  0.00     0.030 C 
BRANCH   6  11
HETATM   11  C   UNL     1      40.141  -6.972   6.200  1.00  0.00     0.256 C 
HETATM   12  N   UNL     1      40.381  -7.216   7.568  1.00  0.00    -0.345 N 
HETATM   13  C   UNL     1      39.370  -7.333   8.633  1.00  0.00     0.146 C 
HETATM   14  C   UNL     1      41.760  -6.983   8.035  1.00  0.00     0.146 C 
HETATM   15  C   UNL     1      39.825  -8.155   9.858  1.00  0.00     0.143 C 
HETATM   16  N   UNL     1      41.142  -7.675  10.317  1.00  0.00    -0.378 N 
HETATM   17  C   UNL     1      42.165  -7.812   9.265  1.00  0.00     0.143 C 
HETATM   18  O   UNL     1      41.085  -7.021   5.411  1.00  0.00    -0.267 OA
BRANCH  16  19
HETATM   19  C   UNL     1      41.470  -7.990  11.636  1.00  0.00     0.030 A 
HETATM   20  C   UNL     1      40.651  -8.752  12.480  1.00  0.00     0.029 A 
HETATM   21  C   UNL     1      41.050  -9.083  13.781  1.00  0.00     0.002 A 
HETATM   22  C   UNL     1      42.285  -8.662  14.264  1.00  0.00     0.000 A 
HETATM   23  C   UNL     1      43.120  -7.909  13.447  1.00  0.00     0.002 A 
HETATM   24  C   UNL     1      42.712  -7.578  12.151  1.00  0.00     0.029 A 
ENDBRANCH  16  19
ENDBRANCH   6  11
ENDBRANCH   2   5
BRANCH   1  25
HETATM   25  C   UNL     1      39.289 -11.186   4.534  1.00  0.00     0.032 A 
HETATM   26  C   UNL     1      39.975 -12.124   5.311  1.00  0.00     0.019 A 
HETATM   27  C   UNL     1      40.589 -13.233   4.706  1.00  0.00     0.030 A 
HETATM   28  C   UNL     1      40.546 -13.405   3.321  1.00  0.00     0.034 A 
HETATM   29  C   UNL     1      39.916 -12.431   2.541  1.00  0.00     0.030 A 
HETATM   30  C   UNL     1      39.289 -11.336   3.141  1.00  0.00     0.019 A 
BRANCH  28  31
HETATM   31  N   UNL     1      41.076 -14.519   2.640  1.00  0.00    -0.327 N 
HETATM   32  C   UNL     1      42.379 -14.709   2.210  1.00  0.00     0.226 C 
HETATM   33  O   UNL     1      43.298 -13.899   2.287  1.00  0.00    -0.273 OA
HETATM   34  H   UNL     1      40.432 -15.282   2.477  1.00  0.00     0.169 HD
BRANCH  32  35
HETATM   35  C   UNL     1      42.606 -16.100   1.633  1.00  0.00     0.141 C 
BRANCH  35  36
HETATM   36  C   UNL     1      43.156 -17.071   2.644  1.00  0.00    -0.050 A 
HETATM   37  C   UNL     1      43.445 -16.638   3.946  1.00  0.00     0.007 A 
HETATM   38  C   UNL     1      43.958 -17.527   4.890  1.00  0.00     0.001 A 
HETATM   39  C   UNL     1      44.194 -18.855   4.542  1.00  0.00     0.000 A 
HETATM   40  C   UNL     1      43.918 -19.295   3.248  1.00  0.00     0.001 A 
HETATM   41  C   UNL     1      43.401 -18.408   2.302  1.00  0.00     0.007 A 
ENDBRANCH  35  36
ENDBRANCH  32  35
ENDBRANCH  28  31
ENDBRANCH   1  25
TORSDOF 7
ENDMDL
MODEL 10
REMARK VINA RESULT:      -8.7     17.481     21.357
REMARK  7 active torsions:
REMARK  status: ('A' for Active; 'I' for Inactive)
REMARK    1  A    between atoms: C_4  and  C_5 
REMARK    2  A    between atoms: C_5  and  C_6 
REMARK       I    between atoms: C_6  and  N_7 
REMARK    3  A    between atoms: N_7  and  C_8 
REMARK    4  A    between atoms: C_11  and  C_12 
REMARK       I    between atoms: C_12  and  N_13 
REMARK    5  A    between atoms: N_13  and  C_14 
REMARK    6  A    between atoms: C_15  and  C_16 
REMARK       I    between atoms: C_16  and  N_17 
REMARK    7  A    between atoms: N_20  and  C_21 
ROOT
HETATM    1  C   UNL     1      39.897 -32.621   3.395  1.00  0.00     0.256 C 
HETATM    2  N   UNL     1      39.141 -32.264   4.516  1.00  0.00    -0.322 N 
HETATM    3  O   UNL     1      39.885 -33.738   2.881  1.00  0.00    -0.267 OA
HETATM    4  H   UNL     1      39.630 -31.640   5.143  1.00  0.00     0.169 HD
ENDROOT
BRANCH   2   5
HETATM    5  C   UNL     1      38.345 -33.263   5.134  1.00  0.00     0.050 C 
HETATM    6  C   UNL     1      38.772 -34.067   6.214  1.00  0.00     0.059 C 
HETATM    7  C   UNL     1      37.782 -34.708   6.976  1.00  0.00     0.019 C 
HETATM    8  C   UNL     1      36.444 -34.722   6.571  1.00  0.00     0.001 C 
HETATM    9  C   UNL     1      36.069 -34.070   5.403  1.00  0.00     0.002 C 
HETATM   10  C   UNL     1      37.012 -33.332   4.692  1.00  0.00     0.030 C 
BRANCH   6  11
HETATM   11  C   UNL     1      40.232 -34.272   6.541  1.00  0.00     0.256 C 
HETATM   12  N   UNL     1      40.826 -33.640   7.654  1.00  0.00    -0.345 N 
HETATM   13  C   UNL     1      40.145 -32.809   8.662  1.00  0.00     0.146 C 
HETATM   14  C   UNL     1      42.293 -33.500   7.612  1.00  0.00     0.146 C 
HETATM   15  C   UNL     1      40.863 -32.744  10.026  1.00  0.00     0.143 C 
HETATM   16  N   UNL     1      42.286 -32.413   9.823  1.00  0.00    -0.378 N 
HETATM   17  C   UNL     1      42.965 -33.425   8.994  1.00  0.00     0.143 C 
HETATM   18  O   UNL     1      40.914 -35.033   5.854  1.00  0.00    -0.267 OA
BRANCH  16  19
HETATM   19  C   UNL     1      42.945 -31.885  10.934  1.00  0.00     0.030 A 
HETATM   20  C   UNL     1      43.913 -32.584  11.669  1.00  0.00     0.029 A 
HETATM   21  C   UNL     1      44.581 -31.991  12.747  1.00  0.00     0.002 A 
HETATM   22  C   UNL     1      44.298 -30.678  13.110  1.00  0.00     0.000 A 
HETATM   23  C   UNL     1      43.346 -29.960  12.396  1.00  0.00     0.002 A 
HETATM   24  C   UNL     1      42.679 -30.561  11.324  1.00  0.00     0.029 A 
ENDBRANCH  16  19
ENDBRANCH   6  11
ENDBRANCH   2   5
BRANCH   1  25
HETATM   25  C   UNL     1      40.895 -31.621   2.903  1.00  0.00     0.032 A 
HETATM   26  C   UNL     1      41.346 -30.536   3.662  1.00  0.00     0.019 A 
HETATM   27  C   UNL     1      42.370 -29.707   3.177  1.00  0.00     0.030 A 
HETATM   28  C   UNL     1      42.939 -29.935   1.922  1.00  0.00     0.034 A 
HETATM   29  C   UNL     1      42.440 -30.979   1.137  1.00  0.00     0.030 A 
HETATM   30  C   UNL     1      41.434 -31.817   1.624  1.00  0.00     0.019 A 
BRANCH  28  31
HETATM   31  N   UNL     1      44.012 -29.195   1.388  1.00  0.00    -0.327 N 
HETATM   32  C   UNL     1      45.361 -29.506   1.431  1.00  0.00     0.226 C 
HETATM   33  O   UNL     1      45.872 -30.460   2.010  1.00  0.00    -0.273 OA
HETATM   34  H   UNL     1      43.759 -28.354   0.885  1.00  0.00     0.169 HD
BRANCH  32  35
HETATM   35  C   UNL     1      46.210 -28.534   0.622  1.00  0.00     0.141 C 
BRANCH  35  36
HETATM   36  C   UNL     1      46.020 -28.688  -0.864  1.00  0.00    -0.050 A 
HETATM   37  C   UNL     1      46.687 -29.710  -1.554  1.00  0.00     0.007 A 
HETATM   38  C   UNL     1      46.521 -29.860  -2.931  1.00  0.00     0.001 A 
HETATM   39  C   UNL     1      45.694 -28.986  -3.633  1.00  0.00     0.000 A 
HETATM   40  C   UNL     1      45.032 -27.962  -2.959  1.00  0.00     0.001 A 
HETATM   41  C   UNL     1      45.193 -27.812  -1.581  1.00  0.00     0.007 A 
ENDBRANCH  35  36
ENDBRANCH  32  35
ENDBRANCH  28  31
ENDBRANCH   1  25
TORSDOF 7
ENDMDL
