MODEL 1
REMARK VINA RESULT:      -8.8      0.000      0.000
REMARK  8 active torsions:
REMARK  status: ('A' for Active; 'I' for Inactive)
REMARK    1  A    between atoms: C_7  and  C_8 
REMARK    2  A    between atoms: C_8  and  O_9 
REMARK    3  A    between atoms: O_9  and  C_10 
REMARK    4  A    between atoms: C_13  and  C_14 
REMARK       I    between atoms: C_14  and  N_15 
REMARK    5  A    between atoms: N_15  and  C_16 
REMARK    6  A    between atoms: C_16  and  C_17 
REMARK    7  A    between atoms: C_20  and  C_21 
REMARK    8  A    between atoms: C_21  and  N_22 
ROOT
HETATM    1  C   UNL     1      44.071 -11.391   6.361  1.00  0.00     0.251 C 
HETATM    2  N   UNL     1      45.297 -11.207   6.966  1.00  0.00    -0.353 N 
HETATM    3  O   UNL     1      43.308 -10.472   6.086  1.00  0.00    -0.268 OA
HETATM    4  H   UNL     1      45.950 -11.974   7.032  1.00  0.00     0.163 HD
ENDROOT
BRANCH   1   5
HETATM    5  C   UNL     1      43.688 -12.798   6.060  1.00  0.00     0.032 A 
HETATM    6  C   UNL     1      43.163 -13.168   4.817  1.00  0.00     0.020 A 
HETATM    7  C   UNL     1      42.884 -14.511   4.551  1.00  0.00     0.038 A 
HETATM    8  C   UNL     1      43.140 -15.495   5.508  1.00  0.00     0.069 A 
HETATM    9  C   UNL     1      43.642 -15.127   6.756  1.00  0.00     0.038 A 
HETATM   10  C   UNL     1      43.927 -13.783   7.027  1.00  0.00     0.020 A 
BRANCH   8  11
HETATM   11  O   UNL     1      42.855 -16.766   5.099  1.00  0.00    -0.347 OA
BRANCH  11  12
HETATM   12  C   UNL     1      43.926 -17.712   5.105  1.00  0.00     0.219 C 
BRANCH  12  13
HETATM   13  C   UNL     1      43.753 -18.675   3.986  1.00  0.00     0.024 A 
HETATM   14  C   UNL     1      43.915 -20.086   4.027  1.00  0.00     0.069 A 
HETATM   15  C   UNL     1      44.298 -20.931   5.182  1.00  0.00     0.073 C 
HETATM   16  N   UNL     1      43.681 -20.642   2.833  1.00  0.00    -0.133 NA
HETATM   17  O   UNL     1      43.376 -19.596   1.986  1.00  0.00    -0.217 OA
HETATM   18  C   UNL     1      43.423 -18.424   2.672  1.00  0.00     0.085 A 
HETATM   19  C   UNL     1      43.137 -17.203   1.897  1.00  0.00     0.079 C 
ENDBRANCH  12  13
ENDBRANCH  11  12
ENDBRANCH   8  11
ENDBRANCH   1   5
BRANCH   2  20
HETATM   20  C   UNL     1      45.717  -9.908   7.444  1.00  0.00     0.161 C 
BRANCH  20  21
HETATM   21  C   UNL     1      45.006  -9.485   8.713  1.00  0.00    -0.041 A 
HETATM   22  C   UNL     1      45.085 -10.232   9.896  1.00  0.00     0.009 A 
HETATM   23  C   UNL     1      44.389  -9.838  11.040  1.00  0.00     0.009 A 
HETATM   24  C   UNL     1      43.619  -8.669  11.040  1.00  0.00    -0.033 A 
HETATM   25  C   UNL     1      43.571  -7.894   9.874  1.00  0.00     0.009 A 
HETATM   26  C   UNL     1      44.256  -8.300   8.724  1.00  0.00     0.009 A 
BRANCH  24  27
HETATM   27  C   UNL     1      42.854  -8.262  12.269  1.00  0.00     0.273 C 
BRANCH  27  28
HETATM   28  N   UNL     1      41.355  -8.315  12.095  1.00  0.00    -0.067 N 
HETATM   29  H   UNL     1      41.088  -7.440  11.626  1.00  0.00     0.280 HD
HETATM   30  C   UNL     1      40.567  -8.397  13.387  1.00  0.00     0.235 C 
HETATM   31  C   UNL     1      40.153  -9.851  13.467  1.00  0.00     0.029 C 
HETATM   32  C   UNL     1      39.821 -10.177  12.026  1.00  0.00     0.029 C 
HETATM   33  C   UNL     1      40.918  -9.487  11.233  1.00  0.00     0.235 C 
ENDBRANCH  27  28
ENDBRANCH  24  27
ENDBRANCH  20  21
ENDBRANCH   2  20
TORSDOF 8
ENDMDL
MODEL 2
REMARK VINA RESULT:      -8.7      0.936      2.092
REMARK  8 active torsions:
REMARK  status: ('A' for Active; 'I' for Inactive)
REMARK    1  A    between atoms: C_7  and  C_8 
REMARK    2  A    between atoms: C_8  and  O_9 
REMARK    3  A    between atoms: O_9  and  C_10 
REMARK    4  A    between atoms: C_13  and  C_14 
REMARK       I    between atoms: C_14  and  N_15 
REMARK    5  A    between atoms: N_15  and  C_16 
REMARK    6  A    between atoms: C_16  and  C_17 
REMARK    7  A    between atoms: C_20  and  C_21 
REMARK    8  A    between atoms: C_21  and  N_22 
ROOT
HETATM    1  C   UNL     1      43.408 -11.054   6.625  1.00  0.00     0.251 C 
HETATM    2  N   UNL     1      44.285 -10.726   7.637  1.00  0.00    -0.353 N 
HETATM    3  O   UNL     1      42.694 -10.234   6.058  1.00  0.00    -0.268 OA
HETATM    4  H   UNL     1      44.957 -11.404   7.965  1.00  0.00     0.163 HD
ENDROOT
BRANCH   1   5
HETATM    5  C   UNL     1      43.346 -12.491   6.244  1.00  0.00     0.032 A 
HETATM    6  C   UNL     1      43.732 -13.505   7.128  1.00  0.00     0.020 A 
HETATM    7  C   UNL     1      43.590 -14.844   6.757  1.00  0.00     0.038 A 
HETATM    8  C   UNL     1      43.050 -15.186   5.515  1.00  0.00     0.069 A 
HETATM    9  C   UNL     1      42.686 -14.178   4.622  1.00  0.00     0.038 A 
HETATM   10  C   UNL     1      42.822 -12.834   4.991  1.00  0.00     0.020 A 
BRANCH   8  11
HETATM   11  O   UNL     1      42.935 -16.529   5.301  1.00  0.00    -0.347 OA
BRANCH  11  12
HETATM   12  C   UNL     1      44.136 -17.257   5.041  1.00  0.00     0.219 C 
BRANCH  12  13
HETATM   13  C   UNL     1      43.875 -18.314   4.029  1.00  0.00     0.024 A 
HETATM   14  C   UNL     1      43.440 -18.139   2.687  1.00  0.00     0.069 A 
HETATM   15  C   UNL     1      43.140 -16.873   1.980  1.00  0.00     0.073 C 
HETATM   16  N   UNL     1      43.305 -19.311   2.057  1.00  0.00    -0.133 NA
HETATM   17  O   UNL     1      43.636 -20.276   2.987  1.00  0.00    -0.217 OA
HETATM   18  C   UNL     1      43.971 -19.683   4.162  1.00  0.00     0.085 A 
HETATM   19  C   UNL     1      44.334 -20.586   5.270  1.00  0.00     0.079 C 
ENDBRANCH  12  13
ENDBRANCH  11  12
ENDBRANCH   8  11
ENDBRANCH   1   5
BRANCH   2  20
HETATM   20  C   UNL     1      44.328  -9.393   8.199  1.00  0.00     0.161 C 
BRANCH  20  21
HETATM   21  C   UNL     1      43.868  -9.343   9.641  1.00  0.00    -0.041 A 
HETATM   22  C   UNL     1      43.819 -10.486  10.450  1.00  0.00     0.009 A 
HETATM   23  C   UNL     1      43.354 -10.416  11.764  1.00  0.00     0.009 A 
HETATM   24  C   UNL     1      42.955  -9.192  12.315  1.00  0.00    -0.033 A 
HETATM   25  C   UNL     1      43.043  -8.037  11.527  1.00  0.00     0.009 A 
HETATM   26  C   UNL     1      43.493  -8.114  10.205  1.00  0.00     0.009 A 
BRANCH  24  27
HETATM   27  C   UNL     1      42.435  -9.126  13.725  1.00  0.00     0.273 C 
BRANCH  27  28
HETATM   28  N   UNL     1      40.928  -9.129  13.815  1.00  0.00    -0.067 N 
HETATM   29  H   UNL     1      40.700  -9.229  14.813  1.00  0.00     0.280 HD
HETATM   30  C   UNL     1      40.248 -10.263  13.077  1.00  0.00     0.235 C 
HETATM   31  C   UNL     1      39.718  -9.611  11.818  1.00  0.00     0.029 C 
HETATM   32  C   UNL     1      39.238  -8.267  12.323  1.00  0.00     0.029 C 
HETATM   33  C   UNL     1      40.320  -7.836  13.299  1.00  0.00     0.235 C 
ENDBRANCH  27  28
ENDBRANCH  24  27
ENDBRANCH  20  21
ENDBRANCH   2  20
TORSDOF 8
ENDMDL
MODEL 3
REMARK VINA RESULT:      -8.6      2.698     10.536
REMARK  8 active torsions:
REMARK  status: ('A' for Active; 'I' for Inactive)
REMARK    1  A    between atoms: C_7  and  C_8 
REMARK    2  A    between atoms: C_8  and  O_9 
REMARK    3  A    between atoms: O_9  and  C_10 
REMARK    4  A    between atoms: C_13  and  C_14 
REMARK       I    between atoms: C_14  and  N_15 
REMARK    5  A    between atoms: N_15  and  C_16 
REMARK    6  A    between atoms: C_16  and  C_17 
REMARK    7  A    between atoms: C_20  and  C_21 
REMARK    8  A    between atoms: C_21  and  N_22 
ROOT
HETATM    1  C   UNL     1      43.684 -11.431   4.362  1.00  0.00     0.251 C 
HETATM    2  N   UNL     1      42.483 -11.728   3.752  1.00  0.00    -0.353 N 
HETATM    3  O   UNL     1      44.770 -11.536   3.802  1.00  0.00    -0.268 OA
HETATM    4  H   UNL     1      41.613 -11.481   4.200  1.00  0.00     0.163 HD
ENDROOT
BRANCH   1   5
HETATM    5  C   UNL     1      43.612 -10.981   5.778  1.00  0.00     0.032 A 
HETATM    6  C   UNL     1      42.466 -10.372   6.301  1.00  0.00     0.020 A 
HETATM    7  C   UNL     1      42.414 -10.030   7.654  1.00  0.00     0.038 A 
HETATM    8  C   UNL     1      43.492 -10.303   8.500  1.00  0.00     0.069 A 
HETATM    9  C   UNL     1      44.645 -10.888   7.978  1.00  0.00     0.038 A 
HETATM   10  C   UNL     1      44.700 -11.237   6.623  1.00  0.00     0.020 A 
BRANCH   8  11
HETATM   11  O   UNL     1      43.289  -9.949   9.803  1.00  0.00    -0.347 OA
BRANCH  11  12
HETATM   12  C   UNL     1      42.297  -8.955  10.066  1.00  0.00     0.219 C 
BRANCH  12  13
HETATM   13  C   UNL     1      41.338  -9.458  11.084  1.00  0.00     0.024 A 
HETATM   14  C   UNL     1      39.988  -9.853  10.881  1.00  0.00     0.069 A 
HETATM   15  C   UNL     1      39.215  -9.854   9.617  1.00  0.00     0.073 C 
HETATM   16  N   UNL     1      39.416 -10.254  12.021  1.00  0.00    -0.133 NA
HETATM   17  O   UNL     1      40.384 -10.111  12.996  1.00  0.00    -0.217 OA
HETATM   18  C   UNL     1      41.527  -9.634  12.438  1.00  0.00     0.085 A 
HETATM   19  C   UNL     1      42.657  -9.407  13.358  1.00  0.00     0.079 C 
ENDBRANCH  12  13
ENDBRANCH  11  12
ENDBRANCH   8  11
ENDBRANCH   1   5
BRANCH   2  20
HETATM   20  C   UNL     1      42.430 -12.317   2.432  1.00  0.00     0.161 C 
BRANCH  20  21
HETATM   21  C   UNL     1      42.477 -13.831   2.456  1.00  0.00    -0.041 A 
HETATM   22  C   UNL     1      43.479 -14.557   1.798  1.00  0.00     0.009 A 
HETATM   23  C   UNL     1      43.474 -15.953   1.806  1.00  0.00     0.009 A 
HETATM   24  C   UNL     1      42.485 -16.660   2.501  1.00  0.00    -0.033 A 
HETATM   25  C   UNL     1      41.506 -15.939   3.198  1.00  0.00     0.009 A 
HETATM   26  C   UNL     1      41.504 -14.541   3.173  1.00  0.00     0.009 A 
BRANCH  24  27
HETATM   27  C   UNL     1      42.474 -18.164   2.488  1.00  0.00     0.273 C 
BRANCH  27  28
HETATM   28  N   UNL     1      43.798 -18.783   2.866  1.00  0.00    -0.067 N 
HETATM   29  H   UNL     1      44.518 -18.257   2.354  1.00  0.00     0.280 HD
HETATM   30  C   UNL     1      43.947 -20.243   2.492  1.00  0.00     0.235 C 
HETATM   31  C   UNL     1      43.747 -20.975   3.801  1.00  0.00     0.029 C 
HETATM   32  C   UNL     1      44.461 -20.080   4.790  1.00  0.00     0.029 C 
HETATM   33  C   UNL     1      44.077 -18.676   4.356  1.00  0.00     0.235 C 
ENDBRANCH  27  28
ENDBRANCH  24  27
ENDBRANCH  20  21
ENDBRANCH   2  20
TORSDOF 8
ENDMDL
MODEL 4
REMARK VINA RESULT:      -8.5      2.635     10.761
REMARK  8 active torsions:
REMARK  status: ('A' for Active; 'I' for Inactive)
REMARK    1  A    between atoms: C_7  and  C_8 
REMARK    2  A    between atoms: C_8  and  O_9 
REMARK    3  A    between atoms: O_9  and  C_10 
REMARK    4  A    between atoms: C_13  and  C_14 
REMARK       I    between atoms: C_14  and  N_15 
REMARK    5  A    between atoms: N_15  and  C_16 
REMARK    6  A    between atoms: C_16  and  C_17 
REMARK    7  A    between atoms: C_20  and  C_21 
REMARK    8  A    between atoms: C_21  and  N_22 
ROOT
HETATM    1  C   UNL     1      43.983 -11.476   4.442  1.00  0.00     0.251 C 
HETATM    2  N   UNL     1      42.725 -11.761   3.953  1.00  0.00    -0.353 N 
HETATM    3  O   UNL     1      45.004 -11.561   3.769  1.00  0.00    -0.268 OA
HETATM    4  H   UNL     1      41.906 -11.530   4.496  1.00  0.00     0.163 HD
ENDROOT
BRANCH   1   5
HETATM    5  C   UNL     1      44.059 -11.062   5.869  1.00  0.00     0.032 A 
HETATM    6  C   UNL     1      42.949 -10.547   6.547  1.00  0.00     0.020 A 
HETATM    7  C   UNL     1      43.045 -10.239   7.906  1.00  0.00     0.038 A 
HETATM    8  C   UNL     1      44.235 -10.454   8.604  1.00  0.00     0.069 A 
HETATM    9  C   UNL     1      45.350 -10.945   7.926  1.00  0.00     0.038 A 
HETATM   10  C   UNL     1      45.259 -11.260   6.565  1.00  0.00     0.020 A 
BRANCH   8  11
HETATM   11  O   UNL     1      44.174 -10.144   9.932  1.00  0.00    -0.347 OA
BRANCH  11  12
HETATM   12  C   UNL     1      42.878  -9.964  10.504  1.00  0.00     0.219 C 
BRANCH  12  13
HETATM   13  C   UNL     1      42.798  -8.633  11.162  1.00  0.00     0.024 A 
HETATM   14  C   UNL     1      42.519  -8.358  12.528  1.00  0.00     0.069 A 
HETATM   15  C   UNL     1      42.237  -9.322  13.617  1.00  0.00     0.073 C 
HETATM   16  N   UNL     1      42.525  -7.044  12.776  1.00  0.00    -0.133 NA
HETATM   17  O   UNL     1      42.794  -6.435  11.566  1.00  0.00    -0.217 OA
HETATM   18  C   UNL     1      42.953  -7.382  10.605  1.00  0.00     0.085 A 
HETATM   19  C   UNL     1      43.228  -6.888   9.243  1.00  0.00     0.079 C 
ENDBRANCH  12  13
ENDBRANCH  11  12
ENDBRANCH   8  11
ENDBRANCH   1   5
BRANCH   2  20
HETATM   20  C   UNL     1      42.535 -12.316   2.631  1.00  0.00     0.161 C 
BRANCH  20  21
HETATM   21  C   UNL     1      42.493 -13.830   2.624  1.00  0.00    -0.041 A 
HETATM   22  C   UNL     1      41.720 -14.559   3.537  1.00  0.00     0.009 A 
HETATM   23  C   UNL     1      41.730 -15.955   3.531  1.00  0.00     0.009 A 
HETATM   24  C   UNL     1      42.492 -16.659   2.590  1.00  0.00    -0.033 A 
HETATM   25  C   UNL     1      43.233 -15.936   1.646  1.00  0.00     0.009 A 
HETATM   26  C   UNL     1      43.233 -14.538   1.665  1.00  0.00     0.009 A 
BRANCH  24  27
HETATM   27  C   UNL     1      42.516 -18.163   2.603  1.00  0.00     0.273 C 
BRANCH  27  28
HETATM   28  N   UNL     1      43.835 -18.744   3.053  1.00  0.00    -0.067 N 
HETATM   29  H   UNL     1      44.567 -18.178   2.604  1.00  0.00     0.280 HD
HETATM   30  C   UNL     1      44.064 -20.187   2.651  1.00  0.00     0.235 C 
HETATM   31  C   UNL     1      43.807 -20.963   3.924  1.00  0.00     0.029 C 
HETATM   32  C   UNL     1      44.420 -20.070   4.982  1.00  0.00     0.029 C 
HETATM   33  C   UNL     1      44.012 -18.670   4.560  1.00  0.00     0.235 C 
ENDBRANCH  27  28
ENDBRANCH  24  27
ENDBRANCH  20  21
ENDBRANCH   2  20
TORSDOF 8
ENDMDL
MODEL 5
REMARK VINA RESULT:      -8.5      2.014      3.245
REMARK  8 active torsions:
REMARK  status: ('A' for Active; 'I' for Inactive)
REMARK    1  A    between atoms: C_7  and  C_8 
REMARK    2  A    between atoms: C_8  and  O_9 
REMARK    3  A    between atoms: O_9  and  C_10 
REMARK    4  A    between atoms: C_13  and  C_14 
REMARK       I    between atoms: C_14  and  N_15 
REMARK    5  A    between atoms: N_15  and  C_16 
REMARK    6  A    between atoms: C_16  and  C_17 
REMARK    7  A    between atoms: C_20  and  C_21 
REMARK    8  A    between atoms: C_21  and  N_22 
ROOT
HETATM    1  C   UNL     1      45.157 -11.001   7.783  1.00  0.00     0.251 C 
HETATM    2  N   UNL     1      44.442 -10.625   8.900  1.00  0.00    -0.353 N 
HETATM    3  O   UNL     1      46.322 -10.675   7.585  1.00  0.00    -0.268 OA
HETATM    4  H   UNL     1      43.542 -11.042   9.090  1.00  0.00     0.163 HD
ENDROOT
BRANCH   1   5
HETATM    5  C   UNL     1      44.432 -11.830   6.782  1.00  0.00     0.032 A 
HETATM    6  C   UNL     1      43.799 -13.026   7.135  1.00  0.00     0.020 A 
HETATM    7  C   UNL     1      43.067 -13.736   6.180  1.00  0.00     0.038 A 
HETATM    8  C   UNL     1      42.947 -13.257   4.874  1.00  0.00     0.069 A 
HETATM    9  C   UNL     1      43.595 -12.077   4.512  1.00  0.00     0.038 A 
HETATM   10  C   UNL     1      44.326 -11.359   5.467  1.00  0.00     0.020 A 
BRANCH   8  11
HETATM   11  O   UNL     1      42.173 -14.032   4.059  1.00  0.00    -0.347 OA
BRANCH  11  12
HETATM   12  C   UNL     1      41.721 -15.283   4.579  1.00  0.00     0.219 C 
BRANCH  12  13
HETATM   13  C   UNL     1      42.329 -16.398   3.807  1.00  0.00     0.024 A 
HETATM   14  C   UNL     1      41.924 -16.894   2.538  1.00  0.00     0.069 A 
HETATM   15  C   UNL     1      40.805 -16.427   1.687  1.00  0.00     0.073 C 
HETATM   16  N   UNL     1      42.697 -17.910   2.138  1.00  0.00    -0.133 NA
HETATM   17  O   UNL     1      43.613 -18.106   3.152  1.00  0.00    -0.217 OA
HETATM   18  C   UNL     1      43.392 -17.208   4.148  1.00  0.00     0.085 A 
HETATM   19  C   UNL     1      44.282 -17.299   5.319  1.00  0.00     0.079 C 
ENDBRANCH  12  13
ENDBRANCH  11  12
ENDBRANCH   8  11
ENDBRANCH   1   5
BRANCH   2  20
HETATM   20  C   UNL     1      44.985  -9.699   9.870  1.00  0.00     0.161 C 
BRANCH  20  21
HETATM   21  C   UNL     1      44.088  -9.511  11.076  1.00  0.00    -0.041 A 
HETATM   22  C   UNL     1      43.428 -10.584  11.690  1.00  0.00     0.009 A 
HETATM   23  C   UNL     1      42.578 -10.376  12.777  1.00  0.00     0.009 A 
HETATM   24  C   UNL     1      42.389  -9.090  13.300  1.00  0.00    -0.033 A 
HETATM   25  C   UNL     1      43.081  -8.019  12.719  1.00  0.00     0.009 A 
HETATM   26  C   UNL     1      43.919  -8.229  11.619  1.00  0.00     0.009 A 
BRANCH  24  27
HETATM   27  C   UNL     1      41.455  -8.870  14.457  1.00  0.00     0.273 C 
BRANCH  27  28
HETATM   28  N   UNL     1      41.398  -7.436  14.925  1.00  0.00    -0.067 N 
HETATM   29  H   UNL     1      42.090  -6.922  14.364  1.00  0.00     0.280 HD
HETATM   30  C   UNL     1      41.750  -7.228  16.384  1.00  0.00     0.235 C 
HETATM   31  C   UNL     1      40.409  -7.023  17.055  1.00  0.00     0.029 C 
HETATM   32  C   UNL     1      39.658  -6.188  16.040  1.00  0.00     0.029 C 
HETATM   33  C   UNL     1      40.029  -6.814  14.706  1.00  0.00     0.235 C 
ENDBRANCH  27  28
ENDBRANCH  24  27
ENDBRANCH  20  21
ENDBRANCH   2  20
TORSDOF 8
ENDMDL
MODEL 6
REMARK VINA RESULT:      -8.4      2.326      3.413
REMARK  8 active torsions:
REMARK  status: ('A' for Active; 'I' for Inactive)
REMARK    1  A    between atoms: C_7  and  C_8 
REMARK    2  A    between atoms: C_8  and  O_9 
REMARK    3  A    between atoms: O_9  and  C_10 
REMARK    4  A    between atoms: C_13  and  C_14 
REMARK       I    between atoms: C_14  and  N_15 
REMARK    5  A    between atoms: N_15  and  C_16 
REMARK    6  A    between atoms: C_16  and  C_17 
REMARK    7  A    between atoms: C_20  and  C_21 
REMARK    8  A    between atoms: C_21  and  N_22 
ROOT
HETATM    1  C   UNL     1      40.215 -12.686   5.875  1.00  0.00     0.251 C 
HETATM    2  N   UNL     1      40.906 -11.507   5.694  1.00  0.00    -0.353 N 
HETATM    3  O   UNL     1      39.003 -12.740   6.047  1.00  0.00    -0.268 OA
HETATM    4  H   UNL     1      41.873 -11.524   5.404  1.00  0.00     0.163 HD
ENDROOT
BRANCH   1   5
HETATM    5  C   UNL     1      41.027 -13.934   5.870  1.00  0.00     0.032 A 
HETATM    6  C   UNL     1      42.378 -13.933   5.509  1.00  0.00     0.020 A 
HETATM    7  C   UNL     1      43.122 -15.113   5.588  1.00  0.00     0.038 A 
HETATM    8  C   UNL     1      42.534 -16.296   6.041  1.00  0.00     0.069 A 
HETATM    9  C   UNL     1      41.182 -16.307   6.380  1.00  0.00     0.038 A 
HETATM   10  C   UNL     1      40.433 -15.125   6.307  1.00  0.00     0.020 A 
BRANCH   8  11
HETATM   11  O   UNL     1      43.387 -17.361   6.102  1.00  0.00    -0.347 OA
BRANCH  11  12
HETATM   12  C   UNL     1      44.395 -17.452   5.095  1.00  0.00     0.219 C 
BRANCH  12  13
HETATM   13  C   UNL     1      43.984 -18.437   4.060  1.00  0.00     0.024 A 
HETATM   14  C   UNL     1      43.490 -18.166   2.755  1.00  0.00     0.069 A 
HETATM   15  C   UNL     1      43.262 -16.849   2.118  1.00  0.00     0.073 C 
HETATM   16  N   UNL     1      43.217 -19.294   2.090  1.00  0.00    -0.133 NA
HETATM   17  O   UNL     1      43.514 -20.324   2.959  1.00  0.00    -0.217 OA
HETATM   18  C   UNL     1      43.967 -19.814   4.134  1.00  0.00     0.085 A 
HETATM   19  C   UNL     1      44.312 -20.792   5.181  1.00  0.00     0.079 C 
ENDBRANCH  12  13
ENDBRANCH  11  12
ENDBRANCH   8  11
ENDBRANCH   1   5
BRANCH   2  20
HETATM   20  C   UNL     1      40.255 -10.221   5.827  1.00  0.00     0.161 C 
BRANCH  20  21
HETATM   21  C   UNL     1      40.362  -9.645   7.224  1.00  0.00    -0.041 A 
HETATM   22  C   UNL     1      41.434  -8.833   7.617  1.00  0.00     0.009 A 
HETATM   23  C   UNL     1      41.525  -8.348   8.922  1.00  0.00     0.009 A 
HETATM   24  C   UNL     1      40.528  -8.637   9.862  1.00  0.00    -0.033 A 
HETATM   25  C   UNL     1      39.430  -9.411   9.464  1.00  0.00     0.009 A 
HETATM   26  C   UNL     1      39.351  -9.910   8.160  1.00  0.00     0.009 A 
BRANCH  24  27
HETATM   27  C   UNL     1      40.643  -8.129  11.273  1.00  0.00     0.273 C 
BRANCH  27  28
HETATM   28  N   UNL     1      42.036  -8.240  11.845  1.00  0.00    -0.067 N 
HETATM   29  H   UNL     1      42.672  -8.321  11.041  1.00  0.00     0.280 HD
HETATM   30  C   UNL     1      42.265  -9.449  12.730  1.00  0.00     0.235 C 
HETATM   31  C   UNL     1      42.225  -8.884  14.133  1.00  0.00     0.029 C 
HETATM   32  C   UNL     1      42.945  -7.562  13.975  1.00  0.00     0.029 C 
HETATM   33  C   UNL     1      42.423  -7.016  12.657  1.00  0.00     0.235 C 
ENDBRANCH  27  28
ENDBRANCH  24  27
ENDBRANCH  20  21
ENDBRANCH   2  20
TORSDOF 8
ENDMDL
MODEL 7
REMARK VINA RESULT:      -8.4      1.565      2.496
REMARK  8 active torsions:
REMARK  status: ('A' for Active; 'I' for Inactive)
REMARK    1  A    between atoms: C_7  and  C_8 
REMARK    2  A    between atoms: C_8  and  O_9 
REMARK    3  A    between atoms: O_9  and  C_10 
REMARK    4  A    between atoms: C_13  and  C_14 
REMARK       I    between atoms: C_14  and  N_15 
REMARK    5  A    between atoms: N_15  and  C_16 
REMARK    6  A    between atoms: C_16  and  C_17 
REMARK    7  A    between atoms: C_20  and  C_21 
REMARK    8  A    between atoms: C_21  and  N_22 
ROOT
HETATM    1  C   UNL     1      44.050 -10.412   7.624  1.00  0.00     0.251 C 
HETATM    2  N   UNL     1      45.012 -10.711   8.566  1.00  0.00    -0.353 N 
HETATM    3  O   UNL     1      43.547  -9.301   7.500  1.00  0.00    -0.268 OA
HETATM    4  H   UNL     1      45.502 -11.593   8.528  1.00  0.00     0.163 HD
ENDROOT
BRANCH   1   5
HETATM    5  C   UNL     1      43.616 -11.532   6.745  1.00  0.00     0.032 A 
HETATM    6  C   UNL     1      43.052 -11.304   5.485  1.00  0.00     0.020 A 
HETATM    7  C   UNL     1      42.726 -12.384   4.662  1.00  0.00     0.038 A 
HETATM    8  C   UNL     1      42.970 -13.695   5.076  1.00  0.00     0.069 A 
HETATM    9  C   UNL     1      43.510 -13.927   6.340  1.00  0.00     0.038 A 
HETATM   10  C   UNL     1      43.844 -12.848   7.168  1.00  0.00     0.020 A 
BRANCH   8  11
HETATM   11  O   UNL     1      42.637 -14.648   4.157  1.00  0.00    -0.347 OA
BRANCH  11  12
HETATM   12  C   UNL     1      41.967 -15.814   4.636  1.00  0.00     0.219 C 
BRANCH  12  13
HETATM   13  C   UNL     1      42.877 -16.987   4.555  1.00  0.00     0.024 A 
HETATM   14  C   UNL     1      43.331 -17.651   3.383  1.00  0.00     0.069 A 
HETATM   15  C   UNL     1      43.006 -17.342   1.972  1.00  0.00     0.073 C 
HETATM   16  N   UNL     1      44.142 -18.672   3.681  1.00  0.00    -0.133 NA
HETATM   17  O   UNL     1      44.219 -18.701   5.059  1.00  0.00    -0.217 OA
HETATM   18  C   UNL     1      43.462 -17.700   5.579  1.00  0.00     0.085 A 
HETATM   19  C   UNL     1      43.424 -17.608   7.050  1.00  0.00     0.079 C 
ENDBRANCH  12  13
ENDBRANCH  11  12
ENDBRANCH   8  11
ENDBRANCH   1   5
BRANCH   2  20
HETATM   20  C   UNL     1      45.407  -9.751   9.574  1.00  0.00     0.161 C 
BRANCH  20  21
HETATM   21  C   UNL     1      44.410  -9.641  10.710  1.00  0.00    -0.041 A 
HETATM   22  C   UNL     1      43.920 -10.767  11.385  1.00  0.00     0.009 A 
HETATM   23  C   UNL     1      42.973 -10.637  12.402  1.00  0.00     0.009 A 
HETATM   24  C   UNL     1      42.514  -9.373  12.793  1.00  0.00    -0.033 A 
HETATM   25  C   UNL     1      43.034  -8.240  12.152  1.00  0.00     0.009 A 
HETATM   26  C   UNL     1      43.969  -8.375  11.122  1.00  0.00     0.009 A 
BRANCH  24  27
HETATM   27  C   UNL     1      41.478  -9.241  13.875  1.00  0.00     0.273 C 
BRANCH  27  28
HETATM   28  N   UNL     1      40.062  -9.192  13.354  1.00  0.00    -0.067 N 
HETATM   29  H   UNL     1      39.457  -9.467  14.139  1.00  0.00     0.280 HD
HETATM   30  C   UNL     1      39.773 -10.137  12.205  1.00  0.00     0.235 C 
HETATM   31  C   UNL     1      39.769  -9.237  10.989  1.00  0.00     0.029 C 
HETATM   32  C   UNL     1      39.081  -7.991  11.505  1.00  0.00     0.029 C 
HETATM   33  C   UNL     1      39.667  -7.799  12.893  1.00  0.00     0.235 C 
ENDBRANCH  27  28
ENDBRANCH  24  27
ENDBRANCH  20  21
ENDBRANCH   2  20
TORSDOF 8
ENDMDL
MODEL 8
REMARK VINA RESULT:      -8.3      3.485     10.281
REMARK  8 active torsions:
REMARK  status: ('A' for Active; 'I' for Inactive)
REMARK    1  A    between atoms: C_7  and  C_8 
REMARK    2  A    between atoms: C_8  and  O_9 
REMARK    3  A    between atoms: O_9  and  C_10 
REMARK    4  A    between atoms: C_13  and  C_14 
REMARK       I    between atoms: C_14  and  N_15 
REMARK    5  A    between atoms: N_15  and  C_16 
REMARK    6  A    between atoms: C_16  and  C_17 
REMARK    7  A    between atoms: C_20  and  C_21 
REMARK    8  A    between atoms: C_21  and  N_22 
ROOT
HETATM    1  C   UNL     1      45.262  -9.793   8.110  1.00  0.00     0.251 C 
HETATM    2  N   UNL     1      44.534 -10.778   7.477  1.00  0.00    -0.353 N 
HETATM    3  O   UNL     1      46.431  -9.539   7.843  1.00  0.00    -0.268 OA
HETATM    4  H   UNL     1      43.538 -10.846   7.623  1.00  0.00     0.163 HD
ENDROOT
BRANCH   1   5
HETATM    5  C   UNL     1      44.557  -9.034   9.179  1.00  0.00     0.032 A 
HETATM    6  C   UNL     1      43.817  -7.881   8.898  1.00  0.00     0.020 A 
HETATM    7  C   UNL     1      43.111  -7.240   9.919  1.00  0.00     0.038 A 
HETATM    8  C   UNL     1      43.121  -7.748  11.220  1.00  0.00     0.069 A 
HETATM    9  C   UNL     1      43.876  -8.884  11.509  1.00  0.00     0.038 A 
HETATM   10  C   UNL     1      44.582  -9.533  10.488  1.00  0.00     0.020 A 
BRANCH   8  11
HETATM   11  O   UNL     1      42.358  -7.044  12.106  1.00  0.00    -0.347 OA
BRANCH  11  12
HETATM   12  C   UNL     1      40.940  -7.115  11.952  1.00  0.00     0.219 C 
BRANCH  12  13
HETATM   13  C   UNL     1      40.465  -8.482  12.290  1.00  0.00     0.024 A 
HETATM   14  C   UNL     1      40.576  -9.152  13.539  1.00  0.00     0.069 A 
HETATM   15  C   UNL     1      41.191  -8.658  14.792  1.00  0.00     0.073 C 
HETATM   16  N   UNL     1      40.040 -10.376  13.489  1.00  0.00    -0.133 NA
HETATM   17  O   UNL     1      39.581 -10.532  12.195  1.00  0.00    -0.217 OA
HETATM   18  C   UNL     1      39.838  -9.406  11.481  1.00  0.00     0.085 A 
HETATM   19  C   UNL     1      39.424  -9.421  10.067  1.00  0.00     0.079 C 
ENDBRANCH  12  13
ENDBRANCH  11  12
ENDBRANCH   8  11
ENDBRANCH   1   5
BRANCH   2  20
HETATM   20  C   UNL     1      45.149 -11.682   6.529  1.00  0.00     0.161 C 
BRANCH  20  21
HETATM   21  C   UNL     1      44.197 -12.139   5.443  1.00  0.00    -0.041 A 
HETATM   22  C   UNL     1      44.170 -11.543   4.175  1.00  0.00     0.009 A 
HETATM   23  C   UNL     1      43.254 -11.960   3.206  1.00  0.00     0.009 A 
HETATM   24  C   UNL     1      42.362 -13.007   3.471  1.00  0.00    -0.033 A 
HETATM   25  C   UNL     1      42.414 -13.636   4.722  1.00  0.00     0.009 A 
HETATM   26  C   UNL     1      43.321 -13.205   5.695  1.00  0.00     0.009 A 
BRANCH  24  27
HETATM   27  C   UNL     1      41.365 -13.436   2.431  1.00  0.00     0.273 C 
BRANCH  27  28
HETATM   28  N   UNL     1      41.821 -14.614   1.604  1.00  0.00    -0.067 N 
HETATM   29  H   UNL     1      41.708 -14.336   0.620  1.00  0.00     0.280 HD
HETATM   30  C   UNL     1      41.022 -15.884   1.811  1.00  0.00     0.235 C 
HETATM   31  C   UNL     1      41.916 -16.735   2.687  1.00  0.00     0.029 C 
HETATM   32  C   UNL     1      43.292 -16.455   2.122  1.00  0.00     0.029 C 
HETATM   33  C   UNL     1      43.279 -14.961   1.852  1.00  0.00     0.235 C 
ENDBRANCH  27  28
ENDBRANCH  24  27
ENDBRANCH  20  21
ENDBRANCH   2  20
TORSDOF 8
ENDMDL
MODEL 9
REMARK VINA RESULT:      -8.2      2.405     10.858
REMARK  8 active torsions:
REMARK  status: ('A' for Active; 'I' for Inactive)
REMARK    1  A    between atoms: C_7  and  C_8 
REMARK    2  A    between atoms: C_8  and  O_9 
REMARK    3  A    between atoms: O_9  and  C_10 
REMARK    4  A    between atoms: C_13  and  C_14 
REMARK       I    between atoms: C_14  and  N_15 
REMARK    5  A    between atoms: N_15  and  C_16 
REMARK    6  A    between atoms: C_16  and  C_17 
REMARK    7  A    between atoms: C_20  and  C_21 
REMARK    8  A    between atoms: C_21  and  N_22 
ROOT
HETATM    1  C   UNL     1      43.620 -11.301   6.011  1.00  0.00     0.251 C 
HETATM    2  N   UNL     1      42.549 -12.130   5.748  1.00  0.00    -0.353 N 
HETATM    3  O   UNL     1      44.575 -11.171   5.255  1.00  0.00    -0.268 OA
HETATM    4  H   UNL     1      41.721 -12.087   6.324  1.00  0.00     0.163 HD
ENDROOT
BRANCH   1   5
HETATM    5  C   UNL     1      43.578 -10.558   7.300  1.00  0.00     0.032 A 
HETATM    6  C   UNL     1      44.558 -10.732   8.283  1.00  0.00     0.020 A 
HETATM    7  C   UNL     1      44.521  -9.962   9.447  1.00  0.00     0.038 A 
HETATM    8  C   UNL     1      43.523  -9.003   9.637  1.00  0.00     0.069 A 
HETATM    9  C   UNL     1      42.532  -8.842   8.669  1.00  0.00     0.038 A 
HETATM   10  C   UNL     1      42.566  -9.609   7.498  1.00  0.00     0.020 A 
BRANCH   8  11
HETATM   11  O   UNL     1      43.633  -8.298  10.801  1.00  0.00    -0.347 OA
BRANCH  11  12
HETATM   12  C   UNL     1      42.484  -7.568  11.235  1.00  0.00     0.219 C 
BRANCH  12  13
HETATM   13  C   UNL     1      41.884  -8.232  12.421  1.00  0.00     0.024 A 
HETATM   14  C   UNL     1      42.219  -8.031  13.787  1.00  0.00     0.069 A 
HETATM   15  C   UNL     1      43.242  -7.123  14.355  1.00  0.00     0.073 C 
HETATM   16  N   UNL     1      41.477  -8.799  14.593  1.00  0.00    -0.133 NA
HETATM   17  O   UNL     1      40.652  -9.529  13.761  1.00  0.00    -0.217 OA
HETATM   18  C   UNL     1      40.897  -9.194  12.467  1.00  0.00     0.085 A 
HETATM   19  C   UNL     1      40.105  -9.905  11.448  1.00  0.00     0.079 C 
ENDBRANCH  12  13
ENDBRANCH  11  12
ENDBRANCH   8  11
ENDBRANCH   1   5
BRANCH   2  20
HETATM   20  C   UNL     1      42.542 -13.016   4.605  1.00  0.00     0.161 C 
BRANCH  20  21
HETATM   21  C   UNL     1      42.784 -14.465   4.977  1.00  0.00    -0.041 A 
HETATM   22  C   UNL     1      43.803 -14.849   5.859  1.00  0.00     0.009 A 
HETATM   23  C   UNL     1      44.027 -16.195   6.154  1.00  0.00     0.009 A 
HETATM   24  C   UNL     1      43.215 -17.192   5.597  1.00  0.00    -0.033 A 
HETATM   25  C   UNL     1      42.167 -16.812   4.749  1.00  0.00     0.009 A 
HETATM   26  C   UNL     1      41.956 -15.463   4.443  1.00  0.00     0.009 A 
BRANCH  24  27
HETATM   27  C   UNL     1      43.475 -18.641   5.902  1.00  0.00     0.273 C 
BRANCH  27  28
HETATM   28  N   UNL     1      44.363 -19.324   4.889  1.00  0.00    -0.067 N 
HETATM   29  H   UNL     1      45.321 -19.260   5.257  1.00  0.00     0.280 HD
HETATM   30  C   UNL     1      44.361 -18.690   3.513  1.00  0.00     0.235 C 
HETATM   31  C   UNL     1      43.486 -19.611   2.691  1.00  0.00     0.029 C 
HETATM   32  C   UNL     1      43.879 -20.980   3.202  1.00  0.00     0.029 C 
HETATM   33  C   UNL     1      44.003 -20.788   4.704  1.00  0.00     0.235 C 
ENDBRANCH  27  28
ENDBRANCH  24  27
ENDBRANCH  20  21
ENDBRANCH   2  20
TORSDOF 8
ENDMDL
MODEL 10
REMARK VINA RESULT:      -8.2      1.812      2.587
REMARK  8 active torsions:
REMARK  status: ('A' for Active; 'I' for Inactive)
REMARK    1  A    between atoms: C_7  and  C_8 
REMARK    2  A    between atoms: C_8  and  O_9 
REMARK    3  A    between atoms: O_9  and  C_10 
REMARK    4  A    between atoms: C_13  and  C_14 
REMARK       I    between atoms: C_14  and  N_15 
REMARK    5  A    between atoms: N_15  and  C_16 
REMARK    6  A    between atoms: C_16  and  C_17 
REMARK    7  A    between atoms: C_20  and  C_21 
REMARK    8  A    between atoms: C_21  and  N_22 
ROOT
HETATM    1  C   UNL     1      45.088 -11.206   7.432  1.00  0.00     0.251 C 
HETATM    2  N   UNL     1      44.526 -10.703   8.586  1.00  0.00    -0.353 N 
HETATM    3  O   UNL     1      46.230 -10.948   7.069  1.00  0.00    -0.268 OA
HETATM    4  H   UNL     1      43.643 -11.064   8.919  1.00  0.00     0.163 HD
ENDROOT
BRANCH   1   5
HETATM    5  C   UNL     1      44.221 -12.089   6.605  1.00  0.00     0.032 A 
HETATM    6  C   UNL     1      43.993 -11.837   5.248  1.00  0.00     0.020 A 
HETATM    7  C   UNL     1      43.232 -12.731   4.491  1.00  0.00     0.038 A 
HETATM    8  C   UNL     1      42.706 -13.887   5.071  1.00  0.00     0.069 A 
HETATM    9  C   UNL     1      42.912 -14.130   6.429  1.00  0.00     0.038 A 
HETATM   10  C   UNL     1      43.678 -13.239   7.191  1.00  0.00     0.020 A 
BRANCH   8  11
HETATM   11  O   UNL     1      42.016 -14.688   4.207  1.00  0.00    -0.347 OA
BRANCH  11  12
HETATM   12  C   UNL     1      41.650 -15.989   4.669  1.00  0.00     0.219 C 
BRANCH  12  13
HETATM   13  C   UNL     1      42.733 -16.958   4.355  1.00  0.00     0.024 A 
HETATM   14  C   UNL     1      43.458 -17.770   5.268  1.00  0.00     0.069 A 
HETATM   15  C   UNL     1      43.315 -17.845   6.740  1.00  0.00     0.073 C 
HETATM   16  N   UNL     1      44.364 -18.527   4.639  1.00  0.00    -0.133 NA
HETATM   17  O   UNL     1      44.256 -18.206   3.300  1.00  0.00    -0.217 OA
HETATM   18  C   UNL     1      43.287 -17.269   3.132  1.00  0.00     0.085 A 
HETATM   19  C   UNL     1      43.062 -16.805   1.751  1.00  0.00     0.079 C 
ENDBRANCH  12  13
ENDBRANCH  11  12
ENDBRANCH   8  11
ENDBRANCH   1   5
BRANCH   2  20
HETATM   20  C   UNL     1      45.211  -9.718   9.395  1.00  0.00     0.161 C 
BRANCH  20  21
HETATM   21  C   UNL     1      44.264  -8.848  10.195  1.00  0.00    -0.041 A 
HETATM   22  C   UNL     1      43.572  -7.772   9.621  1.00  0.00     0.009 A 
HETATM   23  C   UNL     1      42.736  -6.964  10.393  1.00  0.00     0.009 A 
HETATM   24  C   UNL     1      42.543  -7.230  11.755  1.00  0.00    -0.033 A 
HETATM   25  C   UNL     1      43.197  -8.331  12.325  1.00  0.00     0.009 A 
HETATM   26  C   UNL     1      44.048  -9.128  11.553  1.00  0.00     0.009 A 
BRANCH  24  27
HETATM   27  C   UNL     1      41.658  -6.343  12.585  1.00  0.00     0.273 C 
BRANCH  27  28
HETATM   28  N   UNL     1      40.945  -7.070  13.699  1.00  0.00    -0.067 N 
HETATM   29  H   UNL     1      41.321  -8.027  13.706  1.00  0.00     0.280 HD
HETATM   30  C   UNL     1      39.442  -7.173  13.532  1.00  0.00     0.235 C 
HETATM   31  C   UNL     1      38.899  -6.127  14.481  1.00  0.00     0.029 C 
HETATM   32  C   UNL     1      39.822  -6.256  15.674  1.00  0.00     0.029 C 
HETATM   33  C   UNL     1      41.197  -6.433  15.055  1.00  0.00     0.235 C 
ENDBRANCH  27  28
ENDBRANCH  24  27
ENDBRANCH  20  21
ENDBRANCH   2  20
TORSDOF 8
ENDMDL
