MODEL 1
REMARK VINA RESULT:      -9.0      0.000      0.000
REMARK  4 active torsions:
REMARK  status: ('A' for Active; 'I' for Inactive)
REMARK    1  A    between atoms: C_2  and  C_3 
REMARK    2  A    between atoms: C_6  and  C_7 
REMARK    3  A    between atoms: C_11  and  C_12 
REMARK       I    between atoms: C_12  and  N_13 
REMARK    4  A    between atoms: N_13  and  N_14 
ROOT
HETATM    1  C   UNL     1      44.577 -11.358   6.426  1.00  0.00     0.289 C 
HETATM    2  N   UNL     1      43.469 -12.128   6.111  1.00  0.00    -0.241 N 
HETATM    3  O   UNL     1      45.540 -11.200   5.680  1.00  0.00    -0.264 OA
HETATM    4  H   UNL     1      42.709 -12.244   6.780  1.00  0.00     0.192 HD
ENDROOT
BRANCH   1   5
HETATM    5  C   UNL     1      44.535 -10.739   7.727  1.00  0.00     0.121 A 
HETATM    6  N   UNL     1      45.623 -10.081   8.227  1.00  0.00    -0.272 N 
HETATM    7  N   UNL     1      45.443  -9.570   9.452  1.00  0.00    -0.174 NA
HETATM    8  H   UNL     1      46.520  -9.960   7.767  1.00  0.00     0.189 HD
HETATM    9  C   UNL     1      44.176  -9.880   9.769  1.00  0.00     0.089 A 
HETATM   10  C   UNL     1      43.573 -10.621   8.711  1.00  0.00     0.071 A 
BRANCH   9  11
HETATM   11  C   UNL     1      43.586  -9.474  11.050  1.00  0.00    -0.006 A 
HETATM   12  C   UNL     1      43.561  -8.130  11.447  1.00  0.00     0.014 A 
HETATM   13  C   UNL     1      43.000  -7.759  12.675  1.00  0.00     0.008 A 
HETATM   14  C   UNL     1      42.456  -8.723  13.531  1.00  0.00    -0.059 A 
HETATM   15  C   UNL     1      42.471 -10.064  13.135  1.00  0.00     0.008 A 
HETATM   16  C   UNL     1      43.035 -10.434  11.910  1.00  0.00     0.014 A 
BRANCH  14  17
HETATM   17  C   UNL     1      41.842  -8.323  14.848  1.00  0.00     0.034 C 
HETATM   18  C   UNL     1      42.430  -7.024  15.375  1.00  0.00     0.010 C 
ENDBRANCH  14  17
ENDBRANCH   9  11
ENDBRANCH   1   5
BRANCH   2  19
HETATM   19  N   UNL     1      43.394 -12.773   4.906  1.00  0.00    -0.165 NA
HETATM   20  C   UNL     1      43.269 -14.060   4.943  1.00  0.00     0.157 A 
HETATM   21  C   UNL     1      43.196 -14.976   6.170  1.00  0.00     0.277 A 
HETATM   22  C   UNL     1      43.175 -14.938   3.784  1.00  0.00     0.027 A 
HETATM   23  O   UNL     1      43.239 -14.592   7.319  1.00  0.00    -0.266 OA
HETATM   24  N   UNL     1      43.077 -16.254   5.670  1.00  0.00    -0.321 N 
HETATM   25  C   UNL     1      43.064 -16.237   4.277  1.00  0.00     0.048 A 
HETATM   26  H   UNL     1      43.010 -17.076   6.252  1.00  0.00     0.169 HD
HETATM   27  C   UNL     1      42.955 -17.317   3.426  1.00  0.00     0.030 A 
HETATM   28  C   UNL     1      42.961 -17.054   2.050  1.00  0.00     0.002 A 
HETATM   29  C   UNL     1      43.072 -15.736   1.560  1.00  0.00     0.001 A 
HETATM   30  C   UNL     1      43.182 -14.652   2.434  1.00  0.00     0.016 A 
ENDBRANCH   2  19
TORSDOF 4
ENDMDL
MODEL 2
REMARK VINA RESULT:      -9.0      2.014      3.181
REMARK  4 active torsions:
REMARK  status: ('A' for Active; 'I' for Inactive)
REMARK    1  A    between atoms: C_2  and  C_3 
REMARK    2  A    between atoms: C_6  and  C_7 
REMARK    3  A    between atoms: C_11  and  C_12 
REMARK       I    between atoms: C_12  and  N_13 
REMARK    4  A    between atoms: N_13  and  N_14 
ROOT
HETATM    1  C   UNL     1      43.093 -13.174   4.297  1.00  0.00     0.289 C 
HETATM    2  N   UNL     1      42.960 -14.461   4.790  1.00  0.00    -0.241 N 
HETATM    3  O   UNL     1      43.256 -12.904   3.109  1.00  0.00    -0.264 OA
HETATM    4  H   UNL     1      42.853 -14.626   5.790  1.00  0.00     0.192 HD
ENDROOT
BRANCH   1   5
HETATM    5  C   UNL     1      43.036 -12.133   5.293  1.00  0.00     0.121 A 
HETATM    6  N   UNL     1      42.589 -10.882   4.977  1.00  0.00    -0.272 N 
HETATM    7  N   UNL     1      42.606 -10.015   5.998  1.00  0.00    -0.174 NA
HETATM    8  H   UNL     1      42.266 -10.567   4.067  1.00  0.00     0.189 HD
HETATM    9  C   UNL     1      43.060 -10.728   7.042  1.00  0.00     0.089 A 
HETATM   10  C   UNL     1      43.347 -12.064   6.637  1.00  0.00     0.071 A 
BRANCH   9  11
HETATM   11  C   UNL     1      43.209 -10.126   8.373  1.00  0.00    -0.006 A 
HETATM   12  C   UNL     1      44.323 -10.402   9.177  1.00  0.00     0.014 A 
HETATM   13  C   UNL     1      44.449  -9.825  10.447  1.00  0.00     0.008 A 
HETATM   14  C   UNL     1      43.461  -8.964  10.939  1.00  0.00    -0.059 A 
HETATM   15  C   UNL     1      42.352  -8.680  10.137  1.00  0.00     0.008 A 
HETATM   16  C   UNL     1      42.226  -9.259   8.870  1.00  0.00     0.014 A 
BRANCH  14  17
HETATM   17  C   UNL     1      43.601  -8.334  12.300  1.00  0.00     0.034 C 
HETATM   18  C   UNL     1      42.585  -8.886  13.287  1.00  0.00     0.010 C 
ENDBRANCH  14  17
ENDBRANCH   9  11
ENDBRANCH   1   5
BRANCH   2  19
HETATM   19  N   UNL     1      43.006 -15.534   3.944  1.00  0.00    -0.165 NA
HETATM   20  C   UNL     1      43.325 -16.675   4.466  1.00  0.00     0.157 A 
HETATM   21  C   UNL     1      43.669 -16.990   5.926  1.00  0.00     0.277 A 
HETATM   22  C   UNL     1      43.434 -17.937   3.749  1.00  0.00     0.027 A 
HETATM   23  O   UNL     1      43.677 -16.175   6.824  1.00  0.00    -0.266 OA
HETATM   24  N   UNL     1      43.947 -18.339   5.957  1.00  0.00    -0.321 N 
HETATM   25  C   UNL     1      43.810 -18.897   4.688  1.00  0.00     0.048 A 
HETATM   26  H   UNL     1      44.209 -18.835   6.796  1.00  0.00     0.169 HD
HETATM   27  C   UNL     1      44.000 -20.214   4.326  1.00  0.00     0.030 A 
HETATM   28  C   UNL     1      43.801 -20.546   2.980  1.00  0.00     0.002 A 
HETATM   29  C   UNL     1      43.419 -19.568   2.036  1.00  0.00     0.001 A 
HETATM   30  C   UNL     1      43.231 -18.238   2.418  1.00  0.00     0.016 A 
ENDBRANCH   2  19
TORSDOF 4
ENDMDL
MODEL 3
REMARK VINA RESULT:      -8.9      2.084      9.887
REMARK  4 active torsions:
REMARK  status: ('A' for Active; 'I' for Inactive)
REMARK    1  A    between atoms: C_2  and  C_3 
REMARK    2  A    between atoms: C_6  and  C_7 
REMARK    3  A    between atoms: C_11  and  C_12 
REMARK       I    between atoms: C_12  and  N_13 
REMARK    4  A    between atoms: N_13  and  N_14 
ROOT
HETATM    1  C   UNL     1      42.222 -10.162   5.938  1.00  0.00     0.289 C 
HETATM    2  N   UNL     1      42.215 -10.466   7.290  1.00  0.00    -0.241 N 
HETATM    3  O   UNL     1      41.971  -9.049   5.481  1.00  0.00    -0.264 OA
HETATM    4  H   UNL     1      42.406 -11.414   7.610  1.00  0.00     0.192 HD
ENDROOT
BRANCH   1   5
HETATM    5  C   UNL     1      42.543 -11.266   5.069  1.00  0.00     0.121 A 
HETATM    6  N   UNL     1      43.195 -11.063   3.887  1.00  0.00    -0.272 N 
HETATM    7  N   UNL     1      43.412 -12.178   3.178  1.00  0.00    -0.174 NA
HETATM    8  H   UNL     1      43.508 -10.171   3.514  1.00  0.00     0.189 HD
HETATM    9  C   UNL     1      42.905 -13.166   3.932  1.00  0.00     0.089 A 
HETATM   10  C   UNL     1      42.343 -12.632   5.128  1.00  0.00     0.071 A 
BRANCH   9  11
HETATM   11  C   UNL     1      42.964 -14.567   3.499  1.00  0.00    -0.006 A 
HETATM   12  C   UNL     1      42.788 -15.619   4.408  1.00  0.00     0.014 A 
HETATM   13  C   UNL     1      42.853 -16.952   3.981  1.00  0.00     0.008 A 
HETATM   14  C   UNL     1      43.099 -17.258   2.637  1.00  0.00    -0.059 A 
HETATM   15  C   UNL     1      43.268 -16.211   1.725  1.00  0.00     0.008 A 
HETATM   16  C   UNL     1      43.206 -14.882   2.154  1.00  0.00     0.014 A 
BRANCH  14  17
HETATM   17  C   UNL     1      43.157 -18.691   2.175  1.00  0.00     0.034 C 
HETATM   18  C   UNL     1      43.915 -19.572   3.156  1.00  0.00     0.010 C 
ENDBRANCH  14  17
ENDBRANCH   9  11
ENDBRANCH   1   5
BRANCH   2  19
HETATM   19  N   UNL     1      41.917  -9.503   8.214  1.00  0.00    -0.165 NA
HETATM   20  C   UNL     1      42.622  -9.500   9.299  1.00  0.00     0.157 A 
HETATM   21  C   UNL     1      43.760 -10.446   9.698  1.00  0.00     0.277 A 
HETATM   22  C   UNL     1      42.471  -8.569  10.409  1.00  0.00     0.027 A 
HETATM   23  O   UNL     1      44.172 -11.357   9.010  1.00  0.00    -0.266 OA
HETATM   24  N   UNL     1      44.168 -10.029  10.946  1.00  0.00    -0.321 N 
HETATM   25  C   UNL     1      43.418  -8.932  11.366  1.00  0.00     0.048 A 
HETATM   26  H   UNL     1      44.911 -10.472  11.467  1.00  0.00     0.169 HD
HETATM   27  C   UNL     1      43.537  -8.240  12.552  1.00  0.00     0.030 A 
HETATM   28  C   UNL     1      42.668  -7.160  12.755  1.00  0.00     0.002 A 
HETATM   29  C   UNL     1      41.713  -6.797  11.781  1.00  0.00     0.001 A 
HETATM   30  C   UNL     1      41.605  -7.509  10.584  1.00  0.00     0.016 A 
ENDBRANCH   2  19
TORSDOF 4
ENDMDL
MODEL 4
REMARK VINA RESULT:      -8.9      1.609      2.265
REMARK  4 active torsions:
REMARK  status: ('A' for Active; 'I' for Inactive)
REMARK    1  A    between atoms: C_2  and  C_3 
REMARK    2  A    between atoms: C_6  and  C_7 
REMARK    3  A    between atoms: C_11  and  C_12 
REMARK       I    between atoms: C_12  and  N_13 
REMARK    4  A    between atoms: N_13  and  N_14 
ROOT
HETATM    1  C   UNL     1      43.223 -12.137   5.130  1.00  0.00     0.289 C 
HETATM    2  N   UNL     1      42.539 -13.327   5.320  1.00  0.00    -0.241 N 
HETATM    3  O   UNL     1      43.932 -11.898   4.156  1.00  0.00    -0.264 OA
HETATM    4  H   UNL     1      41.985 -13.479   6.162  1.00  0.00     0.192 HD
ENDROOT
BRANCH   1   5
HETATM    5  C   UNL     1      43.056 -11.166   6.182  1.00  0.00     0.121 A 
HETATM    6  N   UNL     1      42.431  -9.975   5.947  1.00  0.00    -0.272 N 
HETATM    7  N   UNL     1      42.362  -9.167   7.013  1.00  0.00    -0.174 NA
HETATM    8  H   UNL     1      42.039  -9.662   5.063  1.00  0.00     0.189 HD
HETATM    9  C   UNL     1      42.943  -9.862   8.005  1.00  0.00     0.089 A 
HETATM   10  C   UNL     1      43.398 -11.122   7.520  1.00  0.00     0.071 A 
BRANCH   9  11
HETATM   11  C   UNL     1      43.051  -9.313   9.362  1.00  0.00    -0.006 A 
HETATM   12  C   UNL     1      43.386 -10.127  10.453  1.00  0.00     0.014 A 
HETATM   13  C   UNL     1      43.480  -9.590  11.743  1.00  0.00     0.008 A 
HETATM   14  C   UNL     1      43.237  -8.230  11.968  1.00  0.00    -0.059 A 
HETATM   15  C   UNL     1      42.910  -7.413  10.881  1.00  0.00     0.008 A 
HETATM   16  C   UNL     1      42.813  -7.951   9.594  1.00  0.00     0.014 A 
BRANCH  14  17
HETATM   17  C   UNL     1      43.349  -7.650  13.354  1.00  0.00     0.034 C 
HETATM   18  C   UNL     1      42.341  -8.269  14.310  1.00  0.00     0.010 C 
ENDBRANCH  14  17
ENDBRANCH   9  11
ENDBRANCH   1   5
BRANCH   2  19
HETATM   19  N   UNL     1      42.625 -14.329   4.393  1.00  0.00    -0.165 NA
HETATM   20  C   UNL     1      43.139 -15.448   4.793  1.00  0.00     0.157 A 
HETATM   21  C   UNL     1      43.676 -15.807   6.182  1.00  0.00     0.277 A 
HETATM   22  C   UNL     1      43.325 -16.638   3.974  1.00  0.00     0.027 A 
HETATM   23  O   UNL     1      43.681 -15.056   7.135  1.00  0.00    -0.266 OA
HETATM   24  N   UNL     1      44.121 -17.107   6.083  1.00  0.00    -0.321 N 
HETATM   25  C   UNL     1      43.917 -17.597   4.794  1.00  0.00     0.048 A 
HETATM   26  H   UNL     1      44.533 -17.616   6.850  1.00  0.00     0.169 HD
HETATM   27  C   UNL     1      44.229 -18.852   4.316  1.00  0.00     0.030 A 
HETATM   28  C   UNL     1      43.927 -19.122   2.975  1.00  0.00     0.002 A 
HETATM   29  C   UNL     1      43.326 -18.146   2.151  1.00  0.00     0.001 A 
HETATM   30  C   UNL     1      43.017 -16.878   2.650  1.00  0.00     0.016 A 
ENDBRANCH   2  19
TORSDOF 4
ENDMDL
MODEL 5
REMARK VINA RESULT:      -8.7      2.398      9.831
REMARK  4 active torsions:
REMARK  status: ('A' for Active; 'I' for Inactive)
REMARK    1  A    between atoms: C_2  and  C_3 
REMARK    2  A    between atoms: C_6  and  C_7 
REMARK    3  A    between atoms: C_11  and  C_12 
REMARK       I    between atoms: C_12  and  N_13 
REMARK    4  A    between atoms: N_13  and  N_14 
ROOT
HETATM    1  C   UNL     1      42.609 -11.504   4.131  1.00  0.00     0.289 C 
HETATM    2  N   UNL     1      42.892 -11.310   5.473  1.00  0.00    -0.241 N 
HETATM    3  O   UNL     1      42.184 -10.628   3.383  1.00  0.00    -0.264 OA
HETATM    4  H   UNL     1      43.219 -12.082   6.053  1.00  0.00     0.192 HD
ENDROOT
BRANCH   1   5
HETATM    5  C   UNL     1      42.843 -12.842   3.649  1.00  0.00     0.121 A 
HETATM    6  N   UNL     1      43.077 -13.082   2.325  1.00  0.00    -0.272 N 
HETATM    7  N   UNL     1      43.261 -14.373   2.022  1.00  0.00    -0.174 NA
HETATM    8  H   UNL     1      43.113 -12.389   1.583  1.00  0.00     0.189 HD
HETATM    9  C   UNL     1      43.170 -15.016   3.197  1.00  0.00     0.089 A 
HETATM   10  C   UNL     1      42.901 -14.088   4.245  1.00  0.00     0.071 A 
BRANCH   9  11
HETATM   11  C   UNL     1      43.334 -16.472   3.288  1.00  0.00    -0.006 A 
HETATM   12  C   UNL     1      43.083 -17.304   2.189  1.00  0.00     0.014 A 
HETATM   13  C   UNL     1      43.238 -18.692   2.293  1.00  0.00     0.008 A 
HETATM   14  C   UNL     1      43.642 -19.275   3.499  1.00  0.00    -0.059 A 
HETATM   15  C   UNL     1      43.901 -18.448   4.596  1.00  0.00     0.008 A 
HETATM   16  C   UNL     1      43.743 -17.063   4.492  1.00  0.00     0.014 A 
BRANCH  14  17
HETATM   17  C   UNL     1      43.820 -20.768   3.608  1.00  0.00     0.034 C 
HETATM   18  C   UNL     1      43.969 -21.216   5.054  1.00  0.00     0.010 C 
ENDBRANCH  14  17
ENDBRANCH   9  11
ENDBRANCH   1   5
BRANCH   2  19
HETATM   19  N   UNL     1      42.704 -10.084   6.050  1.00  0.00    -0.165 NA
HETATM   20  C   UNL     1      43.111  -9.947   7.271  1.00  0.00     0.157 A 
HETATM   21  C   UNL     1      43.780 -10.987   8.174  1.00  0.00     0.277 A 
HETATM   22  C   UNL     1      43.006  -8.733   8.070  1.00  0.00     0.027 A 
HETATM   23  O   UNL     1      44.037 -12.126   7.842  1.00  0.00    -0.266 OA
HETATM   24  N   UNL     1      44.002 -10.348   9.374  1.00  0.00    -0.321 N 
HETATM   25  C   UNL     1      43.553  -9.030   9.318  1.00  0.00     0.048 A 
HETATM   26  H   UNL     1      44.435 -10.791  10.171  1.00  0.00     0.169 HD
HETATM   27  C   UNL     1      43.607  -8.082  10.318  1.00  0.00     0.030 A 
HETATM   28  C   UNL     1      43.091  -6.812  10.028  1.00  0.00     0.002 A 
HETATM   29  C   UNL     1      42.541  -6.520   8.761  1.00  0.00     0.001 A 
HETATM   30  C   UNL     1      42.493  -7.491   7.759  1.00  0.00     0.016 A 
ENDBRANCH   2  19
TORSDOF 4
ENDMDL
MODEL 6
REMARK VINA RESULT:      -8.7      2.147     10.062
REMARK  4 active torsions:
REMARK  status: ('A' for Active; 'I' for Inactive)
REMARK    1  A    between atoms: C_2  and  C_3 
REMARK    2  A    between atoms: C_6  and  C_7 
REMARK    3  A    between atoms: C_11  and  C_12 
REMARK       I    between atoms: C_12  and  N_13 
REMARK    4  A    between atoms: N_13  and  N_14 
ROOT
HETATM    1  C   UNL     1      42.680 -11.029   6.594  1.00  0.00     0.289 C 
HETATM    2  N   UNL     1      42.622 -10.748   7.949  1.00  0.00    -0.241 N 
HETATM    3  O   UNL     1      42.504 -10.194   5.710  1.00  0.00    -0.264 OA
HETATM    4  H   UNL     1      42.751 -11.488   8.639  1.00  0.00     0.192 HD
ENDROOT
BRANCH   1   5
HETATM    5  C   UNL     1      42.959 -12.405   6.270  1.00  0.00     0.121 A 
HETATM    6  N   UNL     1      43.567 -13.230   7.173  1.00  0.00    -0.272 N 
HETATM    7  N   UNL     1      43.776 -14.476   6.729  1.00  0.00    -0.174 NA
HETATM    8  H   UNL     1      43.867 -12.983   8.112  1.00  0.00     0.189 HD
HETATM    9  C   UNL     1      43.264 -14.486   5.488  1.00  0.00     0.089 A 
HETATM   10  C   UNL     1      42.746 -13.199   5.160  1.00  0.00     0.071 A 
BRANCH   9  11
HETATM   11  C   UNL     1      43.286 -15.698   4.660  1.00  0.00    -0.006 A 
HETATM   12  C   UNL     1      43.893 -16.878   5.112  1.00  0.00     0.014 A 
HETATM   13  C   UNL     1      43.911 -18.025   4.308  1.00  0.00     0.008 A 
HETATM   14  C   UNL     1      43.327 -18.013   3.036  1.00  0.00    -0.059 A 
HETATM   15  C   UNL     1      42.715 -16.840   2.584  1.00  0.00     0.008 A 
HETATM   16  C   UNL     1      42.700 -15.695   3.387  1.00  0.00     0.014 A 
BRANCH  14  17
HETATM   17  C   UNL     1      43.337 -19.250   2.176  1.00  0.00     0.034 C 
HETATM   18  C   UNL     1      43.665 -20.498   2.981  1.00  0.00     0.010 C 
ENDBRANCH  14  17
ENDBRANCH   9  11
ENDBRANCH   1   5
BRANCH   2  19
HETATM   19  N   UNL     1      42.357  -9.478   8.383  1.00  0.00    -0.165 NA
HETATM   20  C   UNL     1      42.670  -9.205   9.608  1.00  0.00     0.157 A 
HETATM   21  C   UNL     1      43.303 -10.125  10.658  1.00  0.00     0.277 A 
HETATM   22  C   UNL     1      42.472  -7.922  10.270  1.00  0.00     0.027 A 
HETATM   23  O   UNL     1      43.616 -11.280  10.463  1.00  0.00    -0.266 OA
HETATM   24  N   UNL     1      43.418  -9.360  11.798  1.00  0.00    -0.321 N 
HETATM   25  C   UNL     1      42.935  -8.072  11.576  1.00  0.00     0.048 A 
HETATM   26  H   UNL     1      43.805  -9.705  12.664  1.00  0.00     0.169 HD
HETATM   27  C   UNL     1      42.888  -7.028  12.475  1.00  0.00     0.030 A 
HETATM   28  C   UNL     1      42.357  -5.813  12.021  1.00  0.00     0.002 A 
HETATM   29  C   UNL     1      41.892  -5.669  10.697  1.00  0.00     0.001 A 
HETATM   30  C   UNL     1      41.945  -6.737   9.798  1.00  0.00     0.016 A 
ENDBRANCH   2  19
TORSDOF 4
ENDMDL
MODEL 7
REMARK VINA RESULT:      -8.5      1.507      1.888
REMARK  4 active torsions:
REMARK  status: ('A' for Active; 'I' for Inactive)
REMARK    1  A    between atoms: C_2  and  C_3 
REMARK    2  A    between atoms: C_6  and  C_7 
REMARK    3  A    between atoms: C_11  and  C_12 
REMARK       I    between atoms: C_12  and  N_13 
REMARK    4  A    between atoms: N_13  and  N_14 
ROOT
HETATM    1  C   UNL     1      44.695 -11.862   7.115  1.00  0.00     0.289 C 
HETATM    2  N   UNL     1      43.759 -12.873   7.264  1.00  0.00    -0.241 N 
HETATM    3  O   UNL     1      45.540 -11.832   6.225  1.00  0.00    -0.264 OA
HETATM    4  H   UNL     1      43.096 -12.858   8.039  1.00  0.00     0.192 HD
ENDROOT
BRANCH   1   5
HETATM    5  C   UNL     1      44.622 -10.817   8.105  1.00  0.00     0.121 A 
HETATM    6  N   UNL     1      45.715 -10.055   8.405  1.00  0.00    -0.272 N 
HETATM    7  N   UNL     1      45.503  -9.134   9.354  1.00  0.00    -0.174 NA
HETATM    8  H   UNL     1      46.639 -10.134   7.989  1.00  0.00     0.189 HD
HETATM    9  C   UNL     1      44.208  -9.273   9.681  1.00  0.00     0.089 A 
HETATM   10  C   UNL     1      43.620 -10.326   8.921  1.00  0.00     0.071 A 
BRANCH   9  11
HETATM   11  C   UNL     1      43.578  -8.418  10.693  1.00  0.00    -0.006 A 
HETATM   12  C   UNL     1      42.914  -7.236  10.338  1.00  0.00     0.014 A 
HETATM   13  C   UNL     1      42.322  -6.426  11.316  1.00  0.00     0.008 A 
HETATM   14  C   UNL     1      42.387  -6.781  12.668  1.00  0.00    -0.059 A 
HETATM   15  C   UNL     1      43.042  -7.963  13.027  1.00  0.00     0.008 A 
HETATM   16  C   UNL     1      43.635  -8.769  12.049  1.00  0.00     0.014 A 
BRANCH  14  17
HETATM   17  C   UNL     1      41.741  -5.916  13.720  1.00  0.00     0.034 C 
HETATM   18  C   UNL     1      42.008  -6.437  15.124  1.00  0.00     0.010 C 
ENDBRANCH  14  17
ENDBRANCH   9  11
ENDBRANCH   1   5
BRANCH   2  19
HETATM   19  N   UNL     1      43.732 -13.925   6.390  1.00  0.00    -0.165 NA
HETATM   20  C   UNL     1      42.708 -14.000   5.601  1.00  0.00     0.157 A 
HETATM   21  C   UNL     1      41.502 -13.059   5.514  1.00  0.00     0.277 A 
HETATM   22  C   UNL     1      42.480 -15.034   4.602  1.00  0.00     0.027 A 
HETATM   23  O   UNL     1      41.349 -12.070   6.200  1.00  0.00    -0.266 OA
HETATM   24  N   UNL     1      40.694 -13.583   4.530  1.00  0.00    -0.321 N 
HETATM   25  C   UNL     1      41.261 -14.737   3.993  1.00  0.00     0.048 A 
HETATM   26  H   UNL     1      39.816 -13.171   4.250  1.00  0.00     0.169 HD
HETATM   27  C   UNL     1      40.751 -15.534   2.990  1.00  0.00     0.030 A 
HETATM   28  C   UNL     1      41.506 -16.652   2.611  1.00  0.00     0.002 A 
HETATM   29  C   UNL     1      42.739 -16.945   3.231  1.00  0.00     0.001 A 
HETATM   30  C   UNL     1      43.243 -16.128   4.247  1.00  0.00     0.016 A 
ENDBRANCH   2  19
TORSDOF 4
ENDMDL
MODEL 8
REMARK VINA RESULT:      -8.3      2.788     10.045
REMARK  4 active torsions:
REMARK  status: ('A' for Active; 'I' for Inactive)
REMARK    1  A    between atoms: C_2  and  C_3 
REMARK    2  A    between atoms: C_6  and  C_7 
REMARK    3  A    between atoms: C_11  and  C_12 
REMARK       I    between atoms: C_12  and  N_13 
REMARK    4  A    between atoms: N_13  and  N_14 
ROOT
HETATM    1  C   UNL     1      43.686 -11.698   7.415  1.00  0.00     0.289 C 
HETATM    2  N   UNL     1      42.732 -10.694   7.388  1.00  0.00    -0.241 N 
HETATM    3  O   UNL     1      44.691 -11.675   8.121  1.00  0.00    -0.264 OA
HETATM    4  H   UNL     1      41.930 -10.755   6.762  1.00  0.00     0.192 HD
ENDROOT
BRANCH   1   5
HETATM    5  C   UNL     1      43.427 -12.805   6.529  1.00  0.00     0.121 A 
HETATM    6  N   UNL     1      42.492 -12.709   5.538  1.00  0.00    -0.272 N 
HETATM    7  N   UNL     1      42.348 -13.820   4.805  1.00  0.00    -0.174 NA
HETATM    8  H   UNL     1      41.916 -11.899   5.328  1.00  0.00     0.189 HD
HETATM    9  C   UNL     1      43.243 -14.683   5.313  1.00  0.00     0.089 A 
HETATM   10  C   UNL     1      43.937 -14.083   6.404  1.00  0.00     0.071 A 
BRANCH   9  11
HETATM   11  C   UNL     1      43.406 -16.032   4.759  1.00  0.00    -0.006 A 
HETATM   12  C   UNL     1      44.110 -17.025   5.454  1.00  0.00     0.014 A 
HETATM   13  C   UNL     1      44.262 -18.307   4.910  1.00  0.00     0.008 A 
HETATM   14  C   UNL     1      43.718 -18.618   3.659  1.00  0.00    -0.059 A 
HETATM   15  C   UNL     1      43.009 -17.633   2.965  1.00  0.00     0.008 A 
HETATM   16  C   UNL     1      42.860 -16.353   3.509  1.00  0.00     0.014 A 
BRANCH  14  17
HETATM   17  C   UNL     1      43.872 -20.001   3.078  1.00  0.00     0.034 C 
HETATM   18  C   UNL     1      43.122 -20.149   1.764  1.00  0.00     0.010 C 
ENDBRANCH  14  17
ENDBRANCH   9  11
ENDBRANCH   1   5
BRANCH   2  19
HETATM   19  N   UNL     1      42.870  -9.587   8.179  1.00  0.00    -0.165 NA
HETATM   20  C   UNL     1      41.786  -8.946   8.478  1.00  0.00     0.157 A 
HETATM   21  C   UNL     1      40.347  -9.261   8.056  1.00  0.00     0.277 A 
HETATM   22  C   UNL     1      41.707  -7.747   9.300  1.00  0.00     0.027 A 
HETATM   23  O   UNL     1      40.022 -10.202   7.362  1.00  0.00    -0.266 OA
HETATM   24  N   UNL     1      39.571  -8.275   8.624  1.00  0.00    -0.321 N 
HETATM   25  C   UNL     1      40.361  -7.388   9.352  1.00  0.00     0.048 A 
HETATM   26  H   UNL     1      38.569  -8.221   8.515  1.00  0.00     0.169 HD
HETATM   27  C   UNL     1      39.944  -6.281  10.061  1.00  0.00     0.030 A 
HETATM   28  C   UNL     1      40.927  -5.534  10.724  1.00  0.00     0.002 A 
HETATM   29  C   UNL     1      42.287  -5.905  10.667  1.00  0.00     0.001 A 
HETATM   30  C   UNL     1      42.694  -7.029   9.944  1.00  0.00     0.016 A 
ENDBRANCH   2  19
TORSDOF 4
ENDMDL
MODEL 9
REMARK VINA RESULT:      -8.1      7.984     10.883
REMARK  4 active torsions:
REMARK  status: ('A' for Active; 'I' for Inactive)
REMARK    1  A    between atoms: C_2  and  C_3 
REMARK    2  A    between atoms: C_6  and  C_7 
REMARK    3  A    between atoms: C_11  and  C_12 
REMARK       I    between atoms: C_12  and  N_13 
REMARK    4  A    between atoms: N_13  and  N_14 
ROOT
HETATM    1  C   UNL     1      39.644 -12.888   1.712  1.00  0.00     0.289 C 
HETATM    2  N   UNL     1      39.357 -12.570   0.394  1.00  0.00    -0.241 N 
HETATM    3  O   UNL     1      39.086 -12.379   2.681  1.00  0.00    -0.264 OA
HETATM    4  H   UNL     1      39.871 -13.006  -0.370  1.00  0.00     0.192 HD
ENDROOT
BRANCH   1   5
HETATM    5  C   UNL     1      40.677 -13.878   1.886  1.00  0.00     0.121 A 
HETATM    6  N   UNL     1      41.806 -13.859   1.117  1.00  0.00    -0.272 N 
HETATM    7  N   UNL     1      42.669 -14.848   1.380  1.00  0.00    -0.174 NA
HETATM    8  H   UNL     1      42.030 -13.187   0.389  1.00  0.00     0.189 HD
HETATM    9  C   UNL     1      42.102 -15.539   2.382  1.00  0.00     0.089 A 
HETATM   10  C   UNL     1      40.844 -14.963   2.724  1.00  0.00     0.071 A 
BRANCH   9  11
HETATM   11  C   UNL     1      42.759 -16.711   2.972  1.00  0.00    -0.006 A 
HETATM   12  C   UNL     1      42.962 -17.884   2.231  1.00  0.00     0.014 A 
HETATM   13  C   UNL     1      43.586 -18.996   2.810  1.00  0.00     0.008 A 
HETATM   14  C   UNL     1      44.015 -18.959   4.141  1.00  0.00    -0.059 A 
HETATM   15  C   UNL     1      43.821 -17.790   4.882  1.00  0.00     0.008 A 
HETATM   16  C   UNL     1      43.196 -16.681   4.304  1.00  0.00     0.014 A 
BRANCH  14  17
HETATM   17  C   UNL     1      44.696 -20.152   4.761  1.00  0.00     0.034 C 
HETATM   18  C   UNL     1      43.693 -21.159   5.303  1.00  0.00     0.010 C 
ENDBRANCH  14  17
ENDBRANCH   9  11
ENDBRANCH   1   5
BRANCH   2  19
HETATM   19  N   UNL     1      38.400 -11.637   0.100  1.00  0.00    -0.165 NA
HETATM   20  C   UNL     1      37.810 -11.751  -1.046  1.00  0.00     0.157 A 
HETATM   21  C   UNL     1      38.044 -12.801  -2.137  1.00  0.00     0.277 A 
HETATM   22  C   UNL     1      36.770 -10.870  -1.557  1.00  0.00     0.027 A 
HETATM   23  O   UNL     1      38.843 -13.710  -2.060  1.00  0.00    -0.266 OA
HETATM   24  N   UNL     1      37.177 -12.474  -3.157  1.00  0.00    -0.321 N 
HETATM   25  C   UNL     1      36.429 -11.347  -2.822  1.00  0.00     0.048 A 
HETATM   26  H   UNL     1      37.107 -12.995  -4.019  1.00  0.00     0.169 HD
HETATM   27  C   UNL     1      35.462 -10.726  -3.583  1.00  0.00     0.030 A 
HETATM   28  C   UNL     1      34.837  -9.599  -3.034  1.00  0.00     0.002 A 
HETATM   29  C   UNL     1      35.186  -9.123  -1.752  1.00  0.00     0.001 A 
HETATM   30  C   UNL     1      36.169  -9.762  -0.993  1.00  0.00     0.016 A 
ENDBRANCH   2  19
TORSDOF 4
ENDMDL
MODEL 10
REMARK VINA RESULT:      -8.1      3.935      5.855
REMARK  4 active torsions:
REMARK  status: ('A' for Active; 'I' for Inactive)
REMARK    1  A    between atoms: C_2  and  C_3 
REMARK    2  A    between atoms: C_6  and  C_7 
REMARK    3  A    between atoms: C_11  and  C_12 
REMARK       I    between atoms: C_12  and  N_13 
REMARK    4  A    between atoms: N_13  and  N_14 
ROOT
HETATM    1  C   UNL     1      42.817 -13.509   2.572  1.00  0.00     0.289 C 
HETATM    2  N   UNL     1      41.527 -13.151   2.216  1.00  0.00    -0.241 N 
HETATM    3  O   UNL     1      43.437 -14.441   2.068  1.00  0.00    -0.264 OA
HETATM    4  H   UNL     1      41.051 -12.383   2.688  1.00  0.00     0.192 HD
ENDROOT
BRANCH   1   5
HETATM    5  C   UNL     1      43.405 -12.702   3.611  1.00  0.00     0.121 A 
HETATM    6  N   UNL     1      44.467 -11.883   3.349  1.00  0.00    -0.272 N 
HETATM    7  N   UNL     1      44.917 -11.205   4.412  1.00  0.00    -0.174 NA
HETATM    8  H   UNL     1      44.926 -11.758   2.452  1.00  0.00     0.189 HD
HETATM    9  C   UNL     1      44.106 -11.570   5.418  1.00  0.00     0.089 A 
HETATM   10  C   UNL     1      43.145 -12.516   4.955  1.00  0.00     0.071 A 
BRANCH   9  11
HETATM   11  C   UNL     1      44.268 -11.022   6.770  1.00  0.00    -0.006 A 
HETATM   12  C   UNL     1      43.183 -10.481   7.472  1.00  0.00     0.014 A 
HETATM   13  C   UNL     1      43.355  -9.956   8.760  1.00  0.00     0.008 A 
HETATM   14  C   UNL     1      44.616  -9.959   9.367  1.00  0.00    -0.059 A 
HETATM   15  C   UNL     1      45.700 -10.505   8.674  1.00  0.00     0.008 A 
HETATM   16  C   UNL     1      45.527 -11.026   7.387  1.00  0.00     0.014 A 
BRANCH  14  17
HETATM   17  C   UNL     1      44.799  -9.405  10.757  1.00  0.00     0.034 C 
HETATM   18  C   UNL     1      43.498  -8.862  11.326  1.00  0.00     0.010 C 
ENDBRANCH  14  17
ENDBRANCH   9  11
ENDBRANCH   1   5
BRANCH   2  19
HETATM   19  N   UNL     1      40.859 -13.848   1.247  1.00  0.00    -0.165 NA
HETATM   20  C   UNL     1      40.563 -13.201   0.165  1.00  0.00     0.157 A 
HETATM   21  C   UNL     1      40.860 -11.738  -0.181  1.00  0.00     0.277 A 
HETATM   22  C   UNL     1      39.856 -13.747  -0.985  1.00  0.00     0.027 A 
HETATM   23  O   UNL     1      41.447 -10.964   0.545  1.00  0.00    -0.266 OA
HETATM   24  N   UNL     1      40.330 -11.540  -1.437  1.00  0.00    -0.321 N 
HETATM   25  C   UNL     1      39.743 -12.711  -1.911  1.00  0.00     0.048 A 
HETATM   26  H   UNL     1      40.373 -10.659  -1.929  1.00  0.00     0.169 HD
HETATM   27  C   UNL     1      39.116 -12.903  -3.124  1.00  0.00     0.030 A 
HETATM   28  C   UNL     1      38.599 -14.178  -3.386  1.00  0.00     0.002 A 
HETATM   29  C   UNL     1      38.719 -15.222  -2.443  1.00  0.00     0.001 A 
HETATM   30  C   UNL     1      39.356 -15.012  -1.219  1.00  0.00     0.016 A 
ENDBRANCH   2  19
TORSDOF 4
ENDMDL
