MODEL 1
REMARK VINA RESULT:      -8.8      0.000      0.000
REMARK  6 active torsions:
REMARK  status: ('A' for Active; 'I' for Inactive)
REMARK    1  A    between atoms: C_2  and  O_3 
REMARK    2  A    between atoms: C_2  and  C_4 
REMARK    3  A    between atoms: C_2  and  C_11 
REMARK    4  A    between atoms: C_11  and  N_12 
REMARK       I    between atoms: N_12  and  C_13 
REMARK    5  A    between atoms: C_13  and  C_14 
REMARK    6  A    between atoms: C_18  and  C_19 
ROOT
HETATM    1  N   UNL     1      43.548 -11.605   7.450  1.00  0.00    -0.352 N 
HETATM    2  C   UNL     1      42.797 -12.122   6.420  1.00  0.00     0.272 C 
HETATM    3  O   UNL     1      42.041 -11.446   5.727  1.00  0.00    -0.266 OA
HETATM    4  H   UNL     1      44.227 -12.235   7.870  1.00  0.00     0.162 HD
ENDROOT
BRANCH   2   5
HETATM    5  C   UNL     1      42.995 -13.563   6.207  1.00  0.00     0.146 A 
HETATM    6  N   UNL     1      43.155 -14.431   7.226  1.00  0.00    -0.169 NA
HETATM    7  N   UNL     1      43.316 -15.618   6.618  1.00  0.00    -0.277 N 
HETATM    8  H   UNL     1      43.483 -16.431   7.200  1.00  0.00     0.189 HD
HETATM    9  C   UNL     1      43.252 -15.573   5.249  1.00  0.00     0.063 A 
HETATM   10  C   UNL     1      43.055 -14.235   4.960  1.00  0.00     0.071 A 
BRANCH   9  11
HETATM   11  C   UNL     1      43.405 -16.738   4.379  1.00  0.00    -0.008 A 
HETATM   12  C   UNL     1      42.794 -16.790   3.115  1.00  0.00     0.017 A 
HETATM   13  C   UNL     1      42.952 -17.911   2.295  1.00  0.00     0.043 A 
HETATM   14  C   UNL     1      43.719 -18.981   2.734  1.00  0.00     0.116 A 
HETATM   15  F   UNL     1      43.868 -20.054   1.945  1.00  0.00    -0.206 F 
HETATM   16  C   UNL     1      44.336 -18.952   3.976  1.00  0.00     0.043 A 
HETATM   17  C   UNL     1      44.181 -17.831   4.796  1.00  0.00     0.017 A 
ENDBRANCH   9  11
ENDBRANCH   2   5
BRANCH   1  18
HETATM   18  C   UNL     1      43.623 -10.187   7.754  1.00  0.00     0.165 C 
BRANCH  18  19
HETATM   19  C   UNL     1      44.605  -9.850   8.923  1.00  0.00     0.099 C 
HETATM   20  C   UNL     1      45.611  -8.782   8.464  1.00  0.00     0.053 C 
BRANCH  19  21
HETATM   21  O   UNL     1      45.312 -11.081   9.164  1.00  0.00    -0.384 OA
HETATM   22  H   UNL     1      45.788 -11.308   8.345  1.00  0.00     0.211 HD
ENDBRANCH  19  21
BRANCH  19  23
HETATM   23  C   UNL     1      43.906  -9.387  10.216  1.00  0.00    -0.001 A 
HETATM   24  C   UNL     1      43.387  -8.084  10.394  1.00  0.00     0.043 A 
HETATM   25 CL   UNL     1      43.492  -6.848   9.184  1.00  0.00    -0.084 Cl
HETATM   26  C   UNL     1      42.734  -7.713  11.580  1.00  0.00     0.024 A 
HETATM   27  C   UNL     1      42.570  -8.628  12.614  1.00  0.00     0.002 A 
HETATM   28  C   UNL     1      43.055  -9.918  12.464  1.00  0.00     0.001 A 
HETATM   29  C   UNL     1      43.708 -10.292  11.283  1.00  0.00     0.012 A 
ENDBRANCH  19  23
ENDBRANCH  18  19
ENDBRANCH   1  18
TORSDOF 6
ENDMDL
MODEL 2
REMARK VINA RESULT:      -8.8      4.190      9.467
REMARK  6 active torsions:
REMARK  status: ('A' for Active; 'I' for Inactive)
REMARK    1  A    between atoms: C_2  and  O_3 
REMARK    2  A    between atoms: C_2  and  C_4 
REMARK    3  A    between atoms: C_2  and  C_11 
REMARK    4  A    between atoms: C_11  and  N_12 
REMARK       I    between atoms: N_12  and  C_13 
REMARK    5  A    between atoms: C_13  and  C_14 
REMARK    6  A    between atoms: C_18  and  C_19 
ROOT
HETATM    1  N   UNL     1      43.160 -13.394   4.080  1.00  0.00    -0.352 N 
HETATM    2  C   UNL     1      43.533 -12.078   3.936  1.00  0.00     0.272 C 
HETATM    3  O   UNL     1      43.385 -11.442   2.896  1.00  0.00    -0.266 OA
HETATM    4  H   UNL     1      43.218 -13.777   5.021  1.00  0.00     0.162 HD
ENDROOT
BRANCH   2   5
HETATM    5  C   UNL     1      44.112 -11.490   5.153  1.00  0.00     0.146 A 
HETATM    6  N   UNL     1      45.431 -11.247   5.284  1.00  0.00    -0.169 NA
HETATM    7  N   UNL     1      45.545 -10.731   6.520  1.00  0.00    -0.277 N 
HETATM    8  H   UNL     1      46.473 -10.493   6.852  1.00  0.00     0.189 HD
HETATM    9  C   UNL     1      44.360 -10.609   7.199  1.00  0.00     0.063 A 
HETATM   10  C   UNL     1      43.412 -11.111   6.327  1.00  0.00     0.071 A 
BRANCH   9  11
HETATM   11  C   UNL     1      44.241 -10.080   8.557  1.00  0.00    -0.008 A 
HETATM   12  C   UNL     1      45.316 -10.136   9.459  1.00  0.00     0.017 A 
HETATM   13  C   UNL     1      45.187  -9.623  10.753  1.00  0.00     0.043 A 
HETATM   14  C   UNL     1      43.985  -9.052  11.148  1.00  0.00     0.116 A 
HETATM   15  F   UNL     1      43.863  -8.561  12.389  1.00  0.00    -0.206 F 
HETATM   16  C   UNL     1      42.909  -8.980  10.274  1.00  0.00     0.043 A 
HETATM   17  C   UNL     1      43.039  -9.491   8.980  1.00  0.00     0.017 A 
ENDBRANCH   9  11
ENDBRANCH   2   5
BRANCH   1  18
HETATM   18  C   UNL     1      42.442 -14.140   3.061  1.00  0.00     0.165 C 
BRANCH  18  19
HETATM   19  C   UNL     1      41.738 -15.423   3.607  1.00  0.00     0.099 C 
HETATM   20  C   UNL     1      40.379 -15.607   2.910  1.00  0.00     0.053 C 
BRANCH  19  21
HETATM   21  O   UNL     1      41.511 -15.143   5.001  1.00  0.00    -0.384 OA
HETATM   22  H   UNL     1      42.316 -14.719   5.347  1.00  0.00     0.211 HD
ENDBRANCH  19  21
BRANCH  19  23
HETATM   23  C   UNL     1      42.576 -16.709   3.462  1.00  0.00    -0.001 A 
HETATM   24  C   UNL     1      43.568 -17.098   4.391  1.00  0.00     0.043 A 
HETATM   25 CL   UNL     1      43.970 -16.165   5.795  1.00  0.00    -0.084 Cl
HETATM   26  C   UNL     1      44.290 -18.291   4.232  1.00  0.00     0.024 A 
HETATM   27  C   UNL     1      44.039 -19.132   3.155  1.00  0.00     0.002 A 
HETATM   28  C   UNL     1      43.062 -18.786   2.233  1.00  0.00     0.001 A 
HETATM   29  C   UNL     1      42.340 -17.596   2.388  1.00  0.00     0.012 A 
ENDBRANCH  19  23
ENDBRANCH  18  19
ENDBRANCH   1  18
TORSDOF 6
ENDMDL
MODEL 3
REMARK VINA RESULT:      -8.6      4.553      9.919
REMARK  6 active torsions:
REMARK  status: ('A' for Active; 'I' for Inactive)
REMARK    1  A    between atoms: C_2  and  O_3 
REMARK    2  A    between atoms: C_2  and  C_4 
REMARK    3  A    between atoms: C_2  and  C_11 
REMARK    4  A    between atoms: C_11  and  N_12 
REMARK       I    between atoms: N_12  and  C_13 
REMARK    5  A    between atoms: C_13  and  C_14 
REMARK    6  A    between atoms: C_18  and  C_19 
ROOT
HETATM    1  N   UNL     1      43.217 -12.202   7.046  1.00  0.00    -0.352 N 
HETATM    2  C   UNL     1      44.274 -11.344   7.234  1.00  0.00     0.272 C 
HETATM    3  O   UNL     1      45.069 -11.043   6.348  1.00  0.00    -0.266 OA
HETATM    4  H   UNL     1      42.557 -12.279   7.817  1.00  0.00     0.162 HD
ENDROOT
BRANCH   2   5
HETATM    5  C   UNL     1      44.360 -10.799   8.598  1.00  0.00     0.146 A 
HETATM    6  N   UNL     1      45.531 -10.661   9.250  1.00  0.00    -0.169 NA
HETATM    7  N   UNL     1      45.179 -10.152  10.443  1.00  0.00    -0.277 N 
HETATM    8  H   UNL     1      45.912  -9.987  11.124  1.00  0.00     0.189 HD
HETATM    9  C   UNL     1      43.834  -9.934  10.597  1.00  0.00     0.063 A 
HETATM   10  C   UNL     1      43.280 -10.362   9.406  1.00  0.00     0.071 A 
BRANCH   9  11
HETATM   11  C   UNL     1      43.222  -9.393  11.810  1.00  0.00    -0.008 A 
HETATM   12  C   UNL     1      43.664  -8.185  12.373  1.00  0.00     0.017 A 
HETATM   13  C   UNL     1      43.066  -7.680  13.532  1.00  0.00     0.043 A 
HETATM   14  C   UNL     1      42.026  -8.379  14.129  1.00  0.00     0.116 A 
HETATM   15  F   UNL     1      41.455  -7.893  15.239  1.00  0.00    -0.206 F 
HETATM   16  C   UNL     1      41.568  -9.573  13.588  1.00  0.00     0.043 A 
HETATM   17  C   UNL     1      42.164 -10.076  12.429  1.00  0.00     0.017 A 
ENDBRANCH   9  11
ENDBRANCH   2   5
BRANCH   1  18
HETATM   18  C   UNL     1      42.850 -12.751   5.752  1.00  0.00     0.165 C 
BRANCH  18  19
HETATM   19  C   UNL     1      42.793 -14.312   5.729  1.00  0.00     0.099 C 
HETATM   20  C   UNL     1      41.461 -14.792   6.330  1.00  0.00     0.053 C 
BRANCH  19  21
HETATM   21  O   UNL     1      43.867 -14.724   6.594  1.00  0.00    -0.384 OA
HETATM   22  H   UNL     1      43.672 -15.631   6.889  1.00  0.00     0.211 HD
ENDBRANCH  19  21
BRANCH  19  23
HETATM   23  C   UNL     1      42.984 -14.927   4.329  1.00  0.00    -0.001 A 
HETATM   24  C   UNL     1      43.120 -16.315   4.102  1.00  0.00     0.043 A 
HETATM   25 CL   UNL     1      43.105 -17.491   5.377  1.00  0.00    -0.084 Cl
HETATM   26  C   UNL     1      43.266 -16.834   2.806  1.00  0.00     0.024 A 
HETATM   27  C   UNL     1      43.272 -15.989   1.702  1.00  0.00     0.002 A 
HETATM   28  C   UNL     1      43.126 -14.622   1.890  1.00  0.00     0.001 A 
HETATM   29  C   UNL     1      42.981 -14.101   3.181  1.00  0.00     0.012 A 
ENDBRANCH  19  23
ENDBRANCH  18  19
ENDBRANCH   1  18
TORSDOF 6
ENDMDL
MODEL 4
REMARK VINA RESULT:      -8.4      2.434      3.515
REMARK  6 active torsions:
REMARK  status: ('A' for Active; 'I' for Inactive)
REMARK    1  A    between atoms: C_2  and  O_3 
REMARK    2  A    between atoms: C_2  and  C_4 
REMARK    3  A    between atoms: C_2  and  C_11 
REMARK    4  A    between atoms: C_11  and  N_12 
REMARK       I    between atoms: N_12  and  C_13 
REMARK    5  A    between atoms: C_13  and  C_14 
REMARK    6  A    between atoms: C_18  and  C_19 
ROOT
HETATM    1  N   UNL     1      43.248  -9.916   9.060  1.00  0.00    -0.352 N 
HETATM    2  C   UNL     1      44.112 -10.764   8.407  1.00  0.00     0.272 C 
HETATM    3  O   UNL     1      45.249 -11.008   8.801  1.00  0.00    -0.266 OA
HETATM    4  H   UNL     1      42.294  -9.888   8.707  1.00  0.00     0.162 HD
ENDROOT
BRANCH   2   5
HETATM    5  C   UNL     1      43.544 -11.371   7.194  1.00  0.00     0.146 A 
HETATM    6  N   UNL     1      42.471 -10.857   6.561  1.00  0.00    -0.169 NA
HETATM    7  N   UNL     1      42.269 -11.697   5.531  1.00  0.00    -0.277 N 
HETATM    8  H   UNL     1      41.481 -11.517   4.920  1.00  0.00     0.189 HD
HETATM    9  C   UNL     1      43.169 -12.728   5.450  1.00  0.00     0.063 A 
HETATM   10  C   UNL     1      44.003 -12.540   6.536  1.00  0.00     0.071 A 
BRANCH   9  11
HETATM   11  C   UNL     1      43.142 -13.764   4.419  1.00  0.00    -0.008 A 
HETATM   12  C   UNL     1      43.151 -13.436   3.054  1.00  0.00     0.017 A 
HETATM   13  C   UNL     1      43.127 -14.439   2.080  1.00  0.00     0.043 A 
HETATM   14  C   UNL     1      43.096 -15.771   2.468  1.00  0.00     0.116 A 
HETATM   15  F   UNL     1      43.073 -16.731   1.533  1.00  0.00    -0.206 F 
HETATM   16  C   UNL     1      43.091 -16.122   3.811  1.00  0.00     0.043 A 
HETATM   17  C   UNL     1      43.117 -15.120   4.784  1.00  0.00     0.017 A 
ENDBRANCH   9  11
ENDBRANCH   2   5
BRANCH   1  18
HETATM   18  C   UNL     1      43.538  -9.313  10.349  1.00  0.00     0.165 C 
BRANCH  18  19
HETATM   19  C   UNL     1      42.725  -9.939  11.528  1.00  0.00     0.099 C 
HETATM   20  C   UNL     1      43.424 -11.219  12.018  1.00  0.00     0.053 C 
BRANCH  19  21
HETATM   21  O   UNL     1      41.459 -10.296  10.942  1.00  0.00    -0.384 OA
HETATM   22  H   UNL     1      41.188 -11.146  11.332  1.00  0.00     0.211 HD
ENDBRANCH  19  21
BRANCH  19  23
HETATM   23  C   UNL     1      42.502  -8.981  12.714  1.00  0.00    -0.001 A 
HETATM   24  C   UNL     1      41.411  -9.091  13.606  1.00  0.00     0.043 A 
HETATM   25 CL   UNL     1      40.186 -10.309  13.461  1.00  0.00    -0.084 Cl
HETATM   26  C   UNL     1      41.260  -8.211  14.689  1.00  0.00     0.024 A 
HETATM   27  C   UNL     1      42.193  -7.207  14.920  1.00  0.00     0.002 A 
HETATM   28  C   UNL     1      43.282  -7.081  14.071  1.00  0.00     0.001 A 
HETATM   29  C   UNL     1      43.435  -7.956  12.989  1.00  0.00     0.012 A 
ENDBRANCH  19  23
ENDBRANCH  18  19
ENDBRANCH   1  18
TORSDOF 6
ENDMDL
MODEL 5
REMARK VINA RESULT:      -8.3      1.618      2.574
REMARK  6 active torsions:
REMARK  status: ('A' for Active; 'I' for Inactive)
REMARK    1  A    between atoms: C_2  and  O_3 
REMARK    2  A    between atoms: C_2  and  C_4 
REMARK    3  A    between atoms: C_2  and  C_11 
REMARK    4  A    between atoms: C_11  and  N_12 
REMARK       I    between atoms: N_12  and  C_13 
REMARK    5  A    between atoms: C_13  and  C_14 
REMARK    6  A    between atoms: C_18  and  C_19 
ROOT
HETATM    1  N   UNL     1      43.218 -10.279   8.336  1.00  0.00    -0.352 N 
HETATM    2  C   UNL     1      44.104 -11.227   7.881  1.00  0.00     0.272 C 
HETATM    3  O   UNL     1      45.279 -11.282   8.235  1.00  0.00    -0.266 OA
HETATM    4  H   UNL     1      42.246 -10.408   8.068  1.00  0.00     0.162 HD
ENDROOT
BRANCH   2   5
HETATM    5  C   UNL     1      43.512 -12.187   6.938  1.00  0.00     0.146 A 
HETATM    6  N   UNL     1      42.308 -11.992   6.365  1.00  0.00    -0.169 NA
HETATM    7  N   UNL     1      42.133 -13.082   5.599  1.00  0.00    -0.277 N 
HETATM    8  H   UNL     1      41.264 -13.166   5.084  1.00  0.00     0.189 HD
HETATM    9  C   UNL     1      43.173 -13.975   5.630  1.00  0.00     0.063 A 
HETATM   10  C   UNL     1      44.080 -13.414   6.509  1.00  0.00     0.071 A 
BRANCH   9  11
HETATM   11  C   UNL     1      43.200 -15.231   4.882  1.00  0.00    -0.008 A 
HETATM   12  C   UNL     1      43.669 -16.419   5.468  1.00  0.00     0.017 A 
HETATM   13  C   UNL     1      43.687 -17.612   4.740  1.00  0.00     0.043 A 
HETATM   14  C   UNL     1      43.236 -17.623   3.427  1.00  0.00     0.116 A 
HETATM   15  F   UNL     1      43.254 -18.768   2.731  1.00  0.00    -0.206 F 
HETATM   16  C   UNL     1      42.763 -16.463   2.828  1.00  0.00     0.043 A 
HETATM   17  C   UNL     1      42.743 -15.272   3.555  1.00  0.00     0.017 A 
ENDBRANCH   9  11
ENDBRANCH   2   5
BRANCH   1  18
HETATM   18  C   UNL     1      43.538  -9.317   9.376  1.00  0.00     0.165 C 
BRANCH  18  19
HETATM   19  C   UNL     1      42.869  -9.638  10.751  1.00  0.00     0.099 C 
HETATM   20  C   UNL     1      43.665 -10.739  11.471  1.00  0.00     0.053 C 
BRANCH  19  21
HETATM   21  O   UNL     1      41.570 -10.152  10.407  1.00  0.00    -0.384 OA
HETATM   22  H   UNL     1      41.662 -11.113  10.279  1.00  0.00     0.211 HD
ENDBRANCH  19  21
BRANCH  19  23
HETATM   23  C   UNL     1      42.719  -8.414  11.676  1.00  0.00    -0.001 A 
HETATM   24  C   UNL     1      42.007  -7.248  11.312  1.00  0.00     0.043 A 
HETATM   25 CL   UNL     1      41.233  -7.051   9.773  1.00  0.00    -0.084 Cl
HETATM   26  C   UNL     1      41.873  -6.167  12.197  1.00  0.00     0.024 A 
HETATM   27  C   UNL     1      42.433  -6.219  13.468  1.00  0.00     0.002 A 
HETATM   28  C   UNL     1      43.126  -7.355  13.861  1.00  0.00     0.001 A 
HETATM   29  C   UNL     1      43.262  -8.435  12.981  1.00  0.00     0.012 A 
ENDBRANCH  19  23
ENDBRANCH  18  19
ENDBRANCH   1  18
TORSDOF 6
ENDMDL
MODEL 6
REMARK VINA RESULT:      -8.3      1.751      2.205
REMARK  6 active torsions:
REMARK  status: ('A' for Active; 'I' for Inactive)
REMARK    1  A    between atoms: C_2  and  O_3 
REMARK    2  A    between atoms: C_2  and  C_4 
REMARK    3  A    between atoms: C_2  and  C_11 
REMARK    4  A    between atoms: C_11  and  N_12 
REMARK       I    between atoms: N_12  and  C_13 
REMARK    5  A    between atoms: C_13  and  C_14 
REMARK    6  A    between atoms: C_18  and  C_19 
ROOT
HETATM    1  N   UNL     1      42.983 -10.526   7.462  1.00  0.00    -0.352 N 
HETATM    2  C   UNL     1      42.105 -10.634   6.409  1.00  0.00     0.272 C 
HETATM    3  O   UNL     1      41.051 -10.008   6.338  1.00  0.00    -0.266 OA
HETATM    4  H   UNL     1      43.877 -10.998   7.351  1.00  0.00     0.162 HD
ENDROOT
BRANCH   2   5
HETATM    5  C   UNL     1      42.552 -11.559   5.357  1.00  0.00     0.146 A 
HETATM    6  N   UNL     1      43.325 -11.165   4.326  1.00  0.00    -0.169 NA
HETATM    7  N   UNL     1      43.494 -12.284   3.601  1.00  0.00    -0.277 N 
HETATM    8  H   UNL     1      44.032 -12.219   2.744  1.00  0.00     0.189 HD
HETATM    9  C   UNL     1      42.882 -13.397   4.117  1.00  0.00     0.063 A 
HETATM   10  C   UNL     1      42.251 -12.942   5.260  1.00  0.00     0.071 A 
BRANCH   9  11
HETATM   11  C   UNL     1      42.925 -14.721   3.499  1.00  0.00    -0.008 A 
HETATM   12  C   UNL     1      42.612 -15.879   4.230  1.00  0.00     0.017 A 
HETATM   13  C   UNL     1      42.655 -17.137   3.622  1.00  0.00     0.043 A 
HETATM   14  C   UNL     1      43.010 -17.242   2.284  1.00  0.00     0.116 A 
HETATM   15  F   UNL     1      43.051 -18.449   1.704  1.00  0.00    -0.206 F 
HETATM   16  C   UNL     1      43.318 -16.113   1.539  1.00  0.00     0.043 A 
HETATM   17  C   UNL     1      43.273 -14.855   2.145  1.00  0.00     0.017 A 
ENDBRANCH   9  11
ENDBRANCH   2   5
BRANCH   1  18
HETATM   18  C   UNL     1      42.822  -9.571   8.545  1.00  0.00     0.165 C 
BRANCH  18  19
HETATM   19  C   UNL     1      43.664  -9.919   9.814  1.00  0.00     0.099 C 
HETATM   20  C   UNL     1      45.145  -9.589   9.561  1.00  0.00     0.053 C 
BRANCH  19  21
HETATM   21  O   UNL     1      43.524 -11.345   9.958  1.00  0.00    -0.384 OA
HETATM   22  H   UNL     1      44.384 -11.745   9.738  1.00  0.00     0.211 HD
ENDBRANCH  19  21
BRANCH  19  23
HETATM   23  C   UNL     1      43.185  -9.214  11.098  1.00  0.00    -0.001 A 
HETATM   24  C   UNL     1      42.964  -7.821  11.182  1.00  0.00     0.043 A 
HETATM   25 CL   UNL     1      43.225  -6.737   9.854  1.00  0.00    -0.084 Cl
HETATM   26  C   UNL     1      42.502  -7.224  12.365  1.00  0.00     0.024 A 
HETATM   27  C   UNL     1      42.237  -7.996  13.491  1.00  0.00     0.002 A 
HETATM   28  C   UNL     1      42.429  -9.368  13.436  1.00  0.00     0.001 A 
HETATM   29  C   UNL     1      42.891  -9.967  12.258  1.00  0.00     0.012 A 
ENDBRANCH  19  23
ENDBRANCH  18  19
ENDBRANCH   1  18
TORSDOF 6
ENDMDL
MODEL 7
REMARK VINA RESULT:      -8.2      6.324      8.983
REMARK  6 active torsions:
REMARK  status: ('A' for Active; 'I' for Inactive)
REMARK    1  A    between atoms: C_2  and  O_3 
REMARK    2  A    between atoms: C_2  and  C_4 
REMARK    3  A    between atoms: C_2  and  C_11 
REMARK    4  A    between atoms: C_11  and  N_12 
REMARK       I    between atoms: N_12  and  C_13 
REMARK    5  A    between atoms: C_13  and  C_14 
REMARK    6  A    between atoms: C_18  and  C_19 
ROOT
HETATM    1  N   UNL     1      41.343 -15.752   4.500  1.00  0.00    -0.352 N 
HETATM    2  C   UNL     1      40.998 -14.423   4.578  1.00  0.00     0.272 C 
HETATM    3  O   UNL     1      41.091 -13.758   5.607  1.00  0.00    -0.266 OA
HETATM    4  H   UNL     1      41.341 -16.162   3.569  1.00  0.00     0.162 HD
ENDROOT
BRANCH   2   5
HETATM    5  C   UNL     1      40.524 -13.858   3.306  1.00  0.00     0.146 A 
HETATM    6  N   UNL     1      40.292 -12.540   3.140  1.00  0.00    -0.169 NA
HETATM    7  N   UNL     1      39.868 -12.444   1.869  1.00  0.00    -0.277 N 
HETATM    8  H   UNL     1      39.604 -11.527   1.525  1.00  0.00     0.189 HD
HETATM    9  C   UNL     1      39.825 -13.633   1.188  1.00  0.00     0.063 A 
HETATM   10  C   UNL     1      40.239 -14.572   2.115  1.00  0.00     0.071 A 
BRANCH   9  11
HETATM   11  C   UNL     1      39.392 -13.771  -0.201  1.00  0.00    -0.008 A 
HETATM   12  C   UNL     1      39.507 -14.993  -0.883  1.00  0.00     0.017 A 
HETATM   13  C   UNL     1      39.085 -15.109  -2.211  1.00  0.00     0.043 A 
HETATM   14  C   UNL     1      38.547 -14.006  -2.860  1.00  0.00     0.116 A 
HETATM   15  F   UNL     1      38.144 -14.119  -4.132  1.00  0.00    -0.206 F 
HETATM   16  C   UNL     1      38.418 -12.789  -2.205  1.00  0.00     0.043 A 
HETATM   17  C   UNL     1      38.837 -12.673  -0.878  1.00  0.00     0.017 A 
ENDBRANCH   9  11
ENDBRANCH   2   5
BRANCH   1  18
HETATM   18  C   UNL     1      41.967 -16.483   5.588  1.00  0.00     0.165 C 
BRANCH  18  19
HETATM   19  C   UNL     1      43.447 -16.895   5.297  1.00  0.00     0.099 C 
HETATM   20  C   UNL     1      44.272 -16.818   6.592  1.00  0.00     0.053 C 
BRANCH  19  21
HETATM   21  O   UNL     1      43.924 -15.892   4.381  1.00  0.00    -0.384 OA
HETATM   22  H   UNL     1      44.841 -15.681   4.633  1.00  0.00     0.211 HD
ENDBRANCH  19  21
BRANCH  19  23
HETATM   23  C   UNL     1      43.596 -18.293   4.666  1.00  0.00    -0.001 A 
HETATM   24  C   UNL     1      43.530 -18.528   3.274  1.00  0.00     0.043 A 
HETATM   25 CL   UNL     1      43.254 -17.271   2.112  1.00  0.00    -0.084 Cl
HETATM   26  C   UNL     1      43.697 -19.815   2.741  1.00  0.00     0.024 A 
HETATM   27  C   UNL     1      43.945 -20.900   3.574  1.00  0.00     0.002 A 
HETATM   28  C   UNL     1      44.030 -20.700   4.944  1.00  0.00     0.001 A 
HETATM   29  C   UNL     1      43.863 -19.418   5.480  1.00  0.00     0.012 A 
ENDBRANCH  19  23
ENDBRANCH  18  19
ENDBRANCH   1  18
TORSDOF 6
ENDMDL
MODEL 8
REMARK VINA RESULT:      -8.1      5.574      8.234
REMARK  6 active torsions:
REMARK  status: ('A' for Active; 'I' for Inactive)
REMARK    1  A    between atoms: C_2  and  O_3 
REMARK    2  A    between atoms: C_2  and  C_4 
REMARK    3  A    between atoms: C_2  and  C_11 
REMARK    4  A    between atoms: C_11  and  N_12 
REMARK       I    between atoms: N_12  and  C_13 
REMARK    5  A    between atoms: C_13  and  C_14 
REMARK    6  A    between atoms: C_18  and  C_19 
ROOT
HETATM    1  N   UNL     1      41.146 -12.887   2.752  1.00  0.00    -0.352 N 
HETATM    2  C   UNL     1      42.088 -12.823   3.752  1.00  0.00     0.272 C 
HETATM    3  O   UNL     1      42.460 -11.772   4.266  1.00  0.00    -0.266 OA
HETATM    4  H   UNL     1      40.830 -13.819   2.492  1.00  0.00     0.162 HD
ENDROOT
BRANCH   2   5
HETATM    5  C   UNL     1      42.600 -14.137   4.169  1.00  0.00     0.146 A 
HETATM    6  N   UNL     1      43.164 -14.345   5.375  1.00  0.00    -0.169 NA
HETATM    7  N   UNL     1      43.502 -15.645   5.355  1.00  0.00    -0.277 N 
HETATM    8  H   UNL     1      43.977 -16.026   6.166  1.00  0.00     0.189 HD
HETATM    9  C   UNL     1      43.172 -16.304   4.198  1.00  0.00     0.063 A 
HETATM   10  C   UNL     1      42.592 -15.332   3.405  1.00  0.00     0.071 A 
BRANCH   9  11
HETATM   11  C   UNL     1      43.447 -17.718   3.949  1.00  0.00    -0.008 A 
HETATM   12  C   UNL     1      43.270 -18.283   2.676  1.00  0.00     0.017 A 
HETATM   13  C   UNL     1      43.539 -19.636   2.454  1.00  0.00     0.043 A 
HETATM   14  C   UNL     1      43.987 -20.428   3.502  1.00  0.00     0.116 A 
HETATM   15  F   UNL     1      44.245 -21.725   3.287  1.00  0.00    -0.206 F 
HETATM   16  C   UNL     1      44.174 -19.893   4.769  1.00  0.00     0.043 A 
HETATM   17  C   UNL     1      43.907 -18.540   4.990  1.00  0.00     0.017 A 
ENDBRANCH   9  11
ENDBRANCH   2   5
BRANCH   1  18
HETATM   18  C   UNL     1      40.400 -11.735   2.278  1.00  0.00     0.165 C 
BRANCH  18  19
HETATM   19  C   UNL     1      39.106 -12.111   1.488  1.00  0.00     0.099 C 
HETATM   20  C   UNL     1      38.089 -10.961   1.579  1.00  0.00     0.053 C 
BRANCH  19  21
HETATM   21  O   UNL     1      38.578 -13.254   2.186  1.00  0.00    -0.384 OA
HETATM   22  H   UNL     1      39.125 -14.022   1.940  1.00  0.00     0.211 HD
ENDBRANCH  19  21
BRANCH  19  23
HETATM   23  C   UNL     1      39.355 -12.469   0.010  1.00  0.00    -0.001 A 
HETATM   24  C   UNL     1      39.743 -13.758  -0.422  1.00  0.00     0.043 A 
HETATM   25 CL   UNL     1      40.000 -15.085   0.665  1.00  0.00    -0.084 Cl
HETATM   26  C   UNL     1      39.934 -14.048  -1.782  1.00  0.00     0.024 A 
HETATM   27  C   UNL     1      39.736 -13.069  -2.748  1.00  0.00     0.002 A 
HETATM   28  C   UNL     1      39.341 -11.797  -2.358  1.00  0.00     0.001 A 
HETATM   29  C   UNL     1      39.150 -11.505  -1.003  1.00  0.00     0.012 A 
ENDBRANCH  19  23
ENDBRANCH  18  19
ENDBRANCH   1  18
TORSDOF 6
ENDMDL
MODEL 9
REMARK VINA RESULT:      -8.1      1.618      1.790
REMARK  6 active torsions:
REMARK  status: ('A' for Active; 'I' for Inactive)
REMARK    1  A    between atoms: C_2  and  O_3 
REMARK    2  A    between atoms: C_2  and  C_4 
REMARK    3  A    between atoms: C_2  and  C_11 
REMARK    4  A    between atoms: C_11  and  N_12 
REMARK       I    between atoms: N_12  and  C_13 
REMARK    5  A    between atoms: C_13  and  C_14 
REMARK    6  A    between atoms: C_18  and  C_19 
ROOT
HETATM    1  N   UNL     1      42.554 -11.369   7.082  1.00  0.00    -0.352 N 
HETATM    2  C   UNL     1      42.987 -11.827   5.860  1.00  0.00     0.272 C 
HETATM    3  O   UNL     1      43.230 -11.091   4.907  1.00  0.00    -0.266 OA
HETATM    4  H   UNL     1      42.505 -12.058   7.828  1.00  0.00     0.162 HD
ENDROOT
BRANCH   2   5
HETATM    5  C   UNL     1      43.152 -13.287   5.799  1.00  0.00     0.146 A 
HETATM    6  N   UNL     1      43.309 -14.045   6.902  1.00  0.00    -0.169 NA
HETATM    7  N   UNL     1      43.436 -15.294   6.422  1.00  0.00    -0.277 N 
HETATM    8  H   UNL     1      43.595 -16.044   7.085  1.00  0.00     0.189 HD
HETATM    9  C   UNL     1      43.354 -15.392   5.057  1.00  0.00     0.063 A 
HETATM   10  C   UNL     1      43.180 -14.089   4.630  1.00  0.00     0.071 A 
BRANCH   9  11
HETATM   11  C   UNL     1      43.469 -16.646   4.314  1.00  0.00    -0.008 A 
HETATM   12  C   UNL     1      42.864 -16.808   3.056  1.00  0.00     0.017 A 
HETATM   13  C   UNL     1      42.986 -18.013   2.358  1.00  0.00     0.043 A 
HETATM   14  C   UNL     1      43.712 -19.058   2.913  1.00  0.00     0.116 A 
HETATM   15  F   UNL     1      43.827 -20.212   2.242  1.00  0.00    -0.206 F 
HETATM   16  C   UNL     1      44.323 -18.921   4.152  1.00  0.00     0.043 A 
HETATM   17  C   UNL     1      44.203 -17.717   4.849  1.00  0.00     0.017 A 
ENDBRANCH   9  11
ENDBRANCH   2   5
BRANCH   1  18
HETATM   18  C   UNL     1      42.454  -9.960   7.420  1.00  0.00     0.165 C 
BRANCH  18  19
HETATM   19  C   UNL     1      42.944  -9.628   8.867  1.00  0.00     0.099 C 
HETATM   20  C   UNL     1      44.029  -8.540   8.811  1.00  0.00     0.053 C 
BRANCH  19  21
HETATM   21  O   UNL     1      43.538 -10.854   9.334  1.00  0.00    -0.384 OA
HETATM   22  H   UNL     1      43.209 -11.010  10.237  1.00  0.00     0.211 HD
ENDBRANCH  19  21
BRANCH  19  23
HETATM   23  C   UNL     1      41.818  -9.194   9.825  1.00  0.00    -0.001 A 
HETATM   24  C   UNL     1      42.039  -8.856  11.180  1.00  0.00     0.043 A 
HETATM   25 CL   UNL     1      43.603  -8.908  11.927  1.00  0.00    -0.084 Cl
HETATM   26  C   UNL     1      40.987  -8.440  12.011  1.00  0.00     0.024 A 
HETATM   27  C   UNL     1      39.692  -8.340  11.517  1.00  0.00     0.002 A 
HETATM   28  C   UNL     1      39.445  -8.651  10.188  1.00  0.00     0.001 A 
HETATM   29  C   UNL     1      40.491  -9.066   9.356  1.00  0.00     0.012 A 
ENDBRANCH  19  23
ENDBRANCH  18  19
ENDBRANCH   1  18
TORSDOF 6
ENDMDL
MODEL 10
REMARK VINA RESULT:      -8.0      4.561     10.095
REMARK  6 active torsions:
REMARK  status: ('A' for Active; 'I' for Inactive)
REMARK    1  A    between atoms: C_2  and  O_3 
REMARK    2  A    between atoms: C_2  and  C_4 
REMARK    3  A    between atoms: C_2  and  C_11 
REMARK    4  A    between atoms: C_11  and  N_12 
REMARK       I    between atoms: N_12  and  C_13 
REMARK    5  A    between atoms: C_13  and  C_14 
REMARK    6  A    between atoms: C_18  and  C_19 
ROOT
HETATM    1  N   UNL     1      44.004 -11.885   7.943  1.00  0.00    -0.352 N 
HETATM    2  C   UNL     1      44.376 -10.665   8.456  1.00  0.00     0.272 C 
HETATM    3  O   UNL     1      45.041  -9.841   7.833  1.00  0.00    -0.266 OA
HETATM    4  H   UNL     1      43.353 -12.429   8.505  1.00  0.00     0.162 HD
ENDROOT
BRANCH   2   5
HETATM    5  C   UNL     1      43.889 -10.423   9.822  1.00  0.00     0.146 A 
HETATM    6  N   UNL     1      43.886 -11.381  10.771  1.00  0.00    -0.169 NA
HETATM    7  N   UNL     1      43.364 -10.769  11.847  1.00  0.00    -0.277 N 
HETATM    8  H   UNL     1      43.238 -11.318  12.691  1.00  0.00     0.189 HD
HETATM    9  C   UNL     1      43.040  -9.451  11.655  1.00  0.00     0.063 A 
HETATM   10  C   UNL     1      43.365  -9.208  10.333  1.00  0.00     0.071 A 
BRANCH   9  11
HETATM   11  C   UNL     1      42.454  -8.589  12.680  1.00  0.00    -0.008 A 
HETATM   12  C   UNL     1      43.258  -7.780  13.499  1.00  0.00     0.017 A 
HETATM   13  C   UNL     1      42.682  -6.959  14.474  1.00  0.00     0.043 A 
HETATM   14  C   UNL     1      41.303  -6.945  14.632  1.00  0.00     0.116 A 
HETATM   15  F   UNL     1      40.754  -6.158  15.567  1.00  0.00    -0.206 F 
HETATM   16  C   UNL     1      40.487  -7.732  13.832  1.00  0.00     0.043 A 
HETATM   17  C   UNL     1      41.062  -8.550  12.856  1.00  0.00     0.017 A 
ENDBRANCH   9  11
ENDBRANCH   2   5
BRANCH   1  18
HETATM   18  C   UNL     1      44.248 -12.285   6.568  1.00  0.00     0.165 C 
BRANCH  18  19
HETATM   19  C   UNL     1      42.950 -12.670   5.789  1.00  0.00     0.099 C 
HETATM   20  C   UNL     1      42.650 -11.607   4.720  1.00  0.00     0.053 C 
BRANCH  19  21
HETATM   21  O   UNL     1      41.910 -12.635   6.785  1.00  0.00    -0.384 OA
HETATM   22  H   UNL     1      41.254 -11.976   6.496  1.00  0.00     0.211 HD
ENDBRANCH  19  21
BRANCH  19  23
HETATM   23  C   UNL     1      43.001 -14.066   5.137  1.00  0.00    -0.001 A 
HETATM   24  C   UNL     1      43.050 -15.268   5.878  1.00  0.00     0.043 A 
HETATM   25 CL   UNL     1      43.075 -15.314   7.611  1.00  0.00    -0.084 Cl
HETATM   26  C   UNL     1      43.069 -16.519   5.242  1.00  0.00     0.024 A 
HETATM   27  C   UNL     1      43.030 -16.609   3.855  1.00  0.00     0.002 A 
HETATM   28  C   UNL     1      42.968 -15.447   3.100  1.00  0.00     0.001 A 
HETATM   29  C   UNL     1      42.949 -14.198   3.730  1.00  0.00     0.012 A 
ENDBRANCH  19  23
ENDBRANCH  18  19
ENDBRANCH   1  18
TORSDOF 6
ENDMDL
