MODEL 1
REMARK VINA RESULT:      -7.9      0.000      0.000
REMARK  6 active torsions:
REMARK  status: ('A' for Active; 'I' for Inactive)
REMARK    1  A    between atoms: C_2  and  N_3 
REMARK    2  A    between atoms: C_2  and  C_11 
REMARK       I    between atoms: N_3  and  C_4 
REMARK    3  A    between atoms: C_4  and  C_5 
REMARK    4  A    between atoms: C_14  and  O_15 
REMARK    5  A    between atoms: O_15  and  C_16 
REMARK    6  A    between atoms: C_16  and  C_17 
ROOT
HETATM    1  C   UNL     1      42.910 -13.362   5.640  1.00  0.00    -0.036 A 
HETATM    2  C   UNL     1      42.176 -14.071   4.678  1.00  0.00     0.012 A 
HETATM    3  C   UNL     1      42.094 -15.468   4.721  1.00  0.00     0.037 A 
HETATM    4  C   UNL     1      42.763 -16.176   5.717  1.00  0.00     0.069 A 
HETATM    5  C   UNL     1      43.469 -15.478   6.697  1.00  0.00     0.037 A 
HETATM    6  C   UNL     1      43.548 -14.084   6.659  1.00  0.00     0.012 A 
ENDROOT
BRANCH   1   7
HETATM    7  C   UNL     1      43.043 -11.852   5.532  1.00  0.00     0.113 C 
HETATM    8  C   UNL     1      41.683 -11.165   5.382  1.00  0.00     0.037 C 
BRANCH   7   9
HETATM    9  N   UNL     1      43.765 -11.348   6.690  1.00  0.00    -0.352 N 
HETATM   10  C   UNL     1      45.101 -11.045   6.643  1.00  0.00     0.225 C 
HETATM   11  O   UNL     1      45.774 -11.124   5.623  1.00  0.00    -0.273 OA
HETATM   12  H   UNL     1      43.304 -11.408   7.589  1.00  0.00     0.163 HD
BRANCH  10  13
HETATM   13  C   UNL     1      45.750 -10.568   7.889  1.00  0.00     0.119 A 
HETATM   14  C   UNL     1      45.229  -9.459   8.760  1.00  0.00     0.126 A 
HETATM   15 CL   UNL     1      43.835  -8.485   8.320  1.00  0.00    -0.101 Cl
HETATM   16 CL   UNL     1      45.413  -9.634  10.507  1.00  0.00    -0.101 Cl
HETATM   17  C   UNL     1      46.488  -9.253   7.958  1.00  0.00     0.060 A 
ENDBRANCH  10  13
ENDBRANCH   7   9
ENDBRANCH   1   7
BRANCH   4  18
HETATM   18  O   UNL     1      42.797 -17.538   5.845  1.00  0.00    -0.347 OA
BRANCH  18  19
HETATM   19  C   UNL     1      44.043 -18.172   5.567  1.00  0.00     0.215 C 
BRANCH  19  20
HETATM   20  C   UNL     1      43.889 -18.993   4.318  1.00  0.00    -0.017 A 
HETATM   21  C   UNL     1      44.043 -20.376   4.344  1.00  0.00     0.125 A 
HETATM   22  N   UNL     1      43.925 -21.176   3.261  1.00  0.00    -0.272 NA
HETATM   23  C   UNL     1      43.628 -20.572   2.091  1.00  0.00     0.116 A 
HETATM   24  C   UNL     1      43.447 -19.206   1.955  1.00  0.00     0.020 A 
HETATM   25  C   UNL     1      43.582 -18.406   3.086  1.00  0.00     0.012 A 
ENDBRANCH  19  20
ENDBRANCH  18  19
ENDBRANCH   4  18
TORSDOF 6
ENDMDL
MODEL 2
REMARK VINA RESULT:      -7.8      1.643      2.286
REMARK  6 active torsions:
REMARK  status: ('A' for Active; 'I' for Inactive)
REMARK    1  A    between atoms: C_2  and  N_3 
REMARK    2  A    between atoms: C_2  and  C_11 
REMARK       I    between atoms: N_3  and  C_4 
REMARK    3  A    between atoms: C_4  and  C_5 
REMARK    4  A    between atoms: C_14  and  O_15 
REMARK    5  A    between atoms: O_15  and  C_16 
REMARK    6  A    between atoms: C_16  and  C_17 
ROOT
HETATM    1  C   UNL     1      41.609 -13.237   4.761  1.00  0.00    -0.036 A 
HETATM    2  C   UNL     1      42.881 -13.716   4.414  1.00  0.00     0.012 A 
HETATM    3  C   UNL     1      43.027 -14.883   3.654  1.00  0.00     0.037 A 
HETATM    4  C   UNL     1      41.903 -15.598   3.248  1.00  0.00     0.069 A 
HETATM    5  C   UNL     1      40.633 -15.112   3.561  1.00  0.00     0.037 A 
HETATM    6  C   UNL     1      40.484 -13.945   4.314  1.00  0.00     0.012 A 
ENDROOT
BRANCH   1   7
HETATM    7  C   UNL     1      41.477 -12.009   5.645  1.00  0.00     0.113 C 
HETATM    8  C   UNL     1      40.077 -11.884   6.251  1.00  0.00     0.037 C 
BRANCH   7   9
HETATM    9  N   UNL     1      42.499 -12.048   6.680  1.00  0.00    -0.352 N 
HETATM   10  C   UNL     1      43.135 -10.918   7.124  1.00  0.00     0.225 C 
HETATM   11  O   UNL     1      42.861  -9.793   6.728  1.00  0.00    -0.273 OA
HETATM   12  H   UNL     1      42.873 -12.956   6.930  1.00  0.00     0.163 HD
BRANCH  10  13
HETATM   13  C   UNL     1      44.186 -11.073   8.160  1.00  0.00     0.119 A 
HETATM   14  C   UNL     1      44.876  -9.936   8.861  1.00  0.00     0.126 A 
HETATM   15 CL   UNL     1      44.611  -8.255   8.428  1.00  0.00    -0.101 Cl
HETATM   16 CL   UNL     1      45.266 -10.145  10.571  1.00  0.00    -0.101 Cl
HETATM   17  C   UNL     1      45.640 -10.785   7.878  1.00  0.00     0.060 A 
ENDBRANCH  10  13
ENDBRANCH   7   9
ENDBRANCH   1   7
BRANCH   4  18
HETATM   18  O   UNL     1      41.911 -16.768   2.541  1.00  0.00    -0.347 OA
BRANCH  18  19
HETATM   19  C   UNL     1      43.185 -17.235   2.099  1.00  0.00     0.215 C 
BRANCH  19  20
HETATM   20  C   UNL     1      43.488 -18.526   2.806  1.00  0.00    -0.017 A 
HETATM   21  C   UNL     1      43.359 -19.749   2.155  1.00  0.00     0.125 A 
HETATM   22  N   UNL     1      43.608 -20.947   2.728  1.00  0.00    -0.272 NA
HETATM   23  C   UNL     1      44.019 -20.930   4.014  1.00  0.00     0.116 A 
HETATM   24  C   UNL     1      44.187 -19.770   4.752  1.00  0.00     0.020 A 
HETATM   25  C   UNL     1      43.915 -18.551   4.137  1.00  0.00     0.012 A 
ENDBRANCH  19  20
ENDBRANCH  18  19
ENDBRANCH   4  18
TORSDOF 6
ENDMDL
MODEL 3
REMARK VINA RESULT:      -7.7      3.878      8.838
REMARK  6 active torsions:
REMARK  status: ('A' for Active; 'I' for Inactive)
REMARK    1  A    between atoms: C_2  and  N_3 
REMARK    2  A    between atoms: C_2  and  C_11 
REMARK       I    between atoms: N_3  and  C_4 
REMARK    3  A    between atoms: C_4  and  C_5 
REMARK    4  A    between atoms: C_14  and  O_15 
REMARK    5  A    between atoms: O_15  and  C_16 
REMARK    6  A    between atoms: C_16  and  C_17 
ROOT
HETATM    1  C   UNL     1      42.408 -13.021   5.090  1.00  0.00    -0.036 A 
HETATM    2  C   UNL     1      43.251 -12.001   4.623  1.00  0.00     0.012 A 
HETATM    3  C   UNL     1      44.303 -11.519   5.411  1.00  0.00     0.037 A 
HETATM    4  C   UNL     1      44.514 -12.038   6.687  1.00  0.00     0.069 A 
HETATM    5  C   UNL     1      43.701 -13.073   7.148  1.00  0.00     0.037 A 
HETATM    6  C   UNL     1      42.654 -13.559   6.361  1.00  0.00     0.012 A 
ENDROOT
BRANCH   1   7
HETATM    7  C   UNL     1      41.231 -13.477   4.246  1.00  0.00     0.113 C 
HETATM    8  C   UNL     1      40.563 -12.312   3.512  1.00  0.00     0.037 C 
BRANCH   7   9
HETATM    9  N   UNL     1      41.675 -14.503   3.314  1.00  0.00    -0.352 N 
HETATM   10  C   UNL     1      41.458 -15.838   3.538  1.00  0.00     0.225 C 
HETATM   11  O   UNL     1      40.836 -16.266   4.502  1.00  0.00    -0.273 OA
HETATM   12  H   UNL     1      42.323 -14.223   2.588  1.00  0.00     0.163 HD
BRANCH  10  13
HETATM   13  C   UNL     1      41.981 -16.804   2.542  1.00  0.00     0.119 A 
HETATM   14  C   UNL     1      43.114 -17.762   2.784  1.00  0.00     0.126 A 
HETATM   15 CL   UNL     1      44.062 -17.752   4.262  1.00  0.00    -0.101 Cl
HETATM   16 CL   UNL     1      42.998 -19.368   2.061  1.00  0.00    -0.101 Cl
HETATM   17  C   UNL     1      43.303 -16.601   1.841  1.00  0.00     0.060 A 
ENDBRANCH  10  13
ENDBRANCH   7   9
ENDBRANCH   1   7
BRANCH   4  18
HETATM   18  O   UNL     1      45.476 -11.627   7.568  1.00  0.00    -0.347 OA
BRANCH  18  19
HETATM   19  C   UNL     1      45.780 -10.233   7.574  1.00  0.00     0.215 C 
BRANCH  19  20
HETATM   20  C   UNL     1      44.985  -9.580   8.670  1.00  0.00    -0.017 A 
HETATM   21  C   UNL     1      44.008  -8.632   8.380  1.00  0.00     0.125 A 
HETATM   22  N   UNL     1      43.260  -8.000   9.311  1.00  0.00    -0.272 NA
HETATM   23  C   UNL     1      43.486  -8.336  10.599  1.00  0.00     0.116 A 
HETATM   24  C   UNL     1      44.427  -9.270  10.997  1.00  0.00     0.020 A 
HETATM   25  C   UNL     1      45.188  -9.899  10.016  1.00  0.00     0.012 A 
ENDBRANCH  19  20
ENDBRANCH  18  19
ENDBRANCH   4  18
TORSDOF 6
ENDMDL
MODEL 4
REMARK VINA RESULT:      -7.6      1.421      1.741
REMARK  6 active torsions:
REMARK  status: ('A' for Active; 'I' for Inactive)
REMARK    1  A    between atoms: C_2  and  N_3 
REMARK    2  A    between atoms: C_2  and  C_11 
REMARK       I    between atoms: N_3  and  C_4 
REMARK    3  A    between atoms: C_4  and  C_5 
REMARK    4  A    between atoms: C_14  and  O_15 
REMARK    5  A    between atoms: O_15  and  C_16 
REMARK    6  A    between atoms: C_16  and  C_17 
ROOT
HETATM    1  C   UNL     1      43.084 -12.415   5.822  1.00  0.00    -0.036 A 
HETATM    2  C   UNL     1      42.512 -12.742   4.584  1.00  0.00     0.012 A 
HETATM    3  C   UNL     1      42.404 -14.075   4.170  1.00  0.00     0.037 A 
HETATM    4  C   UNL     1      42.886 -15.099   4.981  1.00  0.00     0.069 A 
HETATM    5  C   UNL     1      43.428 -14.787   6.228  1.00  0.00     0.037 A 
HETATM    6  C   UNL     1      43.532 -13.458   6.646  1.00  0.00     0.012 A 
ENDROOT
BRANCH   1   7
HETATM    7  C   UNL     1      43.255 -10.959   6.218  1.00  0.00     0.113 C 
HETATM    8  C   UNL     1      42.147 -10.074   5.644  1.00  0.00     0.037 C 
BRANCH   7   9
HETATM    9  N   UNL     1      43.315 -10.858   7.669  1.00  0.00    -0.352 N 
HETATM   10  C   UNL     1      44.445 -10.450   8.327  1.00  0.00     0.225 C 
HETATM   11  O   UNL     1      45.466 -10.093   7.754  1.00  0.00    -0.273 OA
HETATM   12  H   UNL     1      42.562 -11.283   8.196  1.00  0.00     0.163 HD
BRANCH  10  13
HETATM   13  C   UNL     1      44.411 -10.413   9.810  1.00  0.00     0.119 A 
HETATM   14  C   UNL     1      43.893  -9.263  10.630  1.00  0.00     0.126 A 
HETATM   15 CL   UNL     1      43.386  -7.742   9.914  1.00  0.00    -0.101 Cl
HETATM   16 CL   UNL     1      43.012  -9.646  12.112  1.00  0.00    -0.101 Cl
HETATM   17  C   UNL     1      45.369  -9.569  10.615  1.00  0.00     0.060 A 
ENDBRANCH  10  13
ENDBRANCH   7   9
ENDBRANCH   1   7
BRANCH   4  18
HETATM   18  O   UNL     1      42.878 -16.432   4.676  1.00  0.00    -0.347 OA
BRANCH  18  19
HETATM   19  C   UNL     1      43.328 -16.789   3.370  1.00  0.00     0.215 C 
BRANCH  19  20
HETATM   20  C   UNL     1      43.525 -18.278   3.327  1.00  0.00    -0.017 A 
HETATM   21  C   UNL     1      44.002 -18.971   4.436  1.00  0.00     0.125 A 
HETATM   22  N   UNL     1      44.210 -20.306   4.468  1.00  0.00    -0.272 NA
HETATM   23  C   UNL     1      43.916 -20.992   3.343  1.00  0.00     0.116 A 
HETATM   24  C   UNL     1      43.430 -20.403   2.187  1.00  0.00     0.020 A 
HETATM   25  C   UNL     1      43.234 -19.025   2.182  1.00  0.00     0.012 A 
ENDBRANCH  19  20
ENDBRANCH  18  19
ENDBRANCH   4  18
TORSDOF 6
ENDMDL
MODEL 5
REMARK VINA RESULT:      -7.5      2.077      2.864
REMARK  6 active torsions:
REMARK  status: ('A' for Active; 'I' for Inactive)
REMARK    1  A    between atoms: C_2  and  N_3 
REMARK    2  A    between atoms: C_2  and  C_11 
REMARK       I    between atoms: N_3  and  C_4 
REMARK    3  A    between atoms: C_4  and  C_5 
REMARK    4  A    between atoms: C_14  and  O_15 
REMARK    5  A    between atoms: O_15  and  C_16 
REMARK    6  A    between atoms: C_16  and  C_17 
ROOT
HETATM    1  C   UNL     1      43.937 -12.659   6.715  1.00  0.00    -0.036 A 
HETATM    2  C   UNL     1      43.646 -12.299   5.391  1.00  0.00     0.012 A 
HETATM    3  C   UNL     1      43.016 -13.198   4.523  1.00  0.00     0.037 A 
HETATM    4  C   UNL     1      42.685 -14.478   4.962  1.00  0.00     0.069 A 
HETATM    5  C   UNL     1      42.942 -14.834   6.286  1.00  0.00     0.037 A 
HETATM    6  C   UNL     1      43.566 -13.937   7.156  1.00  0.00     0.012 A 
ENDROOT
BRANCH   1   7
HETATM    7  C   UNL     1      44.685 -11.691   7.617  1.00  0.00     0.113 C 
HETATM    8  C   UNL     1      45.648 -10.799   6.829  1.00  0.00     0.037 C 
BRANCH   7   9
HETATM    9  N   UNL     1      43.727 -10.898   8.372  1.00  0.00    -0.352 N 
HETATM   10  C   UNL     1      43.962 -10.502   9.663  1.00  0.00     0.225 C 
HETATM   11  O   UNL     1      45.005 -10.737  10.259  1.00  0.00    -0.273 OA
HETATM   12  H   UNL     1      42.794 -10.808   7.990  1.00  0.00     0.163 HD
BRANCH  10  13
HETATM   13  C   UNL     1      42.906  -9.724  10.355  1.00  0.00     0.119 A 
HETATM   14  C   UNL     1      42.653  -8.255  10.160  1.00  0.00     0.126 A 
HETATM   15 CL   UNL     1      43.690  -7.238   9.173  1.00  0.00    -0.101 Cl
HETATM   16 CL   UNL     1      40.976  -7.702  10.176  1.00  0.00    -0.101 Cl
HETATM   17  C   UNL     1      43.221  -8.751  11.465  1.00  0.00     0.060 A 
ENDBRANCH  10  13
ENDBRANCH   7   9
ENDBRANCH   1   7
BRANCH   4  18
HETATM   18  O   UNL     1      42.108 -15.459   4.205  1.00  0.00    -0.347 OA
BRANCH  18  19
HETATM   19  C   UNL     1      42.800 -15.837   3.016  1.00  0.00     0.215 C 
BRANCH  19  20
HETATM   20  C   UNL     1      43.187 -17.284   3.132  1.00  0.00    -0.017 A 
HETATM   21  C   UNL     1      43.864 -17.758   4.252  1.00  0.00     0.125 A 
HETATM   22  N   UNL     1      44.248 -19.043   4.422  1.00  0.00    -0.272 NA
HETATM   23  C   UNL     1      43.933 -19.905   3.433  1.00  0.00     0.116 A 
HETATM   24  C   UNL     1      43.256 -19.541   2.281  1.00  0.00     0.020 A 
HETATM   25  C   UNL     1      42.880 -18.210   2.130  1.00  0.00     0.012 A 
ENDBRANCH  19  20
ENDBRANCH  18  19
ENDBRANCH   4  18
TORSDOF 6
ENDMDL
MODEL 6
REMARK VINA RESULT:      -7.4      5.879      7.424
REMARK  6 active torsions:
REMARK  status: ('A' for Active; 'I' for Inactive)
REMARK    1  A    between atoms: C_2  and  N_3 
REMARK    2  A    between atoms: C_2  and  C_11 
REMARK       I    between atoms: N_3  and  C_4 
REMARK    3  A    between atoms: C_4  and  C_5 
REMARK    4  A    between atoms: C_14  and  O_15 
REMARK    5  A    between atoms: O_15  and  C_16 
REMARK    6  A    between atoms: C_16  and  C_17 
ROOT
HETATM    1  C   UNL     1      39.728 -13.486   2.754  1.00  0.00    -0.036 A 
HETATM    2  C   UNL     1      39.825 -14.765   2.184  1.00  0.00     0.012 A 
HETATM    3  C   UNL     1      40.602 -15.762   2.785  1.00  0.00     0.037 A 
HETATM    4  C   UNL     1      41.309 -15.489   3.954  1.00  0.00     0.069 A 
HETATM    5  C   UNL     1      41.193 -14.230   4.544  1.00  0.00     0.037 A 
HETATM    6  C   UNL     1      40.415 -13.235   3.950  1.00  0.00     0.012 A 
ENDROOT
BRANCH   1   7
HETATM    7  C   UNL     1      38.937 -12.399   2.046  1.00  0.00     0.113 C 
HETATM    8  C   UNL     1      39.561 -11.016   2.238  1.00  0.00     0.037 C 
BRANCH   7   9
HETATM    9  N   UNL     1      38.815 -12.733   0.635  1.00  0.00    -0.352 N 
HETATM   10  C   UNL     1      37.917 -12.108  -0.190  1.00  0.00     0.225 C 
HETATM   11  O   UNL     1      37.189 -11.194   0.177  1.00  0.00    -0.273 OA
HETATM   12  H   UNL     1      39.275 -13.577   0.315  1.00  0.00     0.163 HD
BRANCH  10  13
HETATM   13  C   UNL     1      37.851 -12.546  -1.606  1.00  0.00     0.119 A 
HETATM   14  C   UNL     1      38.829 -13.479  -2.264  1.00  0.00     0.126 A 
HETATM   15 CL   UNL     1      40.274 -14.062  -1.453  1.00  0.00    -0.101 Cl
HETATM   16 CL   UNL     1      38.196 -14.633  -3.440  1.00  0.00    -0.101 Cl
HETATM   17  C   UNL     1      38.803 -12.023  -2.654  1.00  0.00     0.060 A 
ENDBRANCH  10  13
ENDBRANCH   7   9
ENDBRANCH   1   7
BRANCH   4  18
HETATM   18  O   UNL     1      42.131 -16.359   4.613  1.00  0.00    -0.347 OA
BRANCH  18  19
HETATM   19  C   UNL     1      43.417 -16.581   4.036  1.00  0.00     0.215 C 
BRANCH  19  20
HETATM   20  C   UNL     1      43.523 -18.031   3.657  1.00  0.00    -0.017 A 
HETATM   21  C   UNL     1      43.990 -18.977   4.565  1.00  0.00     0.125 A 
HETATM   22  N   UNL     1      44.118 -20.295   4.292  1.00  0.00    -0.272 NA
HETATM   23  C   UNL     1      43.752 -20.696   3.057  1.00  0.00     0.116 A 
HETATM   24  C   UNL     1      43.269 -19.840   2.081  1.00  0.00     0.020 A 
HETATM   25  C   UNL     1      43.156 -18.487   2.388  1.00  0.00     0.012 A 
ENDBRANCH  19  20
ENDBRANCH  18  19
ENDBRANCH   4  18
TORSDOF 6
ENDMDL
MODEL 7
REMARK VINA RESULT:      -7.3      8.017     11.358
REMARK  6 active torsions:
REMARK  status: ('A' for Active; 'I' for Inactive)
REMARK    1  A    between atoms: C_2  and  N_3 
REMARK    2  A    between atoms: C_2  and  C_11 
REMARK       I    between atoms: N_3  and  C_4 
REMARK    3  A    between atoms: C_4  and  C_5 
REMARK    4  A    between atoms: C_14  and  O_15 
REMARK    5  A    between atoms: O_15  and  C_16 
REMARK    6  A    between atoms: C_16  and  C_17 
ROOT
HETATM    1  C   UNL     1      41.924  -7.788  14.722  1.00  0.00    -0.036 A 
HETATM    2  C   UNL     1      41.265  -8.967  14.342  1.00  0.00     0.012 A 
HETATM    3  C   UNL     1      41.664  -9.680  13.206  1.00  0.00     0.037 A 
HETATM    4  C   UNL     1      42.717  -9.213  12.422  1.00  0.00     0.069 A 
HETATM    5  C   UNL     1      43.399  -8.060  12.809  1.00  0.00     0.037 A 
HETATM    6  C   UNL     1      43.006  -7.349  13.945  1.00  0.00     0.012 A 
ENDROOT
BRANCH   1   7
HETATM    7  C   UNL     1      41.428  -6.994  15.917  1.00  0.00     0.113 C 
HETATM    8  C   UNL     1      40.002  -6.477  15.712  1.00  0.00     0.037 C 
BRANCH   7   9
HETATM    9  N   UNL     1      41.525  -7.815  17.115  1.00  0.00    -0.352 N 
HETATM   10  C   UNL     1      41.889  -7.295  18.330  1.00  0.00     0.225 C 
HETATM   11  O   UNL     1      42.108  -6.105  18.514  1.00  0.00    -0.273 OA
HETATM   12  H   UNL     1      41.507  -8.820  16.993  1.00  0.00     0.163 HD
BRANCH  10  13
HETATM   13  C   UNL     1      41.989  -8.225  19.482  1.00  0.00     0.119 A 
HETATM   14  C   UNL     1      40.825  -8.918  20.132  1.00  0.00     0.126 A 
HETATM   15 CL   UNL     1      39.158  -8.595  19.681  1.00  0.00    -0.101 Cl
HETATM   16 CL   UNL     1      41.068 -10.574  20.696  1.00  0.00    -0.101 Cl
HETATM   17  C   UNL     1      41.558  -7.830  20.874  1.00  0.00     0.060 A 
ENDBRANCH  10  13
ENDBRANCH   7   9
ENDBRANCH   1   7
BRANCH   4  18
HETATM   18  O   UNL     1      43.175  -9.792  11.270  1.00  0.00    -0.347 OA
BRANCH  18  19
HETATM   19  C   UNL     1      43.274  -8.944  10.127  1.00  0.00     0.215 C 
BRANCH  19  20
HETATM   20  C   UNL     1      44.308  -9.518   9.200  1.00  0.00    -0.017 A 
HETATM   21  C   UNL     1      44.181 -10.808   8.694  1.00  0.00     0.125 A 
HETATM   22  N   UNL     1      45.073 -11.390   7.862  1.00  0.00    -0.272 NA
HETATM   23  C   UNL     1      46.142 -10.649   7.505  1.00  0.00     0.116 A 
HETATM   24  C   UNL     1      46.362  -9.354   7.944  1.00  0.00     0.020 A 
HETATM   25  C   UNL     1      45.430  -8.783   8.806  1.00  0.00     0.012 A 
ENDBRANCH  19  20
ENDBRANCH  18  19
ENDBRANCH   4  18
TORSDOF 6
ENDMDL
MODEL 8
REMARK VINA RESULT:      -7.3      3.095      4.227
REMARK  6 active torsions:
REMARK  status: ('A' for Active; 'I' for Inactive)
REMARK    1  A    between atoms: C_2  and  N_3 
REMARK    2  A    between atoms: C_2  and  C_11 
REMARK       I    between atoms: N_3  and  C_4 
REMARK    3  A    between atoms: C_4  and  C_5 
REMARK    4  A    between atoms: C_14  and  O_15 
REMARK    5  A    between atoms: O_15  and  C_16 
REMARK    6  A    between atoms: C_16  and  C_17 
ROOT
HETATM    1  C   UNL     1      43.909 -11.897   7.036  1.00  0.00    -0.036 A 
HETATM    2  C   UNL     1      43.786 -13.293   6.970  1.00  0.00     0.012 A 
HETATM    3  C   UNL     1      42.725 -13.889   6.279  1.00  0.00     0.037 A 
HETATM    4  C   UNL     1      41.761 -13.097   5.659  1.00  0.00     0.069 A 
HETATM    5  C   UNL     1      41.892 -11.708   5.693  1.00  0.00     0.037 A 
HETATM    6  C   UNL     1      42.953 -11.111   6.378  1.00  0.00     0.012 A 
ENDROOT
BRANCH   1   7
HETATM    7  C   UNL     1      45.029 -11.273   7.852  1.00  0.00     0.113 C 
HETATM    8  C   UNL     1      46.200 -10.827   6.974  1.00  0.00     0.037 C 
BRANCH   7   9
HETATM    9  N   UNL     1      44.497 -10.163   8.628  1.00  0.00    -0.352 N 
HETATM   10  C   UNL     1      44.649 -10.083   9.988  1.00  0.00     0.225 C 
HETATM   11  O   UNL     1      45.279 -10.902  10.644  1.00  0.00    -0.273 OA
HETATM   12  H   UNL     1      43.842  -9.544   8.167  1.00  0.00     0.163 HD
BRANCH  10  13
HETATM   13  C   UNL     1      44.040  -8.926  10.689  1.00  0.00     0.119 A 
HETATM   14  C   UNL     1      43.201  -9.018  11.933  1.00  0.00     0.126 A 
HETATM   15 CL   UNL     1      42.719 -10.551  12.639  1.00  0.00    -0.101 Cl
HETATM   16 CL   UNL     1      43.382  -7.740  13.139  1.00  0.00    -0.101 Cl
HETATM   17  C   UNL     1      42.561  -8.634  10.624  1.00  0.00     0.060 A 
ENDBRANCH  10  13
ENDBRANCH   7   9
ENDBRANCH   1   7
BRANCH   4  18
HETATM   18  O   UNL     1      40.659 -13.553   4.991  1.00  0.00    -0.347 OA
BRANCH  18  19
HETATM   19  C   UNL     1      40.671 -13.410   3.571  1.00  0.00     0.215 C 
BRANCH  19  20
HETATM   20  C   UNL     1      41.512 -14.512   2.991  1.00  0.00    -0.017 A 
HETATM   21  C   UNL     1      42.694 -14.231   2.313  1.00  0.00     0.125 A 
HETATM   22  N   UNL     1      43.496 -15.168   1.761  1.00  0.00    -0.272 NA
HETATM   23  C   UNL     1      43.110 -16.454   1.899  1.00  0.00     0.116 A 
HETATM   24  C   UNL     1      41.957 -16.844   2.560  1.00  0.00     0.020 A 
HETATM   25  C   UNL     1      41.147 -15.856   3.112  1.00  0.00     0.012 A 
ENDBRANCH  19  20
ENDBRANCH  18  19
ENDBRANCH   4  18
TORSDOF 6
ENDMDL
MODEL 9
REMARK VINA RESULT:      -6.9      3.113      3.857
REMARK  6 active torsions:
REMARK  status: ('A' for Active; 'I' for Inactive)
REMARK    1  A    between atoms: C_2  and  N_3 
REMARK    2  A    between atoms: C_2  and  C_11 
REMARK       I    between atoms: N_3  and  C_4 
REMARK    3  A    between atoms: C_4  and  C_5 
REMARK    4  A    between atoms: C_14  and  O_15 
REMARK    5  A    between atoms: O_15  and  C_16 
REMARK    6  A    between atoms: C_16  and  C_17 
ROOT
HETATM    1  C   UNL     1      43.095 -10.992   7.213  1.00  0.00    -0.036 A 
HETATM    2  C   UNL     1      42.131 -11.063   6.196  1.00  0.00     0.012 A 
HETATM    3  C   UNL     1      42.066 -12.170   5.343  1.00  0.00     0.037 A 
HETATM    4  C   UNL     1      42.978 -13.215   5.483  1.00  0.00     0.069 A 
HETATM    5  C   UNL     1      43.919 -13.168   6.512  1.00  0.00     0.037 A 
HETATM    6  C   UNL     1      43.982 -12.066   7.368  1.00  0.00     0.012 A 
ENDROOT
BRANCH   1   7
HETATM    7  C   UNL     1      43.191  -9.748   8.081  1.00  0.00     0.113 C 
HETATM    8  C   UNL     1      42.555  -8.529   7.410  1.00  0.00     0.037 C 
BRANCH   7   9
HETATM    9  N   UNL     1      42.584 -10.016   9.376  1.00  0.00    -0.352 N 
HETATM   10  C   UNL     1      43.210  -9.706  10.555  1.00  0.00     0.225 C 
HETATM   11  O   UNL     1      44.293  -9.139  10.613  1.00  0.00    -0.273 OA
HETATM   12  H   UNL     1      41.769 -10.617   9.392  1.00  0.00     0.163 HD
BRANCH  10  13
HETATM   13  C   UNL     1      42.517 -10.051  11.821  1.00  0.00     0.119 A 
HETATM   14  C   UNL     1      41.239  -9.421  12.301  1.00  0.00     0.126 A 
HETATM   15 CL   UNL     1      40.473  -8.079  11.469  1.00  0.00    -0.101 Cl
HETATM   16 CL   UNL     1      40.077 -10.460  13.131  1.00  0.00    -0.101 Cl
HETATM   17  C   UNL     1      42.532  -9.134  13.021  1.00  0.00     0.060 A 
ENDBRANCH  10  13
ENDBRANCH   7   9
ENDBRANCH   1   7
BRANCH   4  18
HETATM   18  O   UNL     1      43.046 -14.328   4.692  1.00  0.00    -0.347 OA
BRANCH  18  19
HETATM   19  C   UNL     1      42.476 -15.523   5.224  1.00  0.00     0.215 C 
BRANCH  19  20
HETATM   20  C   UNL     1      42.964 -16.686   4.406  1.00  0.00    -0.017 A 
HETATM   21  C   UNL     1      42.413 -16.968   3.160  1.00  0.00     0.125 A 
HETATM   22  N   UNL     1      42.796 -17.998   2.373  1.00  0.00    -0.272 NA
HETATM   23  C   UNL     1      43.788 -18.783   2.844  1.00  0.00     0.116 A 
HETATM   24  C   UNL     1      44.409 -18.588   4.066  1.00  0.00     0.020 A 
HETATM   25  C   UNL     1      43.988 -17.524   4.858  1.00  0.00     0.012 A 
ENDBRANCH  19  20
ENDBRANCH  18  19
ENDBRANCH   4  18
TORSDOF 6
ENDMDL
MODEL 10
REMARK VINA RESULT:      -6.9     15.949     17.738
REMARK  6 active torsions:
REMARK  status: ('A' for Active; 'I' for Inactive)
REMARK    1  A    between atoms: C_2  and  N_3 
REMARK    2  A    between atoms: C_2  and  C_11 
REMARK       I    between atoms: N_3  and  C_4 
REMARK    3  A    between atoms: C_4  and  C_5 
REMARK    4  A    between atoms: C_14  and  O_15 
REMARK    5  A    between atoms: O_15  and  C_16 
REMARK    6  A    between atoms: C_16  and  C_17 
ROOT
HETATM    1  C   UNL     1      46.682 -28.415   0.312  1.00  0.00    -0.036 A 
HETATM    2  C   UNL     1      47.701 -28.537  -0.645  1.00  0.00     0.012 A 
HETATM    3  C   UNL     1      47.403 -28.575  -2.012  1.00  0.00     0.037 A 
HETATM    4  C   UNL     1      46.078 -28.513  -2.441  1.00  0.00     0.069 A 
HETATM    5  C   UNL     1      45.061 -28.360  -1.498  1.00  0.00     0.037 A 
HETATM    6  C   UNL     1      45.356 -28.316  -0.134  1.00  0.00     0.012 A 
ENDROOT
BRANCH   1   7
HETATM    7  C   UNL     1      47.024 -28.447   1.792  1.00  0.00     0.113 C 
HETATM    8  C   UNL     1      45.811 -28.798   2.655  1.00  0.00     0.037 C 
BRANCH   7   9
HETATM    9  N   UNL     1      48.118 -29.380   2.013  1.00  0.00    -0.352 N 
HETATM   10  C   UNL     1      49.043 -29.200   3.008  1.00  0.00     0.225 C 
HETATM   11  O   UNL     1      48.994 -28.280   3.814  1.00  0.00    -0.273 OA
HETATM   12  H   UNL     1      48.297 -30.067   1.290  1.00  0.00     0.163 HD
BRANCH  10  13
HETATM   13  C   UNL     1      50.138 -30.194   3.128  1.00  0.00     0.119 A 
HETATM   14  C   UNL     1      49.959 -31.624   3.556  1.00  0.00     0.126 A 
HETATM   15 CL   UNL     1      48.419 -32.262   4.109  1.00  0.00    -0.101 Cl
HETATM   16 CL   UNL     1      50.957 -32.847   2.764  1.00  0.00    -0.101 Cl
HETATM   17  C   UNL     1      50.665 -30.652   4.466  1.00  0.00     0.060 A 
ENDBRANCH  10  13
ENDBRANCH   7   9
ENDBRANCH   1   7
BRANCH   4  18
HETATM   18  O   UNL     1      45.653 -28.582  -3.738  1.00  0.00    -0.347 OA
BRANCH  18  19
HETATM   19  C   UNL     1      44.281 -28.914  -3.942  1.00  0.00     0.215 C 
BRANCH  19  20
HETATM   20  C   UNL     1      44.205 -30.326  -4.449  1.00  0.00    -0.017 A 
HETATM   21  C   UNL     1      43.991 -30.593  -5.798  1.00  0.00     0.125 A 
HETATM   22  N   UNL     1      43.905 -31.836  -6.324  1.00  0.00    -0.272 NA
HETATM   23  C   UNL     1      44.052 -32.868  -5.467  1.00  0.00     0.116 A 
HETATM   24  C   UNL     1      44.275 -32.714  -4.109  1.00  0.00     0.020 A 
HETATM   25  C   UNL     1      44.351 -31.423  -3.595  1.00  0.00     0.012 A 
ENDBRANCH  19  20
ENDBRANCH  18  19
ENDBRANCH   4  18
TORSDOF 6
ENDMDL
