MODEL 1
REMARK VINA RESULT:      -8.9      0.000      0.000
REMARK  5 active torsions:
REMARK  status: ('A' for Active; 'I' for Inactive)
REMARK    1  A    between atoms: C_2  and  C_3 
REMARK    2  A    between atoms: C_8  and  N_9 
REMARK       I    between atoms: N_9  and  C_10 
REMARK       I    between atoms: C_10  and  N_11 
REMARK    3  A    between atoms: N_11  and  C_12 
REMARK    4  A    between atoms: C_12  and  C_13 
REMARK    5  A    between atoms: C_13  and  C_14 
ROOT
HETATM    1  N   UNL     1      39.470 -13.808  -0.007  1.00  0.00    -0.305 N 
HETATM    2  C   UNL     1      40.697 -13.647   0.588  1.00  0.00     0.320 C 
HETATM    3  N   UNL     1      41.155 -14.837   1.118  1.00  0.00    -0.343 N 
HETATM    4  O   UNL     1      41.358 -12.619   0.639  1.00  0.00    -0.247 OA
HETATM    5  H   UNL     1      39.140 -14.756  -0.085  1.00  0.00     0.171 HD
HETATM    6  H   UNL     1      40.471 -15.521   1.406  1.00  0.00     0.164 HD
ENDROOT
BRANCH   3   7
HETATM    7  C   UNL     1      42.447 -14.902   1.784  1.00  0.00     0.129 C 
BRANCH   7   8
HETATM    8  C   UNL     1      43.088 -16.292   1.713  1.00  0.00     0.059 C 
BRANCH   8   9
HETATM    9  C   UNL     1      43.406 -16.854   3.088  1.00  0.00    -0.045 A 
HETATM   10  C   UNL     1      43.579 -18.249   3.322  1.00  0.00    -0.020 A 
HETATM   11  C   UNL     1      43.848 -18.690   4.644  1.00  0.00    -0.025 A 
HETATM   12  C   UNL     1      43.505 -19.237   2.311  1.00  0.00     0.013 A 
HETATM   13  C   UNL     1      44.025 -20.058   4.909  1.00  0.00     0.012 A 
HETATM   14  C   UNL     1      43.940 -17.757   5.687  1.00  0.00     0.012 A 
HETATM   15  C   UNL     1      43.942 -21.004   3.890  1.00  0.00     0.001 A 
HETATM   16  C   UNL     1      43.683 -20.595   2.591  1.00  0.00     0.001 A 
HETATM   17  C   UNL     1      43.772 -16.396   5.447  1.00  0.00     0.001 A 
HETATM   18  C   UNL     1      43.506 -15.947   4.159  1.00  0.00     0.008 A 
ENDBRANCH   8   9
ENDBRANCH   7   8
ENDBRANCH   3   7
BRANCH   1  19
HETATM   19  C   UNL     1      38.725 -12.837  -0.663  1.00  0.00     0.095 A 
HETATM   20  C   UNL     1      38.618 -12.783  -2.040  1.00  0.00     0.107 A 
HETATM   21  O   UNL     1      37.844 -11.727  -2.398  1.00  0.00    -0.215 OA
HETATM   22  N   UNL     1      37.411 -11.070  -1.272  1.00  0.00    -0.131 NA
HETATM   23  C   UNL     1      37.933 -11.730  -0.228  1.00  0.00     0.087 A 
HETATM   24  C   UNL     1      37.610 -11.233   1.130  1.00  0.00     0.075 C 
BRANCH  20  25
HETATM   25  C   UNL     1      39.148 -13.586  -3.169  1.00  0.00     0.065 C 
HETATM   26  C   UNL     1      38.324 -14.842  -3.398  1.00  0.00     0.012 C 
ENDBRANCH  20  25
ENDBRANCH   1  19
TORSDOF 5
ENDMDL
MODEL 2
REMARK VINA RESULT:      -8.7      5.427      8.014
REMARK  5 active torsions:
REMARK  status: ('A' for Active; 'I' for Inactive)
REMARK    1  A    between atoms: C_2  and  C_3 
REMARK    2  A    between atoms: C_8  and  N_9 
REMARK       I    between atoms: N_9  and  C_10 
REMARK       I    between atoms: C_10  and  N_11 
REMARK    3  A    between atoms: N_11  and  C_12 
REMARK    4  A    between atoms: C_12  and  C_13 
REMARK    5  A    between atoms: C_13  and  C_14 
ROOT
HETATM    1  N   UNL     1      43.845 -11.804   7.971  1.00  0.00    -0.305 N 
HETATM    2  C   UNL     1      43.564 -12.484   6.812  1.00  0.00     0.320 C 
HETATM    3  N   UNL     1      43.092 -13.754   7.081  1.00  0.00    -0.343 N 
HETATM    4  O   UNL     1      43.664 -12.060   5.669  1.00  0.00    -0.247 OA
HETATM    5  H   UNL     1      43.562 -12.254   8.826  1.00  0.00     0.171 HD
HETATM    6  H   UNL     1      43.383 -14.195   7.941  1.00  0.00     0.164 HD
ENDROOT
BRANCH   3   7
HETATM    7  C   UNL     1      42.716 -14.649   5.997  1.00  0.00     0.129 C 
BRANCH   7   8
HETATM    8  C   UNL     1      43.616 -15.886   5.902  1.00  0.00     0.059 C 
BRANCH   8   9
HETATM    9  C   UNL     1      43.501 -16.583   4.557  1.00  0.00    -0.045 A 
HETATM   10  C   UNL     1      43.655 -17.992   4.411  1.00  0.00    -0.020 A 
HETATM   11  C   UNL     1      43.558 -18.557   3.114  1.00  0.00    -0.025 A 
HETATM   12  C   UNL     1      43.896 -18.878   5.489  1.00  0.00     0.013 A 
HETATM   13  C   UNL     1      43.703 -19.944   2.935  1.00  0.00     0.012 A 
HETATM   14  C   UNL     1      43.313 -17.731   2.007  1.00  0.00     0.012 A 
HETATM   15  C   UNL     1      43.942 -20.787   4.018  1.00  0.00     0.001 A 
HETATM   16  C   UNL     1      44.039 -20.255   5.295  1.00  0.00     0.001 A 
HETATM   17  C   UNL     1      43.161 -16.356   2.161  1.00  0.00     0.001 A 
HETATM   18  C   UNL     1      43.256 -15.785   3.425  1.00  0.00     0.008 A 
ENDBRANCH   8   9
ENDBRANCH   7   8
ENDBRANCH   3   7
BRANCH   1  19
HETATM   19  C   UNL     1      44.309 -10.499   8.082  1.00  0.00     0.095 A 
HETATM   20  C   UNL     1      43.483  -9.439   8.410  1.00  0.00     0.107 A 
HETATM   21  O   UNL     1      44.202  -8.289   8.432  1.00  0.00    -0.215 OA
HETATM   22  N   UNL     1      45.516  -8.560   8.136  1.00  0.00    -0.131 NA
HETATM   23  C   UNL     1      45.588  -9.884   7.927  1.00  0.00     0.087 A 
HETATM   24  C   UNL     1      46.915 -10.455   7.597  1.00  0.00     0.075 C 
BRANCH  20  25
HETATM   25  C   UNL     1      42.041  -9.286   8.721  1.00  0.00     0.065 C 
HETATM   26  C   UNL     1      41.825  -8.768  10.133  1.00  0.00     0.012 C 
ENDBRANCH  20  25
ENDBRANCH   1  19
TORSDOF 5
ENDMDL
MODEL 3
REMARK VINA RESULT:      -8.7      5.700      7.957
REMARK  5 active torsions:
REMARK  status: ('A' for Active; 'I' for Inactive)
REMARK    1  A    between atoms: C_2  and  C_3 
REMARK    2  A    between atoms: C_8  and  N_9 
REMARK       I    between atoms: N_9  and  C_10 
REMARK       I    between atoms: C_10  and  N_11 
REMARK    3  A    between atoms: N_11  and  C_12 
REMARK    4  A    between atoms: C_12  and  C_13 
REMARK    5  A    between atoms: C_13  and  C_14 
ROOT
HETATM    1  N   UNL     1      43.052 -10.777   7.808  1.00  0.00    -0.305 N 
HETATM    2  C   UNL     1      43.748 -11.636   6.994  1.00  0.00     0.320 C 
HETATM    3  N   UNL     1      43.327 -12.940   7.167  1.00  0.00    -0.343 N 
HETATM    4  O   UNL     1      44.609 -11.338   6.178  1.00  0.00    -0.247 OA
HETATM    5  H   UNL     1      42.275 -11.178   8.308  1.00  0.00     0.171 HD
HETATM    6  H   UNL     1      42.940 -13.197   8.064  1.00  0.00     0.164 HD
ENDROOT
BRANCH   3   7
HETATM    7  C   UNL     1      43.920 -14.019   6.392  1.00  0.00     0.129 C 
BRANCH   7   8
HETATM    8  C   UNL     1      42.956 -15.186   6.154  1.00  0.00     0.059 C 
BRANCH   8   9
HETATM    9  C   UNL     1      43.059 -15.744   4.745  1.00  0.00    -0.045 A 
HETATM   10  C   UNL     1      43.398 -17.103   4.483  1.00  0.00    -0.020 A 
HETATM   11  C   UNL     1      43.498 -17.533   3.135  1.00  0.00    -0.025 A 
HETATM   12  C   UNL     1      43.641 -18.066   5.492  1.00  0.00     0.013 A 
HETATM   13  C   UNL     1      43.830 -18.868   2.843  1.00  0.00     0.012 A 
HETATM   14  C   UNL     1      43.262 -16.627   2.092  1.00  0.00     0.012 A 
HETATM   15  C   UNL     1      44.065 -19.789   3.861  1.00  0.00     0.001 A 
HETATM   16  C   UNL     1      43.970 -19.389   5.185  1.00  0.00     0.001 A 
HETATM   17  C   UNL     1      42.927 -15.301   2.358  1.00  0.00     0.001 A 
HETATM   18  C   UNL     1      42.828 -14.863   3.673  1.00  0.00     0.008 A 
ENDBRANCH   8   9
ENDBRANCH   7   8
ENDBRANCH   3   7
BRANCH   1  19
HETATM   19  C   UNL     1      43.189  -9.397   7.879  1.00  0.00     0.095 A 
HETATM   20  C   UNL     1      44.298  -8.786   8.435  1.00  0.00     0.107 A 
HETATM   21  O   UNL     1      44.153  -7.438   8.381  1.00  0.00    -0.215 OA
HETATM   22  N   UNL     1      42.958  -7.126   7.778  1.00  0.00    -0.131 NA
HETATM   23  C   UNL     1      42.376  -8.296   7.473  1.00  0.00     0.087 A 
HETATM   24  C   UNL     1      41.060  -8.251   6.792  1.00  0.00     0.075 C 
BRANCH  20  25
HETATM   25  C   UNL     1      45.557  -9.258   9.060  1.00  0.00     0.065 C 
HETATM   26  C   UNL     1      45.312  -9.843  10.441  1.00  0.00     0.012 C 
ENDBRANCH  20  25
ENDBRANCH   1  19
TORSDOF 5
ENDMDL
MODEL 4
REMARK VINA RESULT:      -8.5      1.233      2.270
REMARK  5 active torsions:
REMARK  status: ('A' for Active; 'I' for Inactive)
REMARK    1  A    between atoms: C_2  and  C_3 
REMARK    2  A    between atoms: C_8  and  N_9 
REMARK       I    between atoms: N_9  and  C_10 
REMARK       I    between atoms: C_10  and  N_11 
REMARK    3  A    between atoms: N_11  and  C_12 
REMARK    4  A    between atoms: C_12  and  C_13 
REMARK    5  A    between atoms: C_13  and  C_14 
ROOT
HETATM    1  N   UNL     1      39.176 -13.685  -0.352  1.00  0.00    -0.305 N 
HETATM    2  C   UNL     1      39.973 -13.985   0.726  1.00  0.00     0.320 C 
HETATM    3  N   UNL     1      39.796 -15.294   1.128  1.00  0.00    -0.343 N 
HETATM    4  O   UNL     1      40.775 -13.243   1.274  1.00  0.00    -0.247 OA
HETATM    5  H   UNL     1      38.686 -14.461  -0.767  1.00  0.00     0.171 HD
HETATM    6  H   UNL     1      38.904 -15.730   0.943  1.00  0.00     0.164 HD
ENDROOT
BRANCH   3   7
HETATM    7  C   UNL     1      40.554 -15.833   2.247  1.00  0.00     0.129 C 
BRANCH   7   8
HETATM    8  C   UNL     1      42.019 -16.117   1.897  1.00  0.00     0.059 C 
BRANCH   8   9
HETATM    9  C   UNL     1      42.791 -16.702   3.068  1.00  0.00    -0.045 A 
HETATM   10  C   UNL     1      43.175 -18.073   3.122  1.00  0.00    -0.020 A 
HETATM   11  C   UNL     1      43.871 -18.541   4.266  1.00  0.00    -0.025 A 
HETATM   12  C   UNL     1      42.910 -19.010   2.094  1.00  0.00     0.013 A 
HETATM   13  C   UNL     1      44.266 -19.887   4.350  1.00  0.00     0.012 A 
HETATM   14  C   UNL     1      44.169 -17.658   5.313  1.00  0.00     0.012 A 
HETATM   15  C   UNL     1      43.986 -20.784   3.321  1.00  0.00     0.001 A 
HETATM   16  C   UNL     1      43.308 -20.346   2.193  1.00  0.00     0.001 A 
HETATM   17  C   UNL     1      43.792 -16.319   5.250  1.00  0.00     0.001 A 
HETATM   18  C   UNL     1      43.107 -15.844   4.137  1.00  0.00     0.008 A 
ENDBRANCH   8   9
ENDBRANCH   7   8
ENDBRANCH   3   7
BRANCH   1  19
HETATM   19  C   UNL     1      39.113 -12.477  -1.034  1.00  0.00     0.095 A 
HETATM   20  C   UNL     1      38.239 -11.466  -0.680  1.00  0.00     0.107 A 
HETATM   21  O   UNL     1      38.388 -10.415  -1.526  1.00  0.00    -0.215 OA
HETATM   22  N   UNL     1      39.368 -10.699  -2.446  1.00  0.00    -0.131 NA
HETATM   23  C   UNL     1      39.809 -11.932  -2.156  1.00  0.00     0.087 A 
HETATM   24  C   UNL     1      40.893 -12.490  -2.998  1.00  0.00     0.075 C 
BRANCH  20  25
HETATM   25  C   UNL     1      37.210 -11.285   0.373  1.00  0.00     0.065 C 
HETATM   26  C   UNL     1      37.836 -11.158   1.752  1.00  0.00     0.012 C 
ENDBRANCH  20  25
ENDBRANCH   1  19
TORSDOF 5
ENDMDL
MODEL 5
REMARK VINA RESULT:      -8.2      5.667      7.751
REMARK  5 active torsions:
REMARK  status: ('A' for Active; 'I' for Inactive)
REMARK    1  A    between atoms: C_2  and  C_3 
REMARK    2  A    between atoms: C_8  and  N_9 
REMARK       I    between atoms: N_9  and  C_10 
REMARK       I    between atoms: C_10  and  N_11 
REMARK    3  A    between atoms: N_11  and  C_12 
REMARK    4  A    between atoms: C_12  and  C_13 
REMARK    5  A    between atoms: C_13  and  C_14 
ROOT
HETATM    1  N   UNL     1      42.830 -10.550   7.683  1.00  0.00    -0.305 N 
HETATM    2  C   UNL     1      42.533 -11.074   6.449  1.00  0.00     0.320 C 
HETATM    3  N   UNL     1      41.987 -12.338   6.562  1.00  0.00    -0.343 N 
HETATM    4  O   UNL     1      42.675 -10.525   5.366  1.00  0.00    -0.247 OA
HETATM    5  H   UNL     1      42.508 -11.081   8.476  1.00  0.00     0.171 HD
HETATM    6  H   UNL     1      42.239 -12.892   7.368  1.00  0.00     0.164 HD
ENDROOT
BRANCH   3   7
HETATM    7  C   UNL     1      41.582 -13.077   5.376  1.00  0.00     0.129 C 
BRANCH   7   8
HETATM    8  C   UNL     1      42.770 -13.612   4.569  1.00  0.00     0.059 C 
BRANCH   8   9
HETATM    9  C   UNL     1      43.224 -14.981   5.047  1.00  0.00    -0.045 A 
HETATM   10  C   UNL     1      43.289 -16.111   4.180  1.00  0.00    -0.020 A 
HETATM   11  C   UNL     1      43.699 -17.358   4.717  1.00  0.00    -0.025 A 
HETATM   12  C   UNL     1      42.971 -16.069   2.801  1.00  0.00     0.013 A 
HETATM   13  C   UNL     1      43.775 -18.492   3.889  1.00  0.00     0.012 A 
HETATM   14  C   UNL     1      44.033 -17.460   6.074  1.00  0.00     0.012 A 
HETATM   15  C   UNL     1      43.452 -18.416   2.536  1.00  0.00     0.001 A 
HETATM   16  C   UNL     1      43.051 -17.205   1.991  1.00  0.00     0.001 A 
HETATM   17  C   UNL     1      43.970 -16.350   6.913  1.00  0.00     0.001 A 
HETATM   18  C   UNL     1      43.568 -15.121   6.404  1.00  0.00     0.008 A 
ENDBRANCH   8   9
ENDBRANCH   7   8
ENDBRANCH   3   7
BRANCH   1  19
HETATM   19  C   UNL     1      43.362  -9.296   7.952  1.00  0.00     0.095 A 
HETATM   20  C   UNL     1      44.685  -9.108   8.308  1.00  0.00     0.107 A 
HETATM   21  O   UNL     1      44.918  -7.788   8.523  1.00  0.00    -0.215 OA
HETATM   22  N   UNL     1      43.765  -7.074   8.303  1.00  0.00    -0.131 NA
HETATM   23  C   UNL     1      42.828  -7.971   7.958  1.00  0.00     0.087 A 
HETATM   24  C   UNL     1      41.471  -7.463   7.648  1.00  0.00     0.075 C 
BRANCH  20  25
HETATM   25  C   UNL     1      45.858  -9.994   8.506  1.00  0.00     0.065 C 
HETATM   26  C   UNL     1      46.179 -10.787   7.251  1.00  0.00     0.012 C 
ENDBRANCH  20  25
ENDBRANCH   1  19
TORSDOF 5
ENDMDL
MODEL 6
REMARK VINA RESULT:      -8.1      5.686      8.045
REMARK  5 active torsions:
REMARK  status: ('A' for Active; 'I' for Inactive)
REMARK    1  A    between atoms: C_2  and  C_3 
REMARK    2  A    between atoms: C_8  and  N_9 
REMARK       I    between atoms: N_9  and  C_10 
REMARK       I    between atoms: C_10  and  N_11 
REMARK    3  A    between atoms: N_11  and  C_12 
REMARK    4  A    between atoms: C_12  and  C_13 
REMARK    5  A    between atoms: C_13  and  C_14 
ROOT
HETATM    1  N   UNL     1      43.169 -10.858   7.858  1.00  0.00    -0.305 N 
HETATM    2  C   UNL     1      43.908 -11.875   7.302  1.00  0.00     0.320 C 
HETATM    3  N   UNL     1      43.194 -13.056   7.281  1.00  0.00    -0.343 N 
HETATM    4  O   UNL     1      45.036 -11.792   6.839  1.00  0.00    -0.247 OA
HETATM    5  H   UNL     1      42.204 -11.070   8.050  1.00  0.00     0.171 HD
HETATM    6  H   UNL     1      42.481 -13.191   7.984  1.00  0.00     0.164 HD
ENDROOT
BRANCH   3   7
HETATM    7  C   UNL     1      43.779 -14.264   6.720  1.00  0.00     0.129 C 
BRANCH   7   8
HETATM    8  C   UNL     1      42.805 -15.448   6.699  1.00  0.00     0.059 C 
BRANCH   8   9
HETATM    9  C   UNL     1      43.192 -16.498   5.672  1.00  0.00    -0.045 A 
HETATM   10  C   UNL     1      43.133 -16.255   4.269  1.00  0.00    -0.020 A 
HETATM   11  C   UNL     1      43.489 -17.302   3.381  1.00  0.00    -0.025 A 
HETATM   12  C   UNL     1      42.744 -15.020   3.696  1.00  0.00     0.013 A 
HETATM   13  C   UNL     1      43.443 -17.094   1.991  1.00  0.00     0.012 A 
HETATM   14  C   UNL     1      43.890 -18.545   3.889  1.00  0.00     0.012 A 
HETATM   15  C   UNL     1      43.052 -15.867   1.461  1.00  0.00     0.001 A 
HETATM   16  C   UNL     1      42.703 -14.830   2.312  1.00  0.00     0.001 A 
HETATM   17  C   UNL     1      43.948 -18.773   5.262  1.00  0.00     0.001 A 
HETATM   18  C   UNL     1      43.601 -17.758   6.147  1.00  0.00     0.008 A 
ENDBRANCH   8   9
ENDBRANCH   7   8
ENDBRANCH   3   7
BRANCH   1  19
HETATM   19  C   UNL     1      43.556  -9.534   8.015  1.00  0.00     0.095 A 
HETATM   20  C   UNL     1      42.804  -8.476   7.538  1.00  0.00     0.107 A 
HETATM   21  O   UNL     1      43.430  -7.305   7.822  1.00  0.00    -0.215 OA
HETATM   22  N   UNL     1      44.597  -7.559   8.502  1.00  0.00    -0.131 NA
HETATM   23  C   UNL     1      44.678  -8.893   8.624  1.00  0.00     0.087 A 
HETATM   24  C   UNL     1      45.851  -9.447   9.339  1.00  0.00     0.075 C 
BRANCH  20  25
HETATM   25  C   UNL     1      41.522  -8.342   6.806  1.00  0.00     0.065 C 
HETATM   26  C   UNL     1      40.329  -8.521   7.730  1.00  0.00     0.012 C 
ENDBRANCH  20  25
ENDBRANCH   1  19
TORSDOF 5
ENDMDL
MODEL 7
REMARK VINA RESULT:      -8.0      1.845      3.234
REMARK  5 active torsions:
REMARK  status: ('A' for Active; 'I' for Inactive)
REMARK    1  A    between atoms: C_2  and  C_3 
REMARK    2  A    between atoms: C_8  and  N_9 
REMARK       I    between atoms: N_9  and  C_10 
REMARK       I    between atoms: C_10  and  N_11 
REMARK    3  A    between atoms: N_11  and  C_12 
REMARK    4  A    between atoms: C_12  and  C_13 
REMARK    5  A    between atoms: C_13  and  C_14 
ROOT
HETATM    1  N   UNL     1      40.767 -13.173  -1.121  1.00  0.00    -0.305 N 
HETATM    2  C   UNL     1      40.758 -13.402   0.233  1.00  0.00     0.320 C 
HETATM    3  N   UNL     1      41.687 -14.363   0.582  1.00  0.00    -0.343 N 
HETATM    4  O   UNL     1      40.070 -12.834   1.069  1.00  0.00    -0.247 OA
HETATM    5  H   UNL     1      41.503 -13.624  -1.639  1.00  0.00     0.171 HD
HETATM    6  H   UNL     1      41.933 -15.057  -0.109  1.00  0.00     0.164 HD
ENDROOT
BRANCH   3   7
HETATM    7  C   UNL     1      41.861 -14.753   1.973  1.00  0.00     0.129 C 
BRANCH   7   8
HETATM    8  C   UNL     1      41.331 -16.160   2.271  1.00  0.00     0.059 C 
BRANCH   8   9
HETATM    9  C   UNL     1      42.331 -17.004   3.042  1.00  0.00    -0.045 A 
HETATM   10  C   UNL     1      42.498 -16.893   4.453  1.00  0.00    -0.020 A 
HETATM   11  C   UNL     1      43.474 -17.702   5.089  1.00  0.00    -0.025 A 
HETATM   12  C   UNL     1      41.741 -16.022   5.273  1.00  0.00     0.013 A 
HETATM   13  C   UNL     1      43.663 -17.617   6.480  1.00  0.00     0.012 A 
HETATM   14  C   UNL     1      44.250 -18.589   4.330  1.00  0.00     0.012 A 
HETATM   15  C   UNL     1      42.902 -16.747   7.257  1.00  0.00     0.001 A 
HETATM   16  C   UNL     1      41.941 -15.949   6.654  1.00  0.00     0.001 A 
HETATM   17  C   UNL     1      44.077 -18.693   2.953  1.00  0.00     0.001 A 
HETATM   18  C   UNL     1      43.127 -17.906   2.313  1.00  0.00     0.008 A 
ENDBRANCH   8   9
ENDBRANCH   7   8
ENDBRANCH   3   7
BRANCH   1  19
HETATM   19  C   UNL     1      39.988 -12.258  -1.819  1.00  0.00     0.095 A 
HETATM   20  C   UNL     1      40.385 -10.951  -2.031  1.00  0.00     0.107 A 
HETATM   21  O   UNL     1      39.425 -10.288  -2.725  1.00  0.00    -0.215 OA
HETATM   22  N   UNL     1      38.383 -11.141  -3.000  1.00  0.00    -0.131 NA
HETATM   23  C   UNL     1      38.715 -12.324  -2.462  1.00  0.00     0.087 A 
HETATM   24  C   UNL     1      37.759 -13.445  -2.624  1.00  0.00     0.075 C 
BRANCH  20  25
HETATM   25  C   UNL     1      41.575 -10.141  -1.674  1.00  0.00     0.065 C 
HETATM   26  C   UNL     1      41.548  -9.717  -0.215  1.00  0.00     0.012 C 
ENDBRANCH  20  25
ENDBRANCH   1  19
TORSDOF 5
ENDMDL
MODEL 8
REMARK VINA RESULT:      -8.0      1.161      2.567
REMARK  5 active torsions:
REMARK  status: ('A' for Active; 'I' for Inactive)
REMARK    1  A    between atoms: C_2  and  C_3 
REMARK    2  A    between atoms: C_8  and  N_9 
REMARK       I    between atoms: N_9  and  C_10 
REMARK       I    between atoms: C_10  and  N_11 
REMARK    3  A    between atoms: N_11  and  C_12 
REMARK    4  A    between atoms: C_12  and  C_13 
REMARK    5  A    between atoms: C_13  and  C_14 
ROOT
HETATM    1  N   UNL     1      40.662 -13.500  -0.559  1.00  0.00    -0.305 N 
HETATM    2  C   UNL     1      40.600 -14.340   0.526  1.00  0.00     0.320 C 
HETATM    3  N   UNL     1      41.777 -15.047   0.677  1.00  0.00    -0.343 N 
HETATM    4  O   UNL     1      39.669 -14.459   1.310  1.00  0.00    -0.247 OA
HETATM    5  H   UNL     1      41.561 -13.422  -1.005  1.00  0.00     0.171 HD
HETATM    6  H   UNL     1      42.330 -15.226  -0.149  1.00  0.00     0.164 HD
ENDROOT
BRANCH   3   7
HETATM    7  C   UNL     1      41.939 -15.988   1.774  1.00  0.00     0.129 C 
BRANCH   7   8
HETATM    8  C   UNL     1      43.407 -16.244   2.132  1.00  0.00     0.059 C 
BRANCH   8   9
HETATM    9  C   UNL     1      43.562 -17.262   3.249  1.00  0.00    -0.045 A 
HETATM   10  C   UNL     1      43.482 -16.903   4.626  1.00  0.00    -0.020 A 
HETATM   11  C   UNL     1      43.665 -17.914   5.605  1.00  0.00    -0.025 A 
HETATM   12  C   UNL     1      43.224 -15.591   5.089  1.00  0.00     0.013 A 
HETATM   13  C   UNL     1      43.591 -17.595   6.972  1.00  0.00     0.012 A 
HETATM   14  C   UNL     1      43.916 -19.235   5.207  1.00  0.00     0.012 A 
HETATM   15  C   UNL     1      43.338 -16.291   7.392  1.00  0.00     0.001 A 
HETATM   16  C   UNL     1      43.155 -15.289   6.452  1.00  0.00     0.001 A 
HETATM   17  C   UNL     1      43.989 -19.576   3.859  1.00  0.00     0.001 A 
HETATM   18  C   UNL     1      43.815 -18.597   2.888  1.00  0.00     0.008 A 
ENDBRANCH   8   9
ENDBRANCH   7   8
ENDBRANCH   3   7
BRANCH   1  19
HETATM   19  C   UNL     1      39.677 -12.622  -0.993  1.00  0.00     0.095 A 
HETATM   20  C   UNL     1      38.980 -12.808  -2.173  1.00  0.00     0.107 A 
HETATM   21  O   UNL     1      38.096 -11.793  -2.347  1.00  0.00    -0.215 OA
HETATM   22  N   UNL     1      38.176 -10.924  -1.285  1.00  0.00    -0.131 NA
HETATM   23  C   UNL     1      39.120 -11.416  -0.468  1.00  0.00     0.087 A 
HETATM   24  C   UNL     1      39.405 -10.670   0.780  1.00  0.00     0.075 C 
BRANCH  20  25
HETATM   25  C   UNL     1      38.990 -13.825  -3.252  1.00  0.00     0.065 C 
HETATM   26  C   UNL     1      38.664 -15.210  -2.719  1.00  0.00     0.012 C 
ENDBRANCH  20  25
ENDBRANCH   1  19
TORSDOF 5
ENDMDL
MODEL 9
REMARK VINA RESULT:      -7.9      4.727      6.538
REMARK  5 active torsions:
REMARK  status: ('A' for Active; 'I' for Inactive)
REMARK    1  A    between atoms: C_2  and  C_3 
REMARK    2  A    between atoms: C_8  and  N_9 
REMARK       I    between atoms: N_9  and  C_10 
REMARK       I    between atoms: C_10  and  N_11 
REMARK    3  A    between atoms: N_11  and  C_12 
REMARK    4  A    between atoms: C_12  and  C_13 
REMARK    5  A    between atoms: C_13  and  C_14 
ROOT
HETATM    1  N   UNL     1      42.798 -11.664   5.485  1.00  0.00    -0.305 N 
HETATM    2  C   UNL     1      42.216 -12.898   5.321  1.00  0.00     0.320 C 
HETATM    3  N   UNL     1      42.594 -13.472   4.123  1.00  0.00    -0.343 N 
HETATM    4  O   UNL     1      41.485 -13.475   6.113  1.00  0.00    -0.247 OA
HETATM    5  H   UNL     1      43.490 -11.410   4.800  1.00  0.00     0.171 HD
HETATM    6  H   UNL     1      42.845 -12.858   3.362  1.00  0.00     0.164 HD
ENDROOT
BRANCH   3   7
HETATM    7  C   UNL     1      42.107 -14.791   3.749  1.00  0.00     0.129 C 
BRANCH   7   8
HETATM    8  C   UNL     1      43.233 -15.763   3.381  1.00  0.00     0.059 C 
BRANCH   8   9
HETATM    9  C   UNL     1      43.399 -16.871   4.408  1.00  0.00    -0.045 A 
HETATM   10  C   UNL     1      43.572 -18.237   4.037  1.00  0.00    -0.020 A 
HETATM   11  C   UNL     1      43.694 -19.210   5.062  1.00  0.00    -0.025 A 
HETATM   12  C   UNL     1      43.637 -18.691   2.698  1.00  0.00     0.013 A 
HETATM   13  C   UNL     1      43.867 -20.565   4.731  1.00  0.00     0.012 A 
HETATM   14  C   UNL     1      43.645 -18.819   6.408  1.00  0.00     0.012 A 
HETATM   15  C   UNL     1      43.923 -20.979   3.402  1.00  0.00     0.001 A 
HETATM   16  C   UNL     1      43.808 -20.043   2.386  1.00  0.00     0.001 A 
HETATM   17  C   UNL     1      43.479 -17.482   6.759  1.00  0.00     0.001 A 
HETATM   18  C   UNL     1      43.356 -16.516   5.768  1.00  0.00     0.008 A 
ENDBRANCH   8   9
ENDBRANCH   7   8
ENDBRANCH   3   7
BRANCH   1  19
HETATM   19  C   UNL     1      42.666 -10.817   6.577  1.00  0.00     0.095 A 
HETATM   20  C   UNL     1      43.648 -10.686   7.542  1.00  0.00     0.107 A 
HETATM   21  O   UNL     1      43.242  -9.805   8.491  1.00  0.00    -0.215 OA
HETATM   22  N   UNL     1      41.996  -9.324   8.172  1.00  0.00    -0.131 NA
HETATM   23  C   UNL     1      41.645  -9.925   7.025  1.00  0.00     0.087 A 
HETATM   24  C   UNL     1      40.329  -9.573   6.440  1.00  0.00     0.075 C 
BRANCH  20  25
HETATM   25  C   UNL     1      44.990 -11.277   7.765  1.00  0.00     0.065 C 
HETATM   26  C   UNL     1      45.827 -11.261   6.497  1.00  0.00     0.012 C 
ENDBRANCH  20  25
ENDBRANCH   1  19
TORSDOF 5
ENDMDL
MODEL 10
REMARK VINA RESULT:      -7.8      4.783      6.559
REMARK  5 active torsions:
REMARK  status: ('A' for Active; 'I' for Inactive)
REMARK    1  A    between atoms: C_2  and  C_3 
REMARK    2  A    between atoms: C_8  and  N_9 
REMARK       I    between atoms: N_9  and  C_10 
REMARK       I    between atoms: C_10  and  N_11 
REMARK    3  A    between atoms: N_11  and  C_12 
REMARK    4  A    between atoms: C_12  and  C_13 
REMARK    5  A    between atoms: C_13  and  C_14 
ROOT
HETATM    1  N   UNL     1      42.865 -11.708   5.365  1.00  0.00    -0.305 N 
HETATM    2  C   UNL     1      42.400 -13.000   5.343  1.00  0.00     0.320 C 
HETATM    3  N   UNL     1      42.475 -13.535   4.072  1.00  0.00    -0.343 N 
HETATM    4  O   UNL     1      41.997 -13.651   6.296  1.00  0.00    -0.247 OA
HETATM    5  H   UNL     1      43.297 -11.381   4.516  1.00  0.00     0.171 HD
HETATM    6  H   UNL     1      42.425 -12.901   3.287  1.00  0.00     0.164 HD
ENDROOT
BRANCH   3   7
HETATM    7  C   UNL     1      42.047 -14.903   3.818  1.00  0.00     0.129 C 
BRANCH   7   8
HETATM    8  C   UNL     1      43.205 -15.829   3.430  1.00  0.00     0.059 C 
BRANCH   8   9
HETATM    9  C   UNL     1      43.382 -16.976   4.411  1.00  0.00    -0.045 A 
HETATM   10  C   UNL     1      43.562 -18.325   3.986  1.00  0.00    -0.020 A 
HETATM   11  C   UNL     1      43.694 -19.337   4.970  1.00  0.00    -0.025 A 
HETATM   12  C   UNL     1      43.624 -18.725   2.629  1.00  0.00     0.013 A 
HETATM   13  C   UNL     1      43.874 -20.677   4.585  1.00  0.00     0.012 A 
HETATM   14  C   UNL     1      43.648 -19.001   6.331  1.00  0.00     0.012 A 
HETATM   15  C   UNL     1      43.927 -21.037   3.241  1.00  0.00     0.001 A 
HETATM   16  C   UNL     1      43.803 -20.062   2.262  1.00  0.00     0.001 A 
HETATM   17  C   UNL     1      43.475 -17.680   6.736  1.00  0.00     0.001 A 
HETATM   18  C   UNL     1      43.342 -16.676   5.784  1.00  0.00     0.008 A 
ENDBRANCH   8   9
ENDBRANCH   7   8
ENDBRANCH   3   7
BRANCH   1  19
HETATM   19  C   UNL     1      42.964 -10.875   6.471  1.00  0.00     0.095 A 
HETATM   20  C   UNL     1      41.898 -10.129   6.941  1.00  0.00     0.107 A 
HETATM   21  O   UNL     1      42.288  -9.402   8.019  1.00  0.00    -0.215 OA
HETATM   22  N   UNL     1      43.609  -9.658   8.295  1.00  0.00    -0.131 NA
HETATM   23  C   UNL     1      44.020 -10.542   7.373  1.00  0.00     0.087 A 
HETATM   24  C   UNL     1      45.425 -11.007   7.447  1.00  0.00     0.075 C 
BRANCH  20  25
HETATM   25  C   UNL     1      40.482  -9.948   6.539  1.00  0.00     0.065 C 
HETATM   26  C   UNL     1      39.591  -9.667   7.738  1.00  0.00     0.012 C 
ENDBRANCH  20  25
ENDBRANCH   1  19
TORSDOF 5
ENDMDL
