MODEL 1
REMARK VINA RESULT:      -9.9      0.000      0.000
REMARK  2 active torsions:
REMARK  status: ('A' for Active; 'I' for Inactive)
REMARK       I    between atoms: C_2  and  N_3 
REMARK       I    between atoms: C_2  and  N_21 
REMARK    1  A    between atoms: N_3  and  C_4 
REMARK    2  A    between atoms: C_7  and  C_10 
ROOT
HETATM    1  C   UNL     1      43.221 -12.091   5.707  1.00  0.00     0.036 A 
HETATM    2  C   UNL     1      41.987 -11.490   5.984  1.00  0.00     0.030 A 
HETATM    3  C   UNL     1      41.896 -10.430   6.893  1.00  0.00     0.014 A 
HETATM    4  C   UNL     1      43.040  -9.968   7.554  1.00  0.00    -0.024 A 
HETATM    5  C   UNL     1      44.266 -10.592   7.305  1.00  0.00     0.014 A 
HETATM    6  C   UNL     1      44.356 -11.644   6.387  1.00  0.00     0.030 A 
ENDROOT
BRANCH   1   7
HETATM    7  N   UNL     1      43.241 -13.138   4.763  1.00  0.00    -0.309 N 
HETATM    8  C   UNL     1      43.360 -14.493   5.030  1.00  0.00     0.327 C 
HETATM    9  O   UNL     1      43.601 -14.941   6.149  1.00  0.00    -0.247 OA
HETATM   10  N   UNL     1      43.186 -15.294   3.906  1.00  0.00    -0.299 N 
HETATM   11  C   UNL     1      42.702 -14.863   2.584  1.00  0.00     0.138 C 
HETATM   12  C   UNL     1      43.418 -16.685   3.853  1.00  0.00     0.045 A 
HETATM   13  C   UNL     1      42.441 -16.123   1.749  1.00  0.00     0.061 C 
HETATM   14  C   UNL     1      43.036 -17.189   2.609  1.00  0.00    -0.030 A 
HETATM   15  C   UNL     1      43.178 -18.535   2.301  1.00  0.00     0.009 A 
HETATM   16  C   UNL     1      43.727 -19.381   3.264  1.00  0.00     0.001 A 
HETATM   17  C   UNL     1      44.114 -18.877   4.514  1.00  0.00     0.002 A 
HETATM   18  C   UNL     1      43.958 -17.521   4.816  1.00  0.00     0.030 A 
HETATM   19  H   UNL     1      43.424 -12.868   3.811  1.00  0.00     0.170 HD
ENDBRANCH   1   7
BRANCH   4  20
HETATM   20  C   UNL     1      42.966  -8.826   8.488  1.00  0.00     0.001 A 
HETATM   21  C   UNL     1      42.836  -7.604   7.941  1.00  0.00     0.104 A 
HETATM   22  N   UNL     1      42.730  -6.466   8.695  1.00  0.00    -0.332 N 
HETATM   23  C   UNL     1      42.730  -6.439  10.071  1.00  0.00     0.256 A 
HETATM   24  H   UNL     1      42.630  -5.564   8.244  1.00  0.00     0.168 HD
HETATM   25  O   UNL     1      42.626  -5.389  10.695  1.00  0.00    -0.267 OA
HETATM   26  C   UNL     1      42.866  -7.751  10.749  1.00  0.00     0.043 A 
HETATM   27  C   UNL     1      42.874  -7.809  12.147  1.00  0.00     0.018 A 
HETATM   28  C   UNL     1      42.988  -8.915   9.972  1.00  0.00    -0.008 A 
HETATM   29  C   UNL     1      43.011  -9.038  12.789  1.00  0.00     0.001 A 
HETATM   30  C   UNL     1      43.143 -10.203  12.034  1.00  0.00     0.001 A 
HETATM   31  C   UNL     1      43.135 -10.143  10.637  1.00  0.00     0.013 A 
ENDBRANCH   4  20
TORSDOF 2
ENDMDL
MODEL 2
REMARK VINA RESULT:      -9.3      6.486     10.148
REMARK  2 active torsions:
REMARK  status: ('A' for Active; 'I' for Inactive)
REMARK       I    between atoms: C_2  and  N_3 
REMARK       I    between atoms: C_2  and  N_21 
REMARK    1  A    between atoms: N_3  and  C_4 
REMARK    2  A    between atoms: C_7  and  C_10 
ROOT
HETATM    1  C   UNL     1      40.243 -13.860   0.567  1.00  0.00     0.036 A 
HETATM    2  C   UNL     1      41.408 -13.469   1.237  1.00  0.00     0.030 A 
HETATM    3  C   UNL     1      42.127 -14.384   2.013  1.00  0.00     0.014 A 
HETATM    4  C   UNL     1      41.677 -15.703   2.146  1.00  0.00    -0.024 A 
HETATM    5  C   UNL     1      40.493 -16.084   1.507  1.00  0.00     0.014 A 
HETATM    6  C   UNL     1      39.783 -15.170   0.722  1.00  0.00     0.030 A 
ENDROOT
BRANCH   1   7
HETATM    7  N   UNL     1      39.582 -12.891  -0.217  1.00  0.00    -0.309 N 
HETATM    8  C   UNL     1      40.108 -12.199  -1.297  1.00  0.00     0.327 C 
HETATM    9  O   UNL     1      41.291 -12.258  -1.624  1.00  0.00    -0.247 OA
HETATM   10  N   UNL     1      39.166 -11.427  -1.968  1.00  0.00    -0.299 N 
HETATM   11  C   UNL     1      37.706 -11.452  -1.774  1.00  0.00     0.138 C 
HETATM   12  C   UNL     1      39.453 -10.497  -2.990  1.00  0.00     0.045 A 
HETATM   13  C   UNL     1      37.072 -10.623  -2.898  1.00  0.00     0.061 C 
HETATM   14  C   UNL     1      38.269  -9.984  -3.522  1.00  0.00    -0.030 A 
HETATM   15  C   UNL     1      38.283  -9.037  -4.535  1.00  0.00     0.009 A 
HETATM   16  C   UNL     1      39.517  -8.593  -5.010  1.00  0.00     0.001 A 
HETATM   17  C   UNL     1      40.708  -9.104  -4.476  1.00  0.00     0.002 A 
HETATM   18  C   UNL     1      40.681 -10.064  -3.461  1.00  0.00     0.030 A 
HETATM   19  H   UNL     1      38.748 -12.497   0.183  1.00  0.00     0.170 HD
ENDBRANCH   1   7
BRANCH   4  20
HETATM   20  C   UNL     1      42.444 -16.690   2.933  1.00  0.00     0.001 A 
HETATM   21  C   UNL     1      43.099 -17.639   2.239  1.00  0.00     0.104 A 
HETATM   22  N   UNL     1      43.867 -18.598   2.844  1.00  0.00    -0.332 N 
HETATM   23  C   UNL     1      44.069 -18.693   4.202  1.00  0.00     0.256 A 
HETATM   24  H   UNL     1      44.347 -19.293   2.285  1.00  0.00     0.168 HD
HETATM   25  O   UNL     1      44.773 -19.570   4.689  1.00  0.00    -0.267 OA
HETATM   26  C   UNL     1      43.382 -17.677   5.036  1.00  0.00     0.043 A 
HETATM   27  C   UNL     1      43.536 -17.705   6.427  1.00  0.00     0.018 A 
HETATM   28  C   UNL     1      42.584 -16.703   4.412  1.00  0.00    -0.008 A 
HETATM   29  C   UNL     1      42.886 -16.758   7.216  1.00  0.00     0.001 A 
HETATM   30  C   UNL     1      42.082 -15.790   6.615  1.00  0.00     0.001 A 
HETATM   31  C   UNL     1      41.929 -15.764   5.225  1.00  0.00     0.013 A 
ENDBRANCH   4  20
TORSDOF 2
ENDMDL
MODEL 3
REMARK VINA RESULT:      -9.1     18.659     21.039
REMARK  2 active torsions:
REMARK  status: ('A' for Active; 'I' for Inactive)
REMARK       I    between atoms: C_2  and  N_3 
REMARK       I    between atoms: C_2  and  N_21 
REMARK    1  A    between atoms: N_3  and  C_4 
REMARK    2  A    between atoms: C_7  and  C_10 
ROOT
HETATM    1  C   UNL     1      41.042 -31.508   2.199  1.00  0.00     0.036 A 
HETATM    2  C   UNL     1      41.963 -32.214   1.415  1.00  0.00     0.030 A 
HETATM    3  C   UNL     1      43.063 -31.562   0.847  1.00  0.00     0.014 A 
HETATM    4  C   UNL     1      43.246 -30.189   1.039  1.00  0.00    -0.024 A 
HETATM    5  C   UNL     1      42.306 -29.477   1.791  1.00  0.00     0.014 A 
HETATM    6  C   UNL     1      41.213 -30.133   2.368  1.00  0.00     0.030 A 
ENDROOT
BRANCH   1   7
HETATM    7  N   UNL     1      39.970 -32.234   2.760  1.00  0.00    -0.309 N 
HETATM    8  C   UNL     1      39.711 -32.421   4.109  1.00  0.00     0.327 C 
HETATM    9  O   UNL     1      40.486 -32.075   4.998  1.00  0.00    -0.247 OA
HETATM   10  N   UNL     1      38.493 -33.045   4.355  1.00  0.00    -0.299 N 
HETATM   11  C   UNL     1      37.424 -33.309   3.376  1.00  0.00     0.138 C 
HETATM   12  C   UNL     1      38.055 -33.509   5.613  1.00  0.00     0.045 A 
HETATM   13  C   UNL     1      36.188 -33.783   4.151  1.00  0.00     0.061 C 
HETATM   14  C   UNL     1      36.743 -33.978   5.524  1.00  0.00    -0.030 A 
HETATM   15  C   UNL     1      36.086 -34.502   6.628  1.00  0.00     0.009 A 
HETATM   16  C   UNL     1      36.773 -34.563   7.840  1.00  0.00     0.001 A 
HETATM   17  C   UNL     1      38.092 -34.095   7.933  1.00  0.00     0.002 A 
HETATM   18  C   UNL     1      38.740 -33.561   6.816  1.00  0.00     0.030 A 
HETATM   19  H   UNL     1      39.492 -32.863   2.137  1.00  0.00     0.170 HD
ENDBRANCH   1   7
BRANCH   4  20
HETATM   20  C   UNL     1      44.422 -29.494   0.475  1.00  0.00     0.001 A 
HETATM   21  C   UNL     1      45.389 -29.141   1.342  1.00  0.00     0.104 A 
HETATM   22  N   UNL     1      46.541 -28.516   0.947  1.00  0.00    -0.332 N 
HETATM   23  C   UNL     1      46.847 -28.195  -0.355  1.00  0.00     0.256 A 
HETATM   24  H   UNL     1      47.247 -28.270   1.631  1.00  0.00     0.168 HD
HETATM   25  O   UNL     1      47.899 -27.639  -0.652  1.00  0.00    -0.267 OA
HETATM   26  C   UNL     1      45.830 -28.556  -1.372  1.00  0.00     0.043 A 
HETATM   27  C   UNL     1      46.065 -28.263  -2.721  1.00  0.00     0.018 A 
HETATM   28  C   UNL     1      44.642 -29.186  -0.962  1.00  0.00    -0.008 A 
HETATM   29  C   UNL     1      45.109 -28.592  -3.679  1.00  0.00     0.001 A 
HETATM   30  C   UNL     1      43.921 -29.208  -3.288  1.00  0.00     0.001 A 
HETATM   31  C   UNL     1      43.687 -29.500  -1.941  1.00  0.00     0.013 A 
ENDBRANCH   4  20
TORSDOF 2
ENDMDL
MODEL 4
REMARK VINA RESULT:      -9.1      1.887      9.967
REMARK  2 active torsions:
REMARK  status: ('A' for Active; 'I' for Inactive)
REMARK       I    between atoms: C_2  and  N_3 
REMARK       I    between atoms: C_2  and  N_21 
REMARK    1  A    between atoms: N_3  and  C_4 
REMARK    2  A    between atoms: C_7  and  C_10 
ROOT
HETATM    1  C   UNL     1      42.446 -10.325   6.907  1.00  0.00     0.036 A 
HETATM    2  C   UNL     1      41.317 -10.936   6.346  1.00  0.00     0.030 A 
HETATM    3  C   UNL     1      41.454 -11.991   5.436  1.00  0.00     0.014 A 
HETATM    4  C   UNL     1      42.725 -12.436   5.059  1.00  0.00    -0.024 A 
HETATM    5  C   UNL     1      43.853 -11.802   5.590  1.00  0.00     0.014 A 
HETATM    6  C   UNL     1      43.713 -10.755   6.508  1.00  0.00     0.030 A 
ENDROOT
BRANCH   1   7
HETATM    7  N   UNL     1      42.233  -9.285   7.834  1.00  0.00    -0.309 N 
HETATM    8  C   UNL     1      42.658  -9.249   9.153  1.00  0.00     0.327 C 
HETATM    9  O   UNL     1      43.175 -10.209   9.721  1.00  0.00    -0.247 OA
HETATM   10  N   UNL     1      42.438  -8.023   9.771  1.00  0.00    -0.299 N 
HETATM   11  C   UNL     1      42.017  -6.771   9.119  1.00  0.00     0.138 C 
HETATM   12  C   UNL     1      42.616  -7.759  11.145  1.00  0.00     0.045 A 
HETATM   13  C   UNL     1      42.147  -5.641  10.148  1.00  0.00     0.061 C 
HETATM   14  C   UNL     1      42.417  -6.401  11.405  1.00  0.00    -0.030 A 
HETATM   15  C   UNL     1      42.522  -5.889  12.690  1.00  0.00     0.009 A 
HETATM   16  C   UNL     1      42.822  -6.768  13.731  1.00  0.00     0.001 A 
HETATM   17  C   UNL     1      43.019  -8.132  13.474  1.00  0.00     0.002 A 
HETATM   18  C   UNL     1      42.919  -8.635  12.174  1.00  0.00     0.030 A 
HETATM   19  H   UNL     1      41.513  -8.624   7.596  1.00  0.00     0.170 HD
ENDBRANCH   1   7
BRANCH   4  20
HETATM   20  C   UNL     1      42.885 -13.571   4.127  1.00  0.00     0.001 A 
HETATM   21  C   UNL     1      42.890 -13.280   2.814  1.00  0.00     0.104 A 
HETATM   22  N   UNL     1      43.057 -14.235   1.847  1.00  0.00    -0.332 N 
HETATM   23  C   UNL     1      43.249 -15.574   2.098  1.00  0.00     0.256 A 
HETATM   24  H   UNL     1      43.057 -13.973   0.868  1.00  0.00     0.168 HD
HETATM   25  O   UNL     1      43.399 -16.385   1.191  1.00  0.00    -0.267 OA
HETATM   26  C   UNL     1      43.261 -15.974   3.526  1.00  0.00     0.043 A 
HETATM   27  C   UNL     1      43.451 -17.319   3.866  1.00  0.00     0.018 A 
HETATM   28  C   UNL     1      43.076 -14.993   4.515  1.00  0.00    -0.008 A 
HETATM   29  C   UNL     1      43.454 -17.702   5.205  1.00  0.00     0.001 A 
HETATM   30  C   UNL     1      43.263 -16.743   6.200  1.00  0.00     0.001 A 
HETATM   31  C   UNL     1      43.072 -15.401   5.858  1.00  0.00     0.013 A 
ENDBRANCH   4  20
TORSDOF 2
ENDMDL
MODEL 5
REMARK VINA RESULT:      -9.0      6.669      9.542
REMARK  2 active torsions:
REMARK  status: ('A' for Active; 'I' for Inactive)
REMARK       I    between atoms: C_2  and  N_3 
REMARK       I    between atoms: C_2  and  N_21 
REMARK    1  A    between atoms: N_3  and  C_4 
REMARK    2  A    between atoms: C_7  and  C_10 
ROOT
HETATM    1  C   UNL     1      40.979 -14.026   0.567  1.00  0.00     0.036 A 
HETATM    2  C   UNL     1      39.962 -14.535  -0.249  1.00  0.00     0.030 A 
HETATM    3  C   UNL     1      39.140 -13.674  -0.986  1.00  0.00     0.014 A 
HETATM    4  C   UNL     1      39.314 -12.288  -0.900  1.00  0.00    -0.024 A 
HETATM    5  C   UNL     1      40.305 -11.779  -0.056  1.00  0.00     0.014 A 
HETATM    6  C   UNL     1      41.133 -12.641   0.671  1.00  0.00     0.030 A 
ENDROOT
BRANCH   1   7
HETATM    7  N   UNL     1      41.784 -14.952   1.263  1.00  0.00    -0.309 N 
HETATM    8  C   UNL     1      41.677 -15.304   2.600  1.00  0.00     0.327 C 
HETATM    9  O   UNL     1      40.928 -14.733   3.389  1.00  0.00    -0.247 OA
HETATM   10  N   UNL     1      42.506 -16.361   2.959  1.00  0.00    -0.299 N 
HETATM   11  C   UNL     1      43.276 -17.226   2.049  1.00  0.00     0.138 C 
HETATM   12  C   UNL     1      42.725 -16.813   4.278  1.00  0.00     0.045 A 
HETATM   13  C   UNL     1      43.832 -18.393   2.874  1.00  0.00     0.061 C 
HETATM   14  C   UNL     1      43.520 -17.961   4.268  1.00  0.00    -0.030 A 
HETATM   15  C   UNL     1      43.891 -18.592   5.447  1.00  0.00     0.009 A 
HETATM   16  C   UNL     1      43.460 -18.045   6.656  1.00  0.00     0.001 A 
HETATM   17  C   UNL     1      42.664 -16.890   6.669  1.00  0.00     0.002 A 
HETATM   18  C   UNL     1      42.290 -16.268   5.474  1.00  0.00     0.030 A 
HETATM   19  H   UNL     1      42.653 -15.199   0.820  1.00  0.00     0.170 HD
ENDBRANCH   1   7
BRANCH   4  20
HETATM   20  C   UNL     1      38.478 -11.369  -1.700  1.00  0.00     0.001 A 
HETATM   21  C   UNL     1      38.796 -11.239  -3.001  1.00  0.00     0.104 A 
HETATM   22  N   UNL     1      38.087 -10.440  -3.858  1.00  0.00    -0.332 N 
HETATM   23  C   UNL     1      36.981  -9.703  -3.501  1.00  0.00     0.256 A 
HETATM   24  H   UNL     1      38.358 -10.373  -4.832  1.00  0.00     0.168 HD
HETATM   25  O   UNL     1      36.381  -9.009  -4.313  1.00  0.00    -0.267 OA
HETATM   26  C   UNL     1      36.564  -9.798  -2.081  1.00  0.00     0.043 A 
HETATM   27  C   UNL     1      35.448  -9.078  -1.639  1.00  0.00     0.018 A 
HETATM   28  C   UNL     1      37.303 -10.608  -1.202  1.00  0.00    -0.008 A 
HETATM   29  C   UNL     1      35.057  -9.157  -0.304  1.00  0.00     0.001 A 
HETATM   30  C   UNL     1      35.784  -9.948   0.585  1.00  0.00     0.001 A 
HETATM   31  C   UNL     1      36.900 -10.665   0.141  1.00  0.00     0.013 A 
ENDBRANCH   4  20
TORSDOF 2
ENDMDL
MODEL 6
REMARK VINA RESULT:      -9.0      2.230     10.192
REMARK  2 active torsions:
REMARK  status: ('A' for Active; 'I' for Inactive)
REMARK       I    between atoms: C_2  and  N_3 
REMARK       I    between atoms: C_2  and  N_21 
REMARK    1  A    between atoms: N_3  and  C_4 
REMARK    2  A    between atoms: C_7  and  C_10 
ROOT
HETATM    1  C   UNL     1      42.361 -11.310   6.398  1.00  0.00     0.036 A 
HETATM    2  C   UNL     1      41.320 -12.177   6.044  1.00  0.00     0.030 A 
HETATM    3  C   UNL     1      41.564 -13.540   5.844  1.00  0.00     0.014 A 
HETATM    4  C   UNL     1      42.859 -14.052   5.977  1.00  0.00    -0.024 A 
HETATM    5  C   UNL     1      43.905 -13.180   6.295  1.00  0.00     0.014 A 
HETATM    6  C   UNL     1      43.657 -11.819   6.505  1.00  0.00     0.030 A 
ENDROOT
BRANCH   1   7
HETATM    7  N   UNL     1      42.039  -9.952   6.607  1.00  0.00    -0.309 N 
HETATM    8  C   UNL     1      42.272  -9.212   7.755  1.00  0.00     0.327 C 
HETATM    9  O   UNL     1      42.681  -9.705   8.804  1.00  0.00    -0.247 OA
HETATM   10  N   UNL     1      41.991  -7.858   7.605  1.00  0.00    -0.299 N 
HETATM   11  C   UNL     1      41.695  -7.154   6.345  1.00  0.00     0.138 C 
HETATM   12  C   UNL     1      41.975  -6.908   8.647  1.00  0.00     0.045 A 
HETATM   13  C   UNL     1      41.699  -5.649   6.638  1.00  0.00     0.061 C 
HETATM   14  C   UNL     1      41.769  -5.628   8.130  1.00  0.00    -0.030 A 
HETATM   15  C   UNL     1      41.699  -4.517   8.958  1.00  0.00     0.009 A 
HETATM   16  C   UNL     1      41.827  -4.707  10.334  1.00  0.00     0.001 A 
HETATM   17  C   UNL     1      42.031  -5.992  10.857  1.00  0.00     0.002 A 
HETATM   18  C   UNL     1      42.109  -7.102  10.012  1.00  0.00     0.030 A 
HETATM   19  H   UNL     1      41.375  -9.555   5.964  1.00  0.00     0.170 HD
ENDBRANCH   1   7
BRANCH   4  20
HETATM   20  C   UNL     1      43.125 -15.495   5.805  1.00  0.00     0.001 A 
HETATM   21  C   UNL     1      43.258 -16.224   6.928  1.00  0.00     0.104 A 
HETATM   22  N   UNL     1      43.480 -17.575   6.909  1.00  0.00    -0.332 N 
HETATM   23  C   UNL     1      43.577 -18.333   5.765  1.00  0.00     0.256 A 
HETATM   24  H   UNL     1      43.570 -18.089   7.778  1.00  0.00     0.168 HD
HETATM   25  O   UNL     1      43.772 -19.543   5.807  1.00  0.00    -0.267 OA
HETATM   26  C   UNL     1      43.438 -17.600   4.483  1.00  0.00     0.043 A 
HETATM   27  C   UNL     1      43.525 -18.299   3.273  1.00  0.00     0.018 A 
HETATM   28  C   UNL     1      43.223 -16.211   4.506  1.00  0.00    -0.008 A 
HETATM   29  C   UNL     1      43.403 -17.614   2.066  1.00  0.00     0.001 A 
HETATM   30  C   UNL     1      43.200 -16.235   2.071  1.00  0.00     0.001 A 
HETATM   31  C   UNL     1      43.114 -15.538   3.280  1.00  0.00     0.013 A 
ENDBRANCH   4  20
TORSDOF 2
ENDMDL
MODEL 7
REMARK VINA RESULT:      -8.8      1.136      2.603
REMARK  2 active torsions:
REMARK  status: ('A' for Active; 'I' for Inactive)
REMARK       I    between atoms: C_2  and  N_3 
REMARK       I    between atoms: C_2  and  N_21 
REMARK    1  A    between atoms: N_3  and  C_4 
REMARK    2  A    between atoms: C_7  and  C_10 
ROOT
HETATM    1  C   UNL     1      42.981 -12.308   5.604  1.00  0.00     0.036 A 
HETATM    2  C   UNL     1      44.114 -11.769   6.225  1.00  0.00     0.030 A 
HETATM    3  C   UNL     1      43.997 -10.697   7.117  1.00  0.00     0.014 A 
HETATM    4  C   UNL     1      42.744 -10.136   7.384  1.00  0.00    -0.024 A 
HETATM    5  C   UNL     1      41.617 -10.649   6.734  1.00  0.00     0.014 A 
HETATM    6  C   UNL     1      41.735 -11.729   5.852  1.00  0.00     0.030 A 
ENDROOT
BRANCH   1   7
HETATM    7  N   UNL     1      43.171 -13.404   4.735  1.00  0.00    -0.309 N 
HETATM    8  C   UNL     1      43.242 -14.742   5.091  1.00  0.00     0.327 C 
HETATM    9  O   UNL     1      43.279 -15.128   6.257  1.00  0.00    -0.247 OA
HETATM   10  N   UNL     1      43.273 -15.601   3.998  1.00  0.00    -0.299 N 
HETATM   11  C   UNL     1      43.032 -15.245   2.589  1.00  0.00     0.138 C 
HETATM   12  C   UNL     1      43.512 -16.990   4.061  1.00  0.00     0.045 A 
HETATM   13  C   UNL     1      42.927 -16.549   1.789  1.00  0.00     0.061 C 
HETATM   14  C   UNL     1      43.359 -17.563   2.797  1.00  0.00    -0.030 A 
HETATM   15  C   UNL     1      43.556 -18.921   2.591  1.00  0.00     0.009 A 
HETATM   16  C   UNL     1      43.924 -19.711   3.681  1.00  0.00     0.001 A 
HETATM   17  C   UNL     1      44.080 -19.138   4.951  1.00  0.00     0.002 A 
HETATM   18  C   UNL     1      43.872 -17.770   5.148  1.00  0.00     0.030 A 
HETATM   19  H   UNL     1      43.522 -13.182   3.819  1.00  0.00     0.170 HD
ENDBRANCH   1   7
BRANCH   4  20
HETATM   20  C   UNL     1      42.600  -9.027   8.350  1.00  0.00     0.001 A 
HETATM   21  C   UNL     1      42.903  -9.299   9.632  1.00  0.00     0.104 A 
HETATM   22  N   UNL     1      42.837  -8.355  10.622  1.00  0.00    -0.332 N 
HETATM   23  C   UNL     1      42.476  -7.042  10.425  1.00  0.00     0.256 A 
HETATM   24  H   UNL     1      43.078  -8.600  11.575  1.00  0.00     0.168 HD
HETATM   25  O   UNL     1      42.440  -6.238  11.348  1.00  0.00    -0.267 OA
HETATM   26  C   UNL     1      42.130  -6.663   9.033  1.00  0.00     0.043 A 
HETATM   27  C   UNL     1      41.752  -5.345   8.749  1.00  0.00     0.018 A 
HETATM   28  C   UNL     1      42.186  -7.638   8.022  1.00  0.00    -0.008 A 
HETATM   29  C   UNL     1      41.418  -4.986   7.445  1.00  0.00     0.001 A 
HETATM   30  C   UNL     1      41.458  -5.943   6.431  1.00  0.00     0.001 A 
HETATM   31  C   UNL     1      41.835  -7.258   6.717  1.00  0.00     0.013 A 
ENDBRANCH   4  20
TORSDOF 2
ENDMDL
MODEL 8
REMARK VINA RESULT:      -8.7      4.235      7.609
REMARK  2 active torsions:
REMARK  status: ('A' for Active; 'I' for Inactive)
REMARK       I    between atoms: C_2  and  N_3 
REMARK       I    between atoms: C_2  and  N_21 
REMARK    1  A    between atoms: N_3  and  C_4 
REMARK    2  A    between atoms: C_7  and  C_10 
ROOT
HETATM    1  C   UNL     1      43.130  -8.958  12.158  1.00  0.00     0.036 A 
HETATM    2  C   UNL     1      43.295  -7.571  12.261  1.00  0.00     0.030 A 
HETATM    3  C   UNL     1      42.795  -6.873  13.366  1.00  0.00     0.014 A 
HETATM    4  C   UNL     1      42.105  -7.553  14.376  1.00  0.00    -0.024 A 
HETATM    5  C   UNL     1      41.908  -8.932  14.255  1.00  0.00     0.014 A 
HETATM    6  C   UNL     1      42.419  -9.629  13.155  1.00  0.00     0.030 A 
ENDROOT
BRANCH   1   7
HETATM    7  N   UNL     1      43.680  -9.599  11.028  1.00  0.00    -0.309 N 
HETATM    8  C   UNL     1      43.110  -9.692   9.768  1.00  0.00     0.327 C 
HETATM    9  O   UNL     1      41.963  -9.328   9.519  1.00  0.00    -0.247 OA
HETATM   10  N   UNL     1      43.961 -10.245   8.817  1.00  0.00    -0.299 N 
HETATM   11  C   UNL     1      45.400 -10.519   8.976  1.00  0.00     0.138 C 
HETATM   12  C   UNL     1      43.591 -10.611   7.506  1.00  0.00     0.045 A 
HETATM   13  C   UNL     1      45.959 -10.889   7.596  1.00  0.00     0.061 C 
HETATM   14  C   UNL     1      44.713 -11.025   6.786  1.00  0.00    -0.030 A 
HETATM   15  C   UNL     1      44.609 -11.451   5.469  1.00  0.00     0.009 A 
HETATM   16  C   UNL     1      43.347 -11.468   4.876  1.00  0.00     0.001 A 
HETATM   17  C   UNL     1      42.217 -11.055   5.597  1.00  0.00     0.002 A 
HETATM   18  C   UNL     1      42.336 -10.621   6.920  1.00  0.00     0.030 A 
HETATM   19  H   UNL     1      44.431 -10.243  11.210  1.00  0.00     0.170 HD
ENDBRANCH   1   7
BRANCH   4  20
HETATM   20  C   UNL     1      41.603  -6.836  15.566  1.00  0.00     0.001 A 
HETATM   21  C   UNL     1      42.388  -6.855  16.659  1.00  0.00     0.104 A 
HETATM   22  N   UNL     1      42.053  -6.209  17.819  1.00  0.00    -0.332 N 
HETATM   23  C   UNL     1      40.908  -5.467  17.996  1.00  0.00     0.256 A 
HETATM   24  H   UNL     1      42.674  -6.245  18.619  1.00  0.00     0.168 HD
HETATM   25  O   UNL     1      40.662  -4.904  19.057  1.00  0.00    -0.267 OA
HETATM   26  C   UNL     1      39.992  -5.395  16.832  1.00  0.00     0.043 A 
HETATM   27  C   UNL     1      38.804  -4.660  16.931  1.00  0.00     0.018 A 
HETATM   28  C   UNL     1      40.332  -6.070  15.648  1.00  0.00    -0.008 A 
HETATM   29  C   UNL     1      37.936  -4.596  15.843  1.00  0.00     0.001 A 
HETATM   30  C   UNL     1      38.253  -5.268  14.664  1.00  0.00     0.001 A 
HETATM   31  C   UNL     1      39.439  -6.002  14.567  1.00  0.00     0.013 A 
ENDBRANCH   4  20
TORSDOF 2
ENDMDL
MODEL 9
REMARK VINA RESULT:      -8.4     18.461     20.875
REMARK  2 active torsions:
REMARK  status: ('A' for Active; 'I' for Inactive)
REMARK       I    between atoms: C_2  and  N_3 
REMARK       I    between atoms: C_2  and  N_21 
REMARK    1  A    between atoms: N_3  and  C_4 
REMARK    2  A    between atoms: C_7  and  C_10 
ROOT
HETATM    1  C   UNL     1      40.839 -31.870   2.154  1.00  0.00     0.036 A 
HETATM    2  C   UNL     1      41.019 -30.502   2.393  1.00  0.00     0.030 A 
HETATM    3  C   UNL     1      42.078 -29.807   1.797  1.00  0.00     0.014 A 
HETATM    4  C   UNL     1      42.984 -30.478   0.968  1.00  0.00    -0.024 A 
HETATM    5  C   UNL     1      42.825 -31.852   0.760  1.00  0.00     0.014 A 
HETATM    6  C   UNL     1      41.759 -32.542   1.347  1.00  0.00     0.030 A 
ENDROOT
BRANCH   1   7
HETATM    7  N   UNL     1      39.737 -32.501   2.769  1.00  0.00    -0.309 N 
HETATM    8  C   UNL     1      39.557 -32.719   4.126  1.00  0.00     0.327 C 
HETATM    9  O   UNL     1      40.427 -32.497   4.965  1.00  0.00    -0.247 OA
HETATM   10  N   UNL     1      38.298 -33.219   4.442  1.00  0.00    -0.299 N 
HETATM   11  C   UNL     1      37.139 -33.324   3.538  1.00  0.00     0.138 C 
HETATM   12  C   UNL     1      37.903 -33.688   5.712  1.00  0.00     0.045 A 
HETATM   13  C   UNL     1      35.918 -33.696   4.387  1.00  0.00     0.061 C 
HETATM   14  C   UNL     1      36.545 -34.010   5.706  1.00  0.00    -0.030 A 
HETATM   15  C   UNL     1      35.916 -34.509   6.838  1.00  0.00     0.009 A 
HETATM   16  C   UNL     1      36.677 -34.696   7.991  1.00  0.00     0.001 A 
HETATM   17  C   UNL     1      38.043 -34.376   8.000  1.00  0.00     0.002 A 
HETATM   18  C   UNL     1      38.663 -33.867   6.856  1.00  0.00     0.030 A 
HETATM   19  H   UNL     1      39.149 -33.047   2.162  1.00  0.00     0.170 HD
ENDBRANCH   1   7
BRANCH   4  20
HETATM   20  C   UNL     1      44.085 -29.751   0.304  1.00  0.00     0.001 A 
HETATM   21  C   UNL     1      43.911 -29.445  -0.995  1.00  0.00     0.104 A 
HETATM   22  N   UNL     1      44.842 -28.751  -1.721  1.00  0.00    -0.332 N 
HETATM   23  C   UNL     1      46.033 -28.282  -1.216  1.00  0.00     0.256 A 
HETATM   24  H   UNL     1      44.670 -28.537  -2.696  1.00  0.00     0.168 HD
HETATM   25  O   UNL     1      46.827 -27.660  -1.911  1.00  0.00    -0.267 OA
HETATM   26  C   UNL     1      46.296 -28.577   0.213  1.00  0.00     0.043 A 
HETATM   27  C   UNL     1      47.486 -28.134   0.803  1.00  0.00     0.018 A 
HETATM   28  C   UNL     1      45.344 -29.301   0.952  1.00  0.00    -0.008 A 
HETATM   29  C   UNL     1      47.743 -28.416   2.143  1.00  0.00     0.001 A 
HETATM   30  C   UNL     1      46.814 -29.142   2.888  1.00  0.00     0.001 A 
HETATM   31  C   UNL     1      45.626 -29.584   2.297  1.00  0.00     0.013 A 
ENDBRANCH   4  20
TORSDOF 2
ENDMDL
MODEL 10
REMARK VINA RESULT:      -8.4      2.494      2.787
REMARK  2 active torsions:
REMARK  status: ('A' for Active; 'I' for Inactive)
REMARK       I    between atoms: C_2  and  N_3 
REMARK       I    between atoms: C_2  and  N_21 
REMARK    1  A    between atoms: N_3  and  C_4 
REMARK    2  A    between atoms: C_7  and  C_10 
ROOT
HETATM    1  C   UNL     1      41.074 -11.598   5.662  1.00  0.00     0.036 A 
HETATM    2  C   UNL     1      41.944 -10.591   6.099  1.00  0.00     0.030 A 
HETATM    3  C   UNL     1      41.496  -9.588   6.966  1.00  0.00     0.014 A 
HETATM    4  C   UNL     1      40.163  -9.568   7.392  1.00  0.00    -0.024 A 
HETATM    5  C   UNL     1      39.286 -10.552   6.926  1.00  0.00     0.014 A 
HETATM    6  C   UNL     1      39.739 -11.561   6.069  1.00  0.00     0.030 A 
ENDROOT
BRANCH   1   7
HETATM    7  N   UNL     1      41.600 -12.590   4.808  1.00  0.00    -0.309 N 
HETATM    8  C   UNL     1      41.961 -13.882   5.160  1.00  0.00     0.327 C 
HETATM    9  O   UNL     1      41.986 -14.281   6.322  1.00  0.00    -0.247 OA
HETATM   10  N   UNL     1      42.296 -14.677   4.070  1.00  0.00    -0.299 N 
HETATM   11  C   UNL     1      42.103 -14.349   2.647  1.00  0.00     0.138 C 
HETATM   12  C   UNL     1      42.858 -15.969   4.145  1.00  0.00     0.045 A 
HETATM   13  C   UNL     1      42.387 -15.617   1.832  1.00  0.00     0.061 C 
HETATM   14  C   UNL     1      42.962 -16.525   2.869  1.00  0.00    -0.030 A 
HETATM   15  C   UNL     1      43.498 -17.790   2.674  1.00  0.00     0.009 A 
HETATM   16  C   UNL     1      43.948 -18.498   3.788  1.00  0.00     0.001 A 
HETATM   17  C   UNL     1      43.848 -17.941   5.071  1.00  0.00     0.002 A 
HETATM   18  C   UNL     1      43.298 -16.670   5.256  1.00  0.00     0.030 A 
HETATM   19  H   UNL     1      41.967 -12.264   3.929  1.00  0.00     0.170 HD
ENDBRANCH   1   7
BRANCH   4  20
HETATM   20  C   UNL     1      39.684  -8.537   8.336  1.00  0.00     0.001 A 
HETATM   21  C   UNL     1      39.211  -7.398   7.798  1.00  0.00     0.104 A 
HETATM   22  N   UNL     1      38.712  -6.374   8.558  1.00  0.00    -0.332 N 
HETATM   23  C   UNL     1      38.626  -6.394   9.931  1.00  0.00     0.256 A 
HETATM   24  H   UNL     1      38.362  -5.534   8.113  1.00  0.00     0.168 HD
HETATM   25  O   UNL     1      38.165  -5.449  10.561  1.00  0.00    -0.267 OA
HETATM   26  C   UNL     1      39.126  -7.620  10.599  1.00  0.00     0.043 A 
HETATM   27  C   UNL     1      39.072  -7.718  11.994  1.00  0.00     0.018 A 
HETATM   28  C   UNL     1      39.648  -8.663   9.816  1.00  0.00    -0.008 A 
HETATM   29  C   UNL     1      39.549  -8.864  12.628  1.00  0.00     0.001 A 
HETATM   30  C   UNL     1      40.080  -9.905  11.867  1.00  0.00     0.001 A 
HETATM   31  C   UNL     1      40.133  -9.805  10.473  1.00  0.00     0.013 A 
ENDBRANCH   4  20
TORSDOF 2
ENDMDL
