MODEL 1
REMARK VINA RESULT:      -7.5      0.000      0.000
REMARK  6 active torsions:
REMARK  status: ('A' for Active; 'I' for Inactive)
REMARK    1  A    between atoms: C_2  and  C_3 
REMARK    2  A    between atoms: C_7  and  C_8 
REMARK       I    between atoms: C_8  and  N_9 
REMARK    3  A    between atoms: N_9  and  C_10 
REMARK    4  A    between atoms: C_11  and  O_12 
REMARK    5  A    between atoms: O_12  and  C_13 
REMARK    6  A    between atoms: C_13  and  C_14 
ROOT
HETATM    1  C   UNL     1      43.715 -16.805   4.303  1.00  0.00     0.068 A 
HETATM    2  C   UNL     1      43.225 -16.843   2.987  1.00  0.00     0.096 A 
HETATM    3  C   UNL     1      43.173 -18.041   2.269  1.00  0.00     0.046 A 
HETATM    4  C   UNL     1      43.664 -19.218   2.844  1.00  0.00    -0.059 A 
HETATM    5  C   UNL     1      43.584 -20.520   2.104  1.00  0.00     0.048 C 
HETATM    6  C   UNL     1      44.169 -19.179   4.151  1.00  0.00     0.009 A 
HETATM    7  C   UNL     1      44.195 -17.981   4.876  1.00  0.00     0.033 A 
ENDROOT
BRANCH   1   8
HETATM    8  N   UNL     1      43.664 -15.563   4.971  1.00  0.00    -0.319 N 
HETATM    9  C   UNL     1      42.751 -15.142   5.917  1.00  0.00     0.274 C 
HETATM   10  O   UNL     1      41.899 -15.851   6.438  1.00  0.00    -0.266 OA
HETATM   11  H   UNL     1      44.471 -14.974   4.801  1.00  0.00     0.169 HD
BRANCH   9  12
HETATM   12  C   UNL     1      42.924 -13.759   6.288  1.00  0.00     0.120 A 
HETATM   13  N   UNL     1      41.939 -12.809   6.289  1.00  0.00    -0.273 N 
HETATM   14  N   UNL     1      42.356 -11.588   6.652  1.00  0.00    -0.179 NA
HETATM   15  H   UNL     1      40.957 -12.930   6.063  1.00  0.00     0.189 HD
HETATM   16  C   UNL     1      43.648 -11.764   6.953  1.00  0.00     0.056 A 
HETATM   17  C   UNL     1      44.042 -13.109   6.771  1.00  0.00     0.065 A 
BRANCH  16  18
HETATM   18  C   UNL     1      44.481 -10.615   7.408  1.00  0.00     0.056 C 
HETATM   19  C   UNL     1      45.971 -10.892   7.260  1.00  0.00     0.011 C 
ENDBRANCH  16  18
ENDBRANCH   9  12
ENDBRANCH   1   8
BRANCH   2  20
HETATM   20  O   UNL     1      42.753 -15.667   2.450  1.00  0.00    -0.340 OA
BRANCH  20  21
HETATM   21  C   UNL     1      41.436 -15.827   1.886  1.00  0.00     0.293 C 
BRANCH  21  22
HETATM   22  C   UNL     1      40.382 -15.451   2.915  1.00  0.00     0.408 C 
HETATM   23  F   UNL     1      39.171 -15.285   2.335  1.00  0.00    -0.169 F 
HETATM   24  F   UNL     1      40.258 -16.421   3.849  1.00  0.00    -0.169 F 
HETATM   25  F   UNL     1      40.696 -14.305   3.555  1.00  0.00    -0.169 F 
ENDBRANCH  21  22
ENDBRANCH  20  21
ENDBRANCH   2  20
TORSDOF 6
ENDMDL
MODEL 2
REMARK VINA RESULT:      -7.2      3.266      5.695
REMARK  6 active torsions:
REMARK  status: ('A' for Active; 'I' for Inactive)
REMARK    1  A    between atoms: C_2  and  C_3 
REMARK    2  A    between atoms: C_7  and  C_8 
REMARK       I    between atoms: C_8  and  N_9 
REMARK    3  A    between atoms: N_9  and  C_10 
REMARK    4  A    between atoms: C_11  and  O_12 
REMARK    5  A    between atoms: O_12  and  C_13 
REMARK    6  A    between atoms: C_13  and  C_14 
ROOT
HETATM    1  C   UNL     1      42.904 -17.560   2.640  1.00  0.00     0.068 A 
HETATM    2  C   UNL     1      43.452 -17.282   3.903  1.00  0.00     0.096 A 
HETATM    3  C   UNL     1      44.053 -18.286   4.667  1.00  0.00     0.046 A 
HETATM    4  C   UNL     1      44.067 -19.603   4.196  1.00  0.00    -0.059 A 
HETATM    5  C   UNL     1      44.740 -20.688   4.985  1.00  0.00     0.048 C 
HETATM    6  C   UNL     1      43.507 -19.885   2.944  1.00  0.00     0.009 A 
HETATM    7  C   UNL     1      42.928 -18.871   2.170  1.00  0.00     0.033 A 
ENDROOT
BRANCH   1   8
HETATM    8  N   UNL     1      42.381 -16.470   1.912  1.00  0.00    -0.319 N 
HETATM    9  C   UNL     1      41.145 -15.871   2.048  1.00  0.00     0.274 C 
HETATM   10  O   UNL     1      40.339 -16.111   2.939  1.00  0.00    -0.266 OA
HETATM   11  H   UNL     1      43.057 -16.023   1.304  1.00  0.00     0.169 HD
BRANCH   9  12
HETATM   12  C   UNL     1      40.894 -14.866   1.043  1.00  0.00     0.120 A 
HETATM   13  N   UNL     1      41.631 -13.726   0.861  1.00  0.00    -0.273 N 
HETATM   14  N   UNL     1      41.182 -12.937  -0.126  1.00  0.00    -0.179 NA
HETATM   15  H   UNL     1      42.460 -13.433   1.367  1.00  0.00     0.189 HD
HETATM   16  C   UNL     1      40.150 -13.617  -0.640  1.00  0.00     0.056 A 
HETATM   17  C   UNL     1      39.950 -14.841   0.038  1.00  0.00     0.065 A 
BRANCH  16  18
HETATM   18  C   UNL     1      39.369 -13.058  -1.779  1.00  0.00     0.056 C 
HETATM   19  C   UNL     1      39.301 -14.020  -2.956  1.00  0.00     0.011 C 
ENDBRANCH  16  18
ENDBRANCH   9  12
ENDBRANCH   1   8
BRANCH   2  20
HETATM   20  O   UNL     1      43.418 -15.976   4.338  1.00  0.00    -0.340 OA
BRANCH  20  21
HETATM   21  C   UNL     1      42.796 -15.860   5.633  1.00  0.00     0.293 C 
BRANCH  21  22
HETATM   22  C   UNL     1      43.735 -15.153   6.598  1.00  0.00     0.408 C 
HETATM   23  F   UNL     1      43.234 -15.151   7.854  1.00  0.00    -0.169 F 
HETATM   24  F   UNL     1      44.936 -15.774   6.638  1.00  0.00    -0.169 F 
HETATM   25  F   UNL     1      43.950 -13.870   6.235  1.00  0.00    -0.169 F 
ENDBRANCH  21  22
ENDBRANCH  20  21
ENDBRANCH   2  20
TORSDOF 6
ENDMDL
MODEL 3
REMARK VINA RESULT:      -7.1      3.114      5.595
REMARK  6 active torsions:
REMARK  status: ('A' for Active; 'I' for Inactive)
REMARK    1  A    between atoms: C_2  and  C_3 
REMARK    2  A    between atoms: C_7  and  C_8 
REMARK       I    between atoms: C_8  and  N_9 
REMARK    3  A    between atoms: N_9  and  C_10 
REMARK    4  A    between atoms: C_11  and  O_12 
REMARK    5  A    between atoms: O_12  and  C_13 
REMARK    6  A    between atoms: C_13  and  C_14 
ROOT
HETATM    1  C   UNL     1      42.711 -17.026   2.462  1.00  0.00     0.068 A 
HETATM    2  C   UNL     1      43.132 -16.698   3.762  1.00  0.00     0.096 A 
HETATM    3  C   UNL     1      43.731 -17.652   4.589  1.00  0.00     0.046 A 
HETATM    4  C   UNL     1      43.872 -18.970   4.143  1.00  0.00    -0.059 A 
HETATM    5  C   UNL     1      44.545 -19.999   5.002  1.00  0.00     0.048 C 
HETATM    6  C   UNL     1      43.438 -19.303   2.853  1.00  0.00     0.009 A 
HETATM    7  C   UNL     1      42.861 -18.338   2.018  1.00  0.00     0.033 A 
ENDROOT
BRANCH   1   8
HETATM    8  N   UNL     1      42.181 -15.981   1.676  1.00  0.00    -0.319 N 
HETATM    9  C   UNL     1      40.860 -15.606   1.538  1.00  0.00     0.274 C 
HETATM   10  O   UNL     1      39.929 -16.046   2.202  1.00  0.00    -0.266 OA
HETATM   11  H   UNL     1      42.886 -15.381   1.264  1.00  0.00     0.169 HD
BRANCH   9  12
HETATM   12  C   UNL     1      40.668 -14.577   0.545  1.00  0.00     0.120 A 
HETATM   13  N   UNL     1      41.340 -13.385   0.498  1.00  0.00    -0.273 N 
HETATM   14  N   UNL     1      40.965 -12.585  -0.510  1.00  0.00    -0.179 NA
HETATM   15  H   UNL     1      42.075 -13.060   1.117  1.00  0.00     0.189 HD
HETATM   16  C   UNL     1      40.056 -13.308  -1.176  1.00  0.00     0.056 A 
HETATM   17  C   UNL     1      39.859 -14.572  -0.573  1.00  0.00     0.065 A 
BRANCH  16  18
HETATM   18  C   UNL     1      39.389 -12.753  -2.387  1.00  0.00     0.056 C 
HETATM   19  C   UNL     1      38.345 -13.705  -2.955  1.00  0.00     0.011 C 
ENDBRANCH  16  18
ENDBRANCH   9  12
ENDBRANCH   1   8
BRANCH   2  20
HETATM   20  O   UNL     1      42.976 -15.394   4.171  1.00  0.00    -0.340 OA
BRANCH  20  21
HETATM   21  C   UNL     1      42.488 -15.312   5.525  1.00  0.00     0.293 C 
BRANCH  21  22
HETATM   22  C   UNL     1      40.973 -15.183   5.524  1.00  0.00     0.408 C 
HETATM   23  F   UNL     1      40.381 -16.368   5.250  1.00  0.00    -0.169 F 
HETATM   24  F   UNL     1      40.527 -14.773   6.733  1.00  0.00    -0.169 F 
HETATM   25  F   UNL     1      40.550 -14.286   4.607  1.00  0.00    -0.169 F 
ENDBRANCH  21  22
ENDBRANCH  20  21
ENDBRANCH   2  20
TORSDOF 6
ENDMDL
MODEL 4
REMARK VINA RESULT:      -7.0     15.042     16.875
REMARK  6 active torsions:
REMARK  status: ('A' for Active; 'I' for Inactive)
REMARK    1  A    between atoms: C_2  and  C_3 
REMARK    2  A    between atoms: C_7  and  C_8 
REMARK       I    between atoms: C_8  and  N_9 
REMARK    3  A    between atoms: N_9  and  C_10 
REMARK    4  A    between atoms: C_11  and  O_12 
REMARK    5  A    between atoms: O_12  and  C_13 
REMARK    6  A    between atoms: C_13  and  C_14 
ROOT
HETATM    1  C   UNL     1      48.892 -29.990   2.320  1.00  0.00     0.068 A 
HETATM    2  C   UNL     1      50.263 -30.103   2.036  1.00  0.00     0.096 A 
HETATM    3  C   UNL     1      51.165 -30.560   3.000  1.00  0.00     0.046 A 
HETATM    4  C   UNL     1      50.712 -30.863   4.289  1.00  0.00    -0.059 A 
HETATM    5  C   UNL     1      51.659 -31.389   5.327  1.00  0.00     0.048 C 
HETATM    6  C   UNL     1      49.348 -30.735   4.579  1.00  0.00     0.009 A 
HETATM    7  C   UNL     1      48.443 -30.301   3.602  1.00  0.00     0.033 A 
ENDROOT
BRANCH   1   8
HETATM    8  N   UNL     1      48.049 -29.586   1.263  1.00  0.00    -0.319 N 
HETATM    9  C   UNL     1      47.375 -28.390   1.121  1.00  0.00     0.274 C 
HETATM   10  O   UNL     1      47.517 -27.411   1.844  1.00  0.00    -0.266 OA
HETATM   11  H   UNL     1      48.046 -30.225   0.476  1.00  0.00     0.169 HD
BRANCH   9  12
HETATM   12  C   UNL     1      46.495 -28.373  -0.022  1.00  0.00     0.120 A 
HETATM   13  N   UNL     1      45.137 -28.542   0.021  1.00  0.00    -0.273 N 
HETATM   14  N   UNL     1      44.544 -28.508  -1.181  1.00  0.00    -0.179 NA
HETATM   15  H   UNL     1      44.551 -28.672   0.839  1.00  0.00     0.189 HD
HETATM   16  C   UNL     1      45.546 -28.252  -2.030  1.00  0.00     0.056 A 
HETATM   17  C   UNL     1      46.779 -28.129  -1.350  1.00  0.00     0.065 A 
BRANCH  16  18
HETATM   18  C   UNL     1      45.287 -28.138  -3.493  1.00  0.00     0.056 C 
HETATM   19  C   UNL     1      44.394 -29.257  -4.007  1.00  0.00     0.011 C 
ENDBRANCH  16  18
ENDBRANCH   9  12
ENDBRANCH   1   8
BRANCH   2  20
HETATM   20  O   UNL     1      50.676 -29.794   0.760  1.00  0.00    -0.340 OA
BRANCH  20  21
HETATM   21  C   UNL     1      51.009 -30.976   0.005  1.00  0.00     0.293 C 
BRANCH  21  22
HETATM   22  C   UNL     1      50.773 -30.729  -1.476  1.00  0.00     0.408 C 
HETATM   23  F   UNL     1      51.927 -30.416  -2.110  1.00  0.00    -0.169 F 
HETATM   24  F   UNL     1      50.267 -31.833  -2.071  1.00  0.00    -0.169 F 
HETATM   25  F   UNL     1      49.900 -29.719  -1.680  1.00  0.00    -0.169 F 
ENDBRANCH  21  22
ENDBRANCH  20  21
ENDBRANCH   2  20
TORSDOF 6
ENDMDL
MODEL 5
REMARK VINA RESULT:      -7.0      3.834      6.440
REMARK  6 active torsions:
REMARK  status: ('A' for Active; 'I' for Inactive)
REMARK    1  A    between atoms: C_2  and  C_3 
REMARK    2  A    between atoms: C_7  and  C_8 
REMARK       I    between atoms: C_8  and  N_9 
REMARK    3  A    between atoms: N_9  and  C_10 
REMARK    4  A    between atoms: C_11  and  O_12 
REMARK    5  A    between atoms: O_12  and  C_13 
REMARK    6  A    between atoms: C_13  and  C_14 
ROOT
HETATM    1  C   UNL     1      41.818 -16.015   3.595  1.00  0.00     0.068 A 
HETATM    2  C   UNL     1      42.759 -17.059   3.601  1.00  0.00     0.096 A 
HETATM    3  C   UNL     1      43.294 -17.542   4.798  1.00  0.00     0.046 A 
HETATM    4  C   UNL     1      42.932 -16.949   6.011  1.00  0.00    -0.059 A 
HETATM    5  C   UNL     1      43.467 -17.478   7.310  1.00  0.00     0.048 C 
HETATM    6  C   UNL     1      42.007 -15.897   6.006  1.00  0.00     0.009 A 
HETATM    7  C   UNL     1      41.453 -15.432   4.806  1.00  0.00     0.033 A 
ENDROOT
BRANCH   1   8
HETATM    8  N   UNL     1      41.283 -15.641   2.344  1.00  0.00    -0.319 N 
HETATM    9  C   UNL     1      41.531 -14.492   1.621  1.00  0.00     0.274 C 
HETATM   10  O   UNL     1      42.385 -13.657   1.895  1.00  0.00    -0.266 OA
HETATM   11  H   UNL     1      40.743 -16.373   1.896  1.00  0.00     0.169 HD
BRANCH   9  12
HETATM   12  C   UNL     1      40.704 -14.379   0.444  1.00  0.00     0.120 A 
HETATM   13  N   UNL     1      39.772 -15.295   0.039  1.00  0.00    -0.273 N 
HETATM   14  N   UNL     1      39.148 -14.973  -1.103  1.00  0.00    -0.179 NA
HETATM   15  H   UNL     1      39.504 -16.157   0.502  1.00  0.00     0.189 HD
HETATM   16  C   UNL     1      39.654 -13.775  -1.421  1.00  0.00     0.056 A 
HETATM   17  C   UNL     1      40.607 -13.348  -0.468  1.00  0.00     0.065 A 
BRANCH  16  18
HETATM   18  C   UNL     1      39.204 -13.067  -2.653  1.00  0.00     0.056 C 
HETATM   19  C   UNL     1      37.698 -12.849  -2.673  1.00  0.00     0.011 C 
ENDBRANCH  16  18
ENDBRANCH   9  12
ENDBRANCH   1   8
BRANCH   2  20
HETATM   20  O   UNL     1      43.096 -17.619   2.390  1.00  0.00    -0.340 OA
BRANCH  20  21
HETATM   21  C   UNL     1      44.001 -18.730   2.547  1.00  0.00     0.293 C 
BRANCH  21  22
HETATM   22  C   UNL     1      43.293 -20.029   2.199  1.00  0.00     0.408 C 
HETATM   23  F   UNL     1      41.995 -19.810   1.888  1.00  0.00    -0.169 F 
HETATM   24  F   UNL     1      43.875 -20.621   1.132  1.00  0.00    -0.169 F 
HETATM   25  F   UNL     1      43.331 -20.907   3.224  1.00  0.00    -0.169 F 
ENDBRANCH  21  22
ENDBRANCH  20  21
ENDBRANCH   2  20
TORSDOF 6
ENDMDL
MODEL 6
REMARK VINA RESULT:      -6.9      2.615      3.568
REMARK  6 active torsions:
REMARK  status: ('A' for Active; 'I' for Inactive)
REMARK    1  A    between atoms: C_2  and  C_3 
REMARK    2  A    between atoms: C_7  and  C_8 
REMARK       I    between atoms: C_8  and  N_9 
REMARK    3  A    between atoms: N_9  and  C_10 
REMARK    4  A    between atoms: C_11  and  O_12 
REMARK    5  A    between atoms: O_12  and  C_13 
REMARK    6  A    between atoms: C_13  and  C_14 
ROOT
HETATM    1  C   UNL     1      43.001 -16.555   3.584  1.00  0.00     0.068 A 
HETATM    2  C   UNL     1      43.814 -17.272   4.478  1.00  0.00     0.096 A 
HETATM    3  C   UNL     1      44.159 -18.603   4.230  1.00  0.00     0.046 A 
HETATM    4  C   UNL     1      43.651 -19.256   3.103  1.00  0.00    -0.059 A 
HETATM    5  C   UNL     1      44.040 -20.673   2.800  1.00  0.00     0.048 C 
HETATM    6  C   UNL     1      42.828 -18.547   2.219  1.00  0.00     0.009 A 
HETATM    7  C   UNL     1      42.504 -17.205   2.457  1.00  0.00     0.033 A 
ENDROOT
BRANCH   1   8
HETATM    8  N   UNL     1      42.763 -15.196   3.882  1.00  0.00    -0.319 N 
HETATM    9  C   UNL     1      43.119 -14.087   3.143  1.00  0.00     0.274 C 
HETATM   10  O   UNL     1      43.591 -14.115   2.013  1.00  0.00    -0.266 OA
HETATM   11  H   UNL     1      42.157 -15.054   4.683  1.00  0.00     0.169 HD
BRANCH   9  12
HETATM   12  C   UNL     1      42.832 -12.845   3.819  1.00  0.00     0.120 A 
HETATM   13  N   UNL     1      43.481 -11.658   3.607  1.00  0.00    -0.273 N 
HETATM   14  N   UNL     1      43.046 -10.652   4.378  1.00  0.00    -0.179 NA
HETATM   15  H   UNL     1      44.222 -11.464   2.943  1.00  0.00     0.189 HD
HETATM   16  C   UNL     1      42.038 -11.190   5.076  1.00  0.00     0.056 A 
HETATM   17  C   UNL     1      41.847 -12.550   4.739  1.00  0.00     0.065 A 
BRANCH  16  18
HETATM   18  C   UNL     1      41.282 -10.372   6.065  1.00  0.00     0.056 C 
HETATM   19  C   UNL     1      42.077  -9.164   6.539  1.00  0.00     0.011 C 
ENDBRANCH  16  18
ENDBRANCH   9  12
ENDBRANCH   1   8
BRANCH   2  20
HETATM   20  O   UNL     1      44.294 -16.602   5.579  1.00  0.00    -0.340 OA
BRANCH  20  21
HETATM   21  C   UNL     1      43.664 -17.050   6.796  1.00  0.00     0.293 C 
BRANCH  21  22
HETATM   22  C   UNL     1      42.958 -15.887   7.474  1.00  0.00     0.408 C 
HETATM   23  F   UNL     1      43.339 -14.705   6.939  1.00  0.00    -0.169 F 
HETATM   24  F   UNL     1      41.618 -15.989   7.327  1.00  0.00    -0.169 F 
HETATM   25  F   UNL     1      43.222 -15.847   8.798  1.00  0.00    -0.169 F 
ENDBRANCH  21  22
ENDBRANCH  20  21
ENDBRANCH   2  20
TORSDOF 6
ENDMDL
MODEL 7
REMARK VINA RESULT:      -6.9      1.335      1.610
REMARK  6 active torsions:
REMARK  status: ('A' for Active; 'I' for Inactive)
REMARK    1  A    between atoms: C_2  and  C_3 
REMARK    2  A    between atoms: C_7  and  C_8 
REMARK       I    between atoms: C_8  and  N_9 
REMARK    3  A    between atoms: N_9  and  C_10 
REMARK    4  A    between atoms: C_11  and  O_12 
REMARK    5  A    between atoms: O_12  and  C_13 
REMARK    6  A    between atoms: C_13  and  C_14 
ROOT
HETATM    1  C   UNL     1      43.467 -16.454   4.239  1.00  0.00     0.068 A 
HETATM    2  C   UNL     1      42.666 -16.570   3.090  1.00  0.00     0.096 A 
HETATM    3  C   UNL     1      42.588 -17.772   2.383  1.00  0.00     0.046 A 
HETATM    4  C   UNL     1      43.356 -18.869   2.787  1.00  0.00    -0.059 A 
HETATM    5  C   UNL     1      43.257 -20.179   2.063  1.00  0.00     0.048 C 
HETATM    6  C   UNL     1      44.167 -18.751   3.923  1.00  0.00     0.009 A 
HETATM    7  C   UNL     1      44.223 -17.551   4.645  1.00  0.00     0.033 A 
ENDROOT
BRANCH   1   8
HETATM    8  N   UNL     1      43.429 -15.222   4.927  1.00  0.00    -0.319 N 
HETATM    9  C   UNL     1      42.621 -14.863   5.986  1.00  0.00     0.274 C 
HETATM   10  O   UNL     1      41.886 -15.626   6.602  1.00  0.00    -0.266 OA
HETATM   11  H   UNL     1      44.171 -14.585   4.663  1.00  0.00     0.169 HD
BRANCH   9  12
HETATM   12  C   UNL     1      42.759 -13.475   6.353  1.00  0.00     0.120 A 
HETATM   13  N   UNL     1      43.624 -12.985   7.294  1.00  0.00    -0.273 N 
HETATM   14  N   UNL     1      43.546 -11.658   7.471  1.00  0.00    -0.179 NA
HETATM   15  H   UNL     1      44.303 -13.501   7.844  1.00  0.00     0.189 HD
HETATM   16  C   UNL     1      42.637 -11.265   6.571  1.00  0.00     0.056 A 
HETATM   17  C   UNL     1      42.139 -12.359   5.828  1.00  0.00     0.065 A 
BRANCH  16  18
HETATM   18  C   UNL     1      42.262  -9.827   6.454  1.00  0.00     0.056 C 
HETATM   19  C   UNL     1      42.581  -9.046   7.720  1.00  0.00     0.011 C 
ENDBRANCH  16  18
ENDBRANCH   9  12
ENDBRANCH   1   8
BRANCH   2  20
HETATM   20  O   UNL     1      41.926 -15.471   2.717  1.00  0.00    -0.340 OA
BRANCH  20  21
HETATM   21  C   UNL     1      41.566 -15.517   1.322  1.00  0.00     0.293 C 
BRANCH  21  22
HETATM   22  C   UNL     1      40.059 -15.384   1.171  1.00  0.00     0.408 C 
HETATM   23  F   UNL     1      39.741 -14.472   0.224  1.00  0.00    -0.169 F 
HETATM   24  F   UNL     1      39.509 -16.564   0.802  1.00  0.00    -0.169 F 
HETATM   25  F   UNL     1      39.473 -15.004   2.326  1.00  0.00    -0.169 F 
ENDBRANCH  21  22
ENDBRANCH  20  21
ENDBRANCH   2  20
TORSDOF 6
ENDMDL
MODEL 8
REMARK VINA RESULT:      -6.6      4.246      6.384
REMARK  6 active torsions:
REMARK  status: ('A' for Active; 'I' for Inactive)
REMARK    1  A    between atoms: C_2  and  C_3 
REMARK    2  A    between atoms: C_7  and  C_8 
REMARK       I    between atoms: C_8  and  N_9 
REMARK    3  A    between atoms: N_9  and  C_10 
REMARK    4  A    between atoms: C_11  and  O_12 
REMARK    5  A    between atoms: O_12  and  C_13 
REMARK    6  A    between atoms: C_13  and  C_14 
ROOT
HETATM    1  C   UNL     1      42.248 -15.476   2.149  1.00  0.00     0.068 A 
HETATM    2  C   UNL     1      42.366 -14.839   3.395  1.00  0.00     0.096 A 
HETATM    3  C   UNL     1      43.095 -15.418   4.437  1.00  0.00     0.046 A 
HETATM    4  C   UNL     1      43.678 -16.678   4.262  1.00  0.00    -0.059 A 
HETATM    5  C   UNL     1      44.495 -17.299   5.355  1.00  0.00     0.048 C 
HETATM    6  C   UNL     1      43.548 -17.322   3.025  1.00  0.00     0.009 A 
HETATM    7  C   UNL     1      42.837 -16.727   1.975  1.00  0.00     0.033 A 
ENDROOT
BRANCH   1   8
HETATM    8  N   UNL     1      41.551 -14.783   1.136  1.00  0.00    -0.319 N 
HETATM    9  C   UNL     1      40.321 -15.086   0.590  1.00  0.00     0.274 C 
HETATM   10  O   UNL     1      39.558 -15.950   1.006  1.00  0.00    -0.266 OA
HETATM   11  H   UNL     1      41.977 -13.900   0.879  1.00  0.00     0.169 HD
BRANCH   9  12
HETATM   12  C   UNL     1      39.975 -14.235  -0.523  1.00  0.00     0.120 A 
HETATM   13  N   UNL     1      38.889 -14.400  -1.340  1.00  0.00    -0.273 N 
HETATM   14  N   UNL     1      38.799 -13.489  -2.320  1.00  0.00    -0.179 NA
HETATM   15  H   UNL     1      38.165 -15.107  -1.277  1.00  0.00     0.189 HD
HETATM   16  C   UNL     1      39.832 -12.669  -2.096  1.00  0.00     0.056 A 
HETATM   17  C   UNL     1      40.578 -13.076  -0.966  1.00  0.00     0.065 A 
BRANCH  16  18
HETATM   18  C   UNL     1      40.080 -11.504  -2.991  1.00  0.00     0.056 C 
HETATM   19  C   UNL     1      41.003 -10.475  -2.354  1.00  0.00     0.011 C 
ENDBRANCH  16  18
ENDBRANCH   9  12
ENDBRANCH   1   8
BRANCH   2  20
HETATM   20  O   UNL     1      41.778 -13.602   3.535  1.00  0.00    -0.340 OA
BRANCH  20  21
HETATM   21  C   UNL     1      42.587 -12.712   4.330  1.00  0.00     0.293 C 
BRANCH  21  22
HETATM   22  C   UNL     1      43.111 -11.576   3.466  1.00  0.00     0.408 C 
HETATM   23  F   UNL     1      42.697 -10.376   3.932  1.00  0.00    -0.169 F 
HETATM   24  F   UNL     1      44.464 -11.566   3.457  1.00  0.00    -0.169 F 
HETATM   25  F   UNL     1      42.695 -11.690   2.186  1.00  0.00    -0.169 F 
ENDBRANCH  21  22
ENDBRANCH  20  21
ENDBRANCH   2  20
TORSDOF 6
ENDMDL
MODEL 9
REMARK VINA RESULT:      -6.5      4.350      6.473
REMARK  6 active torsions:
REMARK  status: ('A' for Active; 'I' for Inactive)
REMARK    1  A    between atoms: C_2  and  C_3 
REMARK    2  A    between atoms: C_7  and  C_8 
REMARK       I    between atoms: C_8  and  N_9 
REMARK    3  A    between atoms: N_9  and  C_10 
REMARK    4  A    between atoms: C_11  and  O_12 
REMARK    5  A    between atoms: O_12  and  C_13 
REMARK    6  A    between atoms: C_13  and  C_14 
ROOT
HETATM    1  C   UNL     1      42.278 -15.269   1.781  1.00  0.00     0.068 A 
HETATM    2  C   UNL     1      42.144 -14.761   3.085  1.00  0.00     0.096 A 
HETATM    3  C   UNL     1      42.708 -15.422   4.179  1.00  0.00     0.046 A 
HETATM    4  C   UNL     1      43.375 -16.637   3.990  1.00  0.00    -0.059 A 
HETATM    5  C   UNL     1      44.018 -17.342   5.147  1.00  0.00     0.048 C 
HETATM    6  C   UNL     1      43.496 -17.153   2.694  1.00  0.00     0.009 A 
HETATM    7  C   UNL     1      42.951 -16.475   1.596  1.00  0.00     0.033 A 
ENDROOT
BRANCH   1   8
HETATM    8  N   UNL     1      41.735 -14.497   0.732  1.00  0.00    -0.319 N 
HETATM    9  C   UNL     1      40.533 -14.675   0.079  1.00  0.00     0.274 C 
HETATM   10  O   UNL     1      39.662 -15.471   0.410  1.00  0.00    -0.266 OA
HETATM   11  H   UNL     1      42.259 -13.653   0.533  1.00  0.00     0.169 HD
BRANCH   9  12
HETATM   12  C   UNL     1      40.361 -13.777  -1.037  1.00  0.00     0.120 A 
HETATM   13  N   UNL     1      40.691 -14.054  -2.336  1.00  0.00    -0.273 N 
HETATM   14  N   UNL     1      40.457 -13.045  -3.187  1.00  0.00    -0.179 NA
HETATM   15  H   UNL     1      41.070 -14.917  -2.711  1.00  0.00     0.189 HD
HETATM   16  C   UNL     1      39.901 -12.098  -2.422  1.00  0.00     0.056 A 
HETATM   17  C   UNL     1      39.792 -12.521  -1.077  1.00  0.00     0.065 A 
BRANCH  16  18
HETATM   18  C   UNL     1      39.490 -10.793  -3.012  1.00  0.00     0.056 C 
HETATM   19  C   UNL     1      40.678 -10.005  -3.546  1.00  0.00     0.011 C 
ENDBRANCH  16  18
ENDBRANCH   9  12
ENDBRANCH   1   8
BRANCH   2  20
HETATM   20  O   UNL     1      41.479 -13.566   3.236  1.00  0.00    -0.340 OA
BRANCH  20  21
HETATM   21  C   UNL     1      41.507 -13.107   4.602  1.00  0.00     0.293 C 
BRANCH  21  22
HETATM   22  C   UNL     1      40.102 -12.751   5.060  1.00  0.00     0.408 C 
HETATM   23  F   UNL     1      39.733 -13.494   6.129  1.00  0.00    -0.169 F 
HETATM   24  F   UNL     1      40.032 -11.450   5.422  1.00  0.00    -0.169 F 
HETATM   25  F   UNL     1      39.193 -12.952   4.082  1.00  0.00    -0.169 F 
ENDBRANCH  21  22
ENDBRANCH  20  21
ENDBRANCH   2  20
TORSDOF 6
ENDMDL
MODEL 10
REMARK VINA RESULT:      -6.4     14.749     15.664
REMARK  6 active torsions:
REMARK  status: ('A' for Active; 'I' for Inactive)
REMARK    1  A    between atoms: C_2  and  C_3 
REMARK    2  A    between atoms: C_7  and  C_8 
REMARK       I    between atoms: C_8  and  N_9 
REMARK    3  A    between atoms: N_9  and  C_10 
REMARK    4  A    between atoms: C_11  and  O_12 
REMARK    5  A    between atoms: O_12  and  C_13 
REMARK    6  A    between atoms: C_13  and  C_14 
ROOT
HETATM    1  C   UNL     1      46.799 -29.270   0.057  1.00  0.00     0.068 A 
HETATM    2  C   UNL     1      45.434 -28.953  -0.045  1.00  0.00     0.096 A 
HETATM    3  C   UNL     1      44.894 -28.462  -1.236  1.00  0.00     0.046 A 
HETATM    4  C   UNL     1      45.728 -28.229  -2.335  1.00  0.00    -0.059 A 
HETATM    5  C   UNL     1      45.160 -27.737  -3.633  1.00  0.00     0.048 C 
HETATM    6  C   UNL     1      47.092 -28.529  -2.230  1.00  0.00     0.009 A 
HETATM    7  C   UNL     1      47.625 -29.045  -1.042  1.00  0.00     0.033 A 
ENDROOT
BRANCH   1   8
HETATM    8  N   UNL     1      47.240 -29.825   1.277  1.00  0.00    -0.319 N 
HETATM    9  C   UNL     1      47.754 -29.166   2.375  1.00  0.00     0.274 C 
HETATM   10  O   UNL     1      47.781 -27.950   2.519  1.00  0.00    -0.266 OA
HETATM   11  H   UNL     1      47.038 -30.814   1.373  1.00  0.00     0.169 HD
BRANCH   9  12
HETATM   12  C   UNL     1      48.229 -30.066   3.399  1.00  0.00     0.120 A 
HETATM   13  N   UNL     1      47.438 -30.864   4.182  1.00  0.00    -0.273 N 
HETATM   14  N   UNL     1      48.117 -31.594   5.079  1.00  0.00    -0.179 NA
HETATM   15  H   UNL     1      46.430 -30.967   4.147  1.00  0.00     0.189 HD
HETATM   16  C   UNL     1      49.399 -31.301   4.831  1.00  0.00     0.056 A 
HETATM   17  C   UNL     1      49.521 -30.374   3.770  1.00  0.00     0.065 A 
BRANCH  16  18
HETATM   18  C   UNL     1      50.486 -31.924   5.638  1.00  0.00     0.056 C 
HETATM   19  C   UNL     1      51.808 -31.185   5.490  1.00  0.00     0.011 C 
ENDBRANCH  16  18
ENDBRANCH   9  12
ENDBRANCH   1   8
BRANCH   2  20
HETATM   20  O   UNL     1      44.642 -29.190   1.055  1.00  0.00    -0.340 OA
BRANCH  20  21
HETATM   21  C   UNL     1      43.465 -29.950   0.713  1.00  0.00     0.293 C 
BRANCH  21  22
HETATM   22  C   UNL     1      42.306 -29.543   1.608  1.00  0.00     0.408 C 
HETATM   23  F   UNL     1      41.280 -30.419   1.508  1.00  0.00    -0.169 F 
HETATM   24  F   UNL     1      42.690 -29.511   2.904  1.00  0.00    -0.169 F 
HETATM   25  F   UNL     1      41.838 -28.317   1.290  1.00  0.00    -0.169 F 
ENDBRANCH  21  22
ENDBRANCH  20  21
ENDBRANCH   2  20
TORSDOF 6
ENDMDL
