MODEL 1
REMARK VINA RESULT:     -10.6      0.000      0.000
REMARK  6 active torsions:
REMARK  status: ('A' for Active; 'I' for Inactive)
REMARK    1  A    between atoms: C_7  and  C_8 
REMARK    2  A    between atoms: C_8  and  C_9 
REMARK    3  A    between atoms: C_9  and  N_10 
REMARK    4  A    between atoms: C_12  and  C_13 
REMARK    5  A    between atoms: C_13  and  N_14 
REMARK    6  A    between atoms: C_36  and  O_37 
ROOT
HETATM    1  N   UNL     1      40.749 -14.701   3.266  1.00  0.00    -0.054 N 
HETATM    2  H   UNL     1      39.740 -14.478   3.431  1.00  0.00     0.281 HD
HETATM    3  C   UNL     1      41.285 -13.479   2.490  1.00  0.00     0.240 C 
HETATM    4  C   UNL     1      40.830 -13.427   1.029  1.00  0.00    -0.020 A 
HETATM    5  C   UNL     1      40.178 -14.522   0.425  1.00  0.00    -0.048 A 
HETATM    6  C   UNL     1      39.867 -15.773   1.200  1.00  0.00     0.067 C 
HETATM    7  C   UNL     1      40.772 -15.941   2.410  1.00  0.00     0.241 C 
HETATM    8  C   UNL     1      41.096 -12.298   0.231  1.00  0.00     0.010 A 
HETATM    9  C   UNL     1      40.675 -12.236  -1.100  1.00  0.00     0.001 A 
HETATM   10  C   UNL     1      39.997 -13.305  -1.668  1.00  0.00     0.001 A 
HETATM   11  C   UNL     1      39.751 -14.445  -0.910  1.00  0.00     0.008 A 
ENDROOT
BRANCH   1  12
HETATM   12  C   UNL     1      41.385 -14.965   4.653  1.00  0.00     0.319 C 
BRANCH  12  13
HETATM   13  C   UNL     1      42.764 -15.615   4.590  1.00  0.00     0.188 C 
HETATM   14  O   UNL     1      43.596 -15.153   3.806  1.00  0.00    -0.290 OA
BRANCH  13  15
HETATM   15  C   UNL     1      43.088 -16.765   5.435  1.00  0.00     0.046 A 
HETATM   16  C   UNL     1      43.095 -16.704   6.826  1.00  0.00     0.020 A 
HETATM   17  C   UNL     1      42.854 -15.568   7.762  1.00  0.00     0.069 C 
HETATM   18  N   UNL     1      43.367 -17.957   7.308  1.00  0.00    -0.358 N 
HETATM   19  H   UNL     1      43.414 -18.211   8.286  1.00  0.00     0.166 HD
HETATM   20  C   UNL     1      43.550 -18.837   6.270  1.00  0.00     0.043 A 
HETATM   21  C   UNL     1      43.412 -18.122   5.079  1.00  0.00     0.009 A 
HETATM   22  C   UNL     1      43.818 -20.209   6.315  1.00  0.00     0.033 A 
HETATM   23  C   UNL     1      43.570 -18.844   3.875  1.00  0.00     0.051 A 
HETATM   24  C   UNL     1      43.841 -20.222   3.892  1.00  0.00     0.069 A 
HETATM   25  C   UNL     1      43.957 -20.893   5.104  1.00  0.00     0.039 A 
BRANCH  24  26
HETATM   26  O   UNL     1      43.961 -20.781   2.648  1.00  0.00    -0.356 OA
HETATM   27  C   UNL     1      43.159 -20.219   1.613  1.00  0.00     0.210 C 
ENDBRANCH  24  26
ENDBRANCH  13  15
ENDBRANCH  12  13
ENDBRANCH   1  12
BRANCH   3  28
HETATM   28  C   UNL     1      41.030 -12.152   3.265  1.00  0.00     0.173 C 
BRANCH  28  29
HETATM   29  N   UNL     1      41.999 -11.714   4.263  1.00  0.00    -0.278 N 
HETATM   30  C   UNL     1      41.811 -11.608   5.614  1.00  0.00     0.261 A 
HETATM   31  O   UNL     1      40.775 -11.762   6.239  1.00  0.00    -0.267 OA
HETATM   32  C   UNL     1      43.124 -11.399   6.220  1.00  0.00     0.048 A 
HETATM   33  C   UNL     1      44.061 -11.474   5.207  1.00  0.00     0.048 A 
HETATM   34  C   UNL     1      43.486 -11.240   7.543  1.00  0.00     0.018 A 
HETATM   35  C   UNL     1      43.339 -11.711   3.961  1.00  0.00     0.261 A 
HETATM   36  C   UNL     1      45.417 -11.395   5.455  1.00  0.00     0.018 A 
HETATM   37  O   UNL     1      43.859 -11.928   2.883  1.00  0.00    -0.267 OA
HETATM   38  C   UNL     1      45.811 -11.227   6.787  1.00  0.00     0.001 A 
HETATM   39  C   UNL     1      44.854 -11.150   7.821  1.00  0.00     0.001 A 
ENDBRANCH  28  29
ENDBRANCH   3  28
TORSDOF 6
ENDMDL
MODEL 2
REMARK VINA RESULT:     -10.4      2.403      7.610
REMARK  6 active torsions:
REMARK  status: ('A' for Active; 'I' for Inactive)
REMARK    1  A    between atoms: C_7  and  C_8 
REMARK    2  A    between atoms: C_8  and  C_9 
REMARK    3  A    between atoms: C_9  and  N_10 
REMARK    4  A    between atoms: C_12  and  C_13 
REMARK    5  A    between atoms: C_13  and  N_14 
REMARK    6  A    between atoms: C_36  and  O_37 
ROOT
HETATM    1  N   UNL     1      41.382 -11.230   6.879  1.00  0.00    -0.054 N 
HETATM    2  H   UNL     1      41.299 -11.654   7.832  1.00  0.00     0.281 HD
HETATM    3  C   UNL     1      42.831 -11.542   6.449  1.00  0.00     0.240 C 
HETATM    4  C   UNL     1      43.884 -10.689   7.161  1.00  0.00    -0.020 A 
HETATM    5  C   UNL     1      43.517  -9.581   7.953  1.00  0.00    -0.048 A 
HETATM    6  C   UNL     1      42.074  -9.214   8.164  1.00  0.00     0.067 C 
HETATM    7  C   UNL     1      41.176  -9.748   7.060  1.00  0.00     0.241 C 
HETATM    8  C   UNL     1      45.257 -10.959   7.004  1.00  0.00     0.010 A 
HETATM    9  C   UNL     1      46.226 -10.194   7.657  1.00  0.00     0.001 A 
HETATM   10  C   UNL     1      45.847  -9.133   8.468  1.00  0.00     0.001 A 
HETATM   11  C   UNL     1      44.499  -8.825   8.614  1.00  0.00     0.008 A 
ENDROOT
BRANCH   1  12
HETATM   12  C   UNL     1      40.260 -11.850   6.010  1.00  0.00     0.319 C 
BRANCH  12  13
HETATM   13  C   UNL     1      39.622 -10.871   5.029  1.00  0.00     0.188 C 
HETATM   14  O   UNL     1      38.610 -10.262   5.382  1.00  0.00    -0.290 OA
BRANCH  13  15
HETATM   15  C   UNL     1      40.196 -10.665   3.699  1.00  0.00     0.046 A 
HETATM   16  C   UNL     1      40.798  -9.471   3.311  1.00  0.00     0.020 A 
HETATM   17  C   UNL     1      40.971  -8.177   4.031  1.00  0.00     0.069 C 
HETATM   18  N   UNL     1      41.289  -9.633   2.042  1.00  0.00    -0.358 N 
HETATM   19  H   UNL     1      41.795  -8.931   1.516  1.00  0.00     0.166 HD
HETATM   20  C   UNL     1      41.015 -10.896   1.583  1.00  0.00     0.043 A 
HETATM   21  C   UNL     1      40.306 -11.566   2.581  1.00  0.00     0.009 A 
HETATM   22  C   UNL     1      41.357 -11.484   0.360  1.00  0.00     0.033 A 
HETATM   23  C   UNL     1      39.915 -12.896   2.309  1.00  0.00     0.051 A 
HETATM   24  C   UNL     1      40.244 -13.508   1.089  1.00  0.00     0.069 A 
HETATM   25  C   UNL     1      40.963 -12.804   0.130  1.00  0.00     0.039 A 
BRANCH  24  26
HETATM   26  O   UNL     1      39.801 -14.799   0.977  1.00  0.00    -0.356 OA
HETATM   27  C   UNL     1      39.684 -15.544   2.186  1.00  0.00     0.210 C 
ENDBRANCH  24  26
ENDBRANCH  13  15
ENDBRANCH  12  13
ENDBRANCH   1  12
BRANCH   3  28
HETATM   28  C   UNL     1      43.129 -13.070   6.507  1.00  0.00     0.173 C 
BRANCH  28  29
HETATM   29  N   UNL     1      42.957 -13.874   5.304  1.00  0.00    -0.278 N 
HETATM   30  C   UNL     1      43.207 -13.501   4.011  1.00  0.00     0.261 A 
HETATM   31  O   UNL     1      43.528 -12.399   3.600  1.00  0.00    -0.267 OA
HETATM   32  C   UNL     1      43.151 -14.710   3.192  1.00  0.00     0.048 A 
HETATM   33  C   UNL     1      42.950 -15.778   4.047  1.00  0.00     0.048 A 
HETATM   34  C   UNL     1      43.337 -14.884   1.835  1.00  0.00     0.018 A 
HETATM   35  C   UNL     1      42.863 -15.241   5.402  1.00  0.00     0.261 A 
HETATM   36  C   UNL     1      42.926 -17.083   3.597  1.00  0.00     0.018 A 
HETATM   37  O   UNL     1      42.788 -15.911   6.414  1.00  0.00    -0.267 OA
HETATM   38  C   UNL     1      43.106 -17.286   2.225  1.00  0.00     0.001 A 
HETATM   39  C   UNL     1      43.308 -16.196   1.352  1.00  0.00     0.001 A 
ENDBRANCH  28  29
ENDBRANCH   3  28
TORSDOF 6
ENDMDL
MODEL 3
REMARK VINA RESULT:     -10.4      2.317      5.447
REMARK  6 active torsions:
REMARK  status: ('A' for Active; 'I' for Inactive)
REMARK    1  A    between atoms: C_7  and  C_8 
REMARK    2  A    between atoms: C_8  and  C_9 
REMARK    3  A    between atoms: C_9  and  N_10 
REMARK    4  A    between atoms: C_12  and  C_13 
REMARK    5  A    between atoms: C_13  and  N_14 
REMARK    6  A    between atoms: C_36  and  O_37 
ROOT
HETATM    1  N   UNL     1      40.797 -13.974   4.386  1.00  0.00    -0.054 N 
HETATM    2  H   UNL     1      41.688 -13.470   4.603  1.00  0.00     0.281 HD
HETATM    3  C   UNL     1      40.177 -13.167   3.226  1.00  0.00     0.240 C 
HETATM    4  C   UNL     1      39.569 -11.830   3.660  1.00  0.00    -0.020 A 
HETATM    5  C   UNL     1      39.406 -11.508   5.024  1.00  0.00    -0.048 A 
HETATM    6  C   UNL     1      39.857 -12.445   6.109  1.00  0.00     0.067 C 
HETATM    7  C   UNL     1      39.948 -13.884   5.627  1.00  0.00     0.241 C 
HETATM    8  C   UNL     1      39.110 -10.903   2.706  1.00  0.00     0.010 A 
HETATM    9  C   UNL     1      38.565  -9.676   3.091  1.00  0.00     0.001 A 
HETATM   10  C   UNL     1      38.450  -9.355   4.436  1.00  0.00     0.001 A 
HETATM   11  C   UNL     1      38.867 -10.267   5.400  1.00  0.00     0.008 A 
ENDROOT
BRANCH   1  12
HETATM   12  C   UNL     1      41.177 -15.443   4.072  1.00  0.00     0.319 C 
BRANCH  12  13
HETATM   13  C   UNL     1      42.642 -15.776   4.340  1.00  0.00     0.188 C 
HETATM   14  O   UNL     1      43.509 -15.113   3.766  1.00  0.00    -0.290 OA
BRANCH  13  15
HETATM   15  C   UNL     1      43.008 -16.859   5.252  1.00  0.00     0.046 A 
HETATM   16  C   UNL     1      43.024 -16.710   6.637  1.00  0.00     0.020 A 
HETATM   17  C   UNL     1      42.758 -15.525   7.502  1.00  0.00     0.069 C 
HETATM   18  N   UNL     1      43.339 -17.922   7.193  1.00  0.00    -0.358 N 
HETATM   19  H   UNL     1      43.402 -18.112   8.186  1.00  0.00     0.166 HD
HETATM   20  C   UNL     1      43.540 -18.859   6.212  1.00  0.00     0.043 A 
HETATM   21  C   UNL     1      43.370 -18.225   4.979  1.00  0.00     0.009 A 
HETATM   22  C   UNL     1      43.850 -20.218   6.339  1.00  0.00     0.033 A 
HETATM   23  C   UNL     1      43.540 -19.017   3.821  1.00  0.00     0.051 A 
HETATM   24  C   UNL     1      43.853 -20.383   3.922  1.00  0.00     0.069 A 
HETATM   25  C   UNL     1      44.000 -20.972   5.172  1.00  0.00     0.039 A 
BRANCH  24  26
HETATM   26  O   UNL     1      43.980 -21.015   2.714  1.00  0.00    -0.356 OA
HETATM   27  C   UNL     1      43.481 -20.323   1.573  1.00  0.00     0.210 C 
ENDBRANCH  24  26
ENDBRANCH  13  15
ENDBRANCH  12  13
ENDBRANCH   1  12
BRANCH   3  28
HETATM   28  C   UNL     1      41.161 -13.039   2.026  1.00  0.00     0.173 C 
BRANCH  28  29
HETATM   29  N   UNL     1      40.728 -13.471   0.702  1.00  0.00    -0.278 N 
HETATM   30  C   UNL     1      40.142 -14.662   0.366  1.00  0.00     0.261 A 
HETATM   31  O   UNL     1      39.955 -15.631   1.082  1.00  0.00    -0.267 OA
HETATM   32  C   UNL     1      39.645 -14.530  -1.001  1.00  0.00     0.048 A 
HETATM   33  C   UNL     1      39.882 -13.227  -1.402  1.00  0.00     0.048 A 
HETATM   34  C   UNL     1      38.974 -15.431  -1.802  1.00  0.00     0.018 A 
HETATM   35  C   UNL     1      40.543 -12.544  -0.294  1.00  0.00     0.261 A 
HETATM   36  C   UNL     1      39.460 -12.749  -2.626  1.00  0.00     0.018 A 
HETATM   37  O   UNL     1      40.808 -11.358  -0.265  1.00  0.00    -0.267 OA
HETATM   38  C   UNL     1      38.782 -13.644  -3.460  1.00  0.00     0.001 A 
HETATM   39  C   UNL     1      38.542 -14.974  -3.052  1.00  0.00     0.001 A 
ENDBRANCH  28  29
ENDBRANCH   3  28
TORSDOF 6
ENDMDL
MODEL 4
REMARK VINA RESULT:     -10.3      2.243      7.907
REMARK  6 active torsions:
REMARK  status: ('A' for Active; 'I' for Inactive)
REMARK    1  A    between atoms: C_7  and  C_8 
REMARK    2  A    between atoms: C_8  and  C_9 
REMARK    3  A    between atoms: C_9  and  N_10 
REMARK    4  A    between atoms: C_12  and  C_13 
REMARK    5  A    between atoms: C_13  and  N_14 
REMARK    6  A    between atoms: C_36  and  O_37 
ROOT
HETATM    1  N   UNL     1      42.463 -13.726   5.756  1.00  0.00    -0.054 N 
HETATM    2  H   UNL     1      41.691 -14.254   6.225  1.00  0.00     0.281 HD
HETATM    3  C   UNL     1      42.441 -14.234   4.299  1.00  0.00     0.240 C 
HETATM    4  C   UNL     1      43.008 -15.646   4.129  1.00  0.00    -0.020 A 
HETATM    5  C   UNL     1      43.684 -16.296   5.182  1.00  0.00    -0.048 A 
HETATM    6  C   UNL     1      43.844 -15.647   6.529  1.00  0.00     0.067 C 
HETATM    7  C   UNL     1      43.734 -14.132   6.455  1.00  0.00     0.241 C 
HETATM    8  C   UNL     1      42.912 -16.317   2.895  1.00  0.00     0.010 A 
HETATM    9  C   UNL     1      43.415 -17.610   2.732  1.00  0.00     0.001 A 
HETATM   10  C   UNL     1      44.040 -18.254   3.791  1.00  0.00     0.001 A 
HETATM   11  C   UNL     1      44.177 -17.600   5.011  1.00  0.00     0.008 A 
ENDROOT
BRANCH   1  12
HETATM   12  C   UNL     1      42.167 -12.219   5.962  1.00  0.00     0.319 C 
BRANCH  12  13
HETATM   13  C   UNL     1      43.369 -11.312   5.716  1.00  0.00     0.188 C 
HETATM   14  O   UNL     1      43.561 -10.887   4.574  1.00  0.00    -0.290 OA
BRANCH  13  15
HETATM   15  C   UNL     1      44.276 -10.960   6.809  1.00  0.00     0.046 A 
HETATM   16  C   UNL     1      45.661 -11.072   6.709  1.00  0.00     0.020 A 
HETATM   17  C   UNL     1      46.530 -11.574   5.606  1.00  0.00     0.069 C 
HETATM   18  N   UNL     1      46.213 -10.600   7.871  1.00  0.00    -0.358 N 
HETATM   19  H   UNL     1      47.204 -10.542   8.067  1.00  0.00     0.166 HD
HETATM   20  C   UNL     1      45.228 -10.192   8.735  1.00  0.00     0.043 A 
HETATM   21  C   UNL     1      43.998 -10.429   8.117  1.00  0.00     0.009 A 
HETATM   22  C   UNL     1      45.350  -9.627  10.009  1.00  0.00     0.033 A 
HETATM   23  C   UNL     1      42.837 -10.082   8.845  1.00  0.00     0.051 A 
HETATM   24  C   UNL     1      42.933  -9.515  10.126  1.00  0.00     0.069 A 
HETATM   25  C   UNL     1      44.181  -9.287  10.694  1.00  0.00     0.039 A 
BRANCH  24  26
HETATM   26  O   UNL     1      41.723  -9.229  10.700  1.00  0.00    -0.356 OA
HETATM   27  C   UNL     1      41.516  -9.702  12.028  1.00  0.00     0.210 C 
ENDBRANCH  24  26
ENDBRANCH  13  15
ENDBRANCH  12  13
ENDBRANCH   1  12
BRANCH   3  28
HETATM   28  C   UNL     1      41.039 -14.047   3.648  1.00  0.00     0.173 C 
BRANCH  28  29
HETATM   29  N   UNL     1      40.927 -14.023   2.195  1.00  0.00    -0.278 N 
HETATM   30  C   UNL     1      40.198 -14.867   1.402  1.00  0.00     0.261 A 
HETATM   31  O   UNL     1      39.578 -15.861   1.740  1.00  0.00    -0.267 OA
HETATM   32  C   UNL     1      40.176 -14.291   0.059  1.00  0.00     0.048 A 
HETATM   33  C   UNL     1      40.828 -13.074   0.123  1.00  0.00     0.048 A 
HETATM   34  C   UNL     1      39.576 -14.740  -1.099  1.00  0.00     0.018 A 
HETATM   35  C   UNL     1      41.276 -12.890   1.500  1.00  0.00     0.261 A 
HETATM   36  C   UNL     1      40.917 -12.232  -0.968  1.00  0.00     0.018 A 
HETATM   37  O   UNL     1      41.798 -11.882   1.935  1.00  0.00    -0.267 OA
HETATM   38  C   UNL     1      40.322 -12.666  -2.157  1.00  0.00     0.001 A 
HETATM   39  C   UNL     1      39.659 -13.910  -2.222  1.00  0.00     0.001 A 
ENDBRANCH  28  29
ENDBRANCH   3  28
TORSDOF 6
ENDMDL
MODEL 5
REMARK VINA RESULT:     -10.2      2.489      7.824
REMARK  6 active torsions:
REMARK  status: ('A' for Active; 'I' for Inactive)
REMARK    1  A    between atoms: C_7  and  C_8 
REMARK    2  A    between atoms: C_8  and  C_9 
REMARK    3  A    between atoms: C_9  and  N_10 
REMARK    4  A    between atoms: C_12  and  C_13 
REMARK    5  A    between atoms: C_13  and  N_14 
REMARK    6  A    between atoms: C_36  and  O_37 
ROOT
HETATM    1  N   UNL     1      42.327 -14.186   5.402  1.00  0.00    -0.054 N 
HETATM    2  H   UNL     1      41.563 -14.722   5.875  1.00  0.00     0.281 HD
HETATM    3  C   UNL     1      42.376 -14.771   3.975  1.00  0.00     0.240 C 
HETATM    4  C   UNL     1      43.008 -16.163   3.900  1.00  0.00    -0.020 A 
HETATM    5  C   UNL     1      43.677 -16.725   5.007  1.00  0.00    -0.048 A 
HETATM    6  C   UNL     1      43.763 -15.998   6.321  1.00  0.00     0.067 C 
HETATM    7  C   UNL     1      43.591 -14.496   6.161  1.00  0.00     0.241 C 
HETATM    8  C   UNL     1      42.982 -16.902   2.702  1.00  0.00     0.010 A 
HETATM    9  C   UNL     1      43.546 -18.178   2.625  1.00  0.00     0.001 A 
HETATM   10  C   UNL     1      44.163 -18.736   3.737  1.00  0.00     0.001 A 
HETATM   11  C   UNL     1      44.231 -18.012   4.922  1.00  0.00     0.008 A 
ENDROOT
BRANCH   1  12
HETATM   12  C   UNL     1      41.959 -12.685   5.516  1.00  0.00     0.319 C 
BRANCH  12  13
HETATM   13  C   UNL     1      40.481 -12.427   5.794  1.00  0.00     0.188 C 
HETATM   14  O   UNL     1      39.835 -13.296   6.383  1.00  0.00    -0.290 OA
BRANCH  13  15
HETATM   15  C   UNL     1      39.846 -11.181   5.365  1.00  0.00     0.046 A 
HETATM   16  C   UNL     1      39.871 -10.017   6.129  1.00  0.00     0.020 A 
HETATM   17  C   UNL     1      40.439  -9.738   7.479  1.00  0.00     0.069 C 
HETATM   18  N   UNL     1      39.251  -9.025   5.416  1.00  0.00    -0.358 N 
HETATM   19  H   UNL     1      39.142  -8.065   5.720  1.00  0.00     0.166 HD
HETATM   20  C   UNL     1      38.811  -9.509   4.210  1.00  0.00     0.043 A 
HETATM   21  C   UNL     1      39.139 -10.864   4.152  1.00  0.00     0.009 A 
HETATM   22  C   UNL     1      38.157  -8.833   3.174  1.00  0.00     0.033 A 
HETATM   23  C   UNL     1      38.767 -11.566   2.983  1.00  0.00     0.051 A 
HETATM   24  C   UNL     1      38.108 -10.911   1.930  1.00  0.00     0.069 A 
HETATM   25  C   UNL     1      37.813  -9.556   2.029  1.00  0.00     0.039 A 
BRANCH  24  26
HETATM   26  O   UNL     1      37.819 -11.722   0.865  1.00  0.00    -0.356 OA
HETATM   27  C   UNL     1      37.466 -11.076  -0.355  1.00  0.00     0.210 C 
ENDBRANCH  24  26
ENDBRANCH  13  15
ENDBRANCH  12  13
ENDBRANCH   1  12
BRANCH   3  28
HETATM   28  C   UNL     1      40.988 -14.682   3.272  1.00  0.00     0.173 C 
BRANCH  28  29
HETATM   29  N   UNL     1      40.932 -14.389   1.845  1.00  0.00    -0.278 N 
HETATM   30  C   UNL     1      40.226 -15.062   0.885  1.00  0.00     0.261 A 
HETATM   31  O   UNL     1      39.585 -16.091   1.012  1.00  0.00    -0.267 OA
HETATM   32  C   UNL     1      40.260 -14.249  -0.328  1.00  0.00     0.048 A 
HETATM   33  C   UNL     1      40.920 -13.074  -0.018  1.00  0.00     0.048 A 
HETATM   34  C   UNL     1      39.700 -14.468  -1.571  1.00  0.00     0.018 A 
HETATM   35  C   UNL     1      41.316 -13.154   1.384  1.00  0.00     0.261 A 
HETATM   36  C   UNL     1      41.058 -12.048  -0.931  1.00  0.00     0.018 A 
HETATM   37  O   UNL     1      41.831 -12.251   2.016  1.00  0.00    -0.267 OA
HETATM   38  C   UNL     1      40.504 -12.246  -2.201  1.00  0.00     0.001 A 
HETATM   39  C   UNL     1      39.833 -13.446  -2.517  1.00  0.00     0.001 A 
ENDBRANCH  28  29
ENDBRANCH   3  28
TORSDOF 6
ENDMDL
MODEL 6
REMARK VINA RESULT:     -10.1      2.385      7.552
REMARK  6 active torsions:
REMARK  status: ('A' for Active; 'I' for Inactive)
REMARK    1  A    between atoms: C_7  and  C_8 
REMARK    2  A    between atoms: C_8  and  C_9 
REMARK    3  A    between atoms: C_9  and  N_10 
REMARK    4  A    between atoms: C_12  and  C_13 
REMARK    5  A    between atoms: C_13  and  N_14 
REMARK    6  A    between atoms: C_36  and  O_37 
ROOT
HETATM    1  N   UNL     1      42.705 -15.128   6.146  1.00  0.00    -0.054 N 
HETATM    2  H   UNL     1      42.044 -15.791   6.613  1.00  0.00     0.281 HD
HETATM    3  C   UNL     1      42.396 -15.280   4.642  1.00  0.00     0.240 C 
HETATM    4  C   UNL     1      42.923 -16.581   4.030  1.00  0.00    -0.020 A 
HETATM    5  C   UNL     1      43.798 -17.424   4.746  1.00  0.00    -0.048 A 
HETATM    6  C   UNL     1      44.220 -17.102   6.153  1.00  0.00     0.067 C 
HETATM    7  C   UNL     1      44.092 -15.621   6.468  1.00  0.00     0.241 C 
HETATM    8  C   UNL     1      42.586 -16.947   2.713  1.00  0.00     0.010 A 
HETATM    9  C   UNL     1      43.053 -18.137   2.150  1.00  0.00     0.001 A 
HETATM   10  C   UNL     1      43.879 -18.978   2.882  1.00  0.00     0.001 A 
HETATM   11  C   UNL     1      44.253 -18.623   4.174  1.00  0.00     0.008 A 
ENDROOT
BRANCH   1  12
HETATM   12  C   UNL     1      42.449 -13.730   6.761  1.00  0.00     0.319 C 
BRANCH  12  13
HETATM   13  C   UNL     1      43.413 -12.651   6.273  1.00  0.00     0.188 C 
HETATM   14  O   UNL     1      44.597 -12.727   6.607  1.00  0.00    -0.290 OA
BRANCH  13  15
HETATM   15  C   UNL     1      42.939 -11.551   5.433  1.00  0.00     0.046 A 
HETATM   16  C   UNL     1      43.164 -11.496   4.059  1.00  0.00     0.020 A 
HETATM   17  C   UNL     1      43.913 -12.407   3.148  1.00  0.00     0.069 C 
HETATM   18  N   UNL     1      42.535 -10.382   3.568  1.00  0.00    -0.358 N 
HETATM   19  H   UNL     1      42.514 -10.103   2.595  1.00  0.00     0.166 HD
HETATM   20  C   UNL     1      41.913  -9.699   4.583  1.00  0.00     0.043 A 
HETATM   21  C   UNL     1      42.167 -10.384   5.773  1.00  0.00     0.009 A 
HETATM   22  C   UNL     1      41.142  -8.533   4.519  1.00  0.00     0.033 A 
HETATM   23  C   UNL     1      41.617  -9.842   6.956  1.00  0.00     0.051 A 
HETATM   24  C   UNL     1      40.840  -8.672   6.918  1.00  0.00     0.069 A 
HETATM   25  C   UNL     1      40.605  -8.032   5.707  1.00  0.00     0.039 A 
BRANCH  24  26
HETATM   26  O   UNL     1      40.374  -8.275   8.143  1.00  0.00    -0.356 OA
HETATM   27  C   UNL     1      39.563  -9.207   8.853  1.00  0.00     0.210 C 
ENDBRANCH  24  26
ENDBRANCH  13  15
ENDBRANCH  12  13
ENDBRANCH   1  12
BRANCH   3  28
HETATM   28  C   UNL     1      40.891 -15.018   4.337  1.00  0.00     0.173 C 
BRANCH  28  29
HETATM   29  N   UNL     1      40.506 -13.784   3.662  1.00  0.00    -0.278 N 
HETATM   30  C   UNL     1      40.511 -13.535   2.317  1.00  0.00     0.261 A 
HETATM   31  O   UNL     1      40.926 -14.255   1.425  1.00  0.00    -0.267 OA
HETATM   32  C   UNL     1      39.794 -12.279   2.105  1.00  0.00     0.048 A 
HETATM   33  C   UNL     1      39.314 -11.867   3.335  1.00  0.00     0.048 A 
HETATM   34  C   UNL     1      39.511 -11.593   0.942  1.00  0.00     0.018 A 
HETATM   35  C   UNL     1      39.742 -12.853   4.323  1.00  0.00     0.261 A 
HETATM   36  C   UNL     1      38.522 -10.745   3.473  1.00  0.00     0.018 A 
HETATM   37  O   UNL     1      39.411 -12.856   5.493  1.00  0.00    -0.267 OA
HETATM   38  C   UNL     1      38.225 -10.028   2.310  1.00  0.00     0.001 A 
HETATM   39  C   UNL     1      38.717 -10.447   1.056  1.00  0.00     0.001 A 
ENDBRANCH  28  29
ENDBRANCH   3  28
TORSDOF 6
ENDMDL
MODEL 7
REMARK VINA RESULT:     -10.1      2.219      7.853
REMARK  6 active torsions:
REMARK  status: ('A' for Active; 'I' for Inactive)
REMARK    1  A    between atoms: C_7  and  C_8 
REMARK    2  A    between atoms: C_8  and  C_9 
REMARK    3  A    between atoms: C_9  and  N_10 
REMARK    4  A    between atoms: C_12  and  C_13 
REMARK    5  A    between atoms: C_13  and  N_14 
REMARK    6  A    between atoms: C_36  and  O_37 
ROOT
HETATM    1  N   UNL     1      42.460 -13.704   5.810  1.00  0.00    -0.054 N 
HETATM    2  H   UNL     1      41.765 -14.248   6.372  1.00  0.00     0.281 HD
HETATM    3  C   UNL     1      42.282 -14.231   4.371  1.00  0.00     0.240 C 
HETATM    4  C   UNL     1      42.867 -15.629   4.149  1.00  0.00    -0.020 A 
HETATM    5  C   UNL     1      43.682 -16.245   5.120  1.00  0.00    -0.048 A 
HETATM    6  C   UNL     1      43.980 -15.574   6.432  1.00  0.00     0.067 C 
HETATM    7  C   UNL     1      43.817 -14.064   6.357  1.00  0.00     0.241 C 
HETATM    8  C   UNL     1      42.646 -16.318   2.941  1.00  0.00     0.010 A 
HETATM    9  C   UNL     1      43.165 -17.598   2.732  1.00  0.00     0.001 A 
HETATM   10  C   UNL     1      43.930 -18.210   3.716  1.00  0.00     0.001 A 
HETATM   11  C   UNL     1      44.190 -17.536   4.904  1.00  0.00     0.008 A 
ENDROOT
BRANCH   1  12
HETATM   12  C   UNL     1      42.145 -12.204   6.035  1.00  0.00     0.319 C 
BRANCH  12  13
HETATM   13  C   UNL     1      43.332 -11.277   5.787  1.00  0.00     0.188 C 
HETATM   14  O   UNL     1      43.508 -10.840   4.648  1.00  0.00    -0.290 OA
BRANCH  13  15
HETATM   15  C   UNL     1      44.243 -10.921   6.875  1.00  0.00     0.046 A 
HETATM   16  C   UNL     1      45.627 -11.039   6.773  1.00  0.00     0.020 A 
HETATM   17  C   UNL     1      46.492 -11.554   5.672  1.00  0.00     0.069 C 
HETATM   18  N   UNL     1      46.183 -10.561   7.930  1.00  0.00    -0.358 N 
HETATM   19  H   UNL     1      47.175 -10.507   8.124  1.00  0.00     0.166 HD
HETATM   20  C   UNL     1      45.202 -10.143   8.793  1.00  0.00     0.043 A 
HETATM   21  C   UNL     1      43.970 -10.379   8.180  1.00  0.00     0.009 A 
HETATM   22  C   UNL     1      45.330  -9.568  10.062  1.00  0.00     0.033 A 
HETATM   23  C   UNL     1      42.812 -10.022   8.908  1.00  0.00     0.051 A 
HETATM   24  C   UNL     1      42.914  -9.445  10.184  1.00  0.00     0.069 A 
HETATM   25  C   UNL     1      44.164  -9.219  10.748  1.00  0.00     0.039 A 
BRANCH  24  26
HETATM   26  O   UNL     1      41.706  -9.150  10.758  1.00  0.00    -0.356 OA
HETATM   27  C   UNL     1      40.566  -9.176   9.903  1.00  0.00     0.210 C 
ENDBRANCH  24  26
ENDBRANCH  13  15
ENDBRANCH  12  13
ENDBRANCH   1  12
BRANCH   3  28
HETATM   28  C   UNL     1      40.807 -14.093   3.889  1.00  0.00     0.173 C 
BRANCH  28  29
HETATM   29  N   UNL     1      40.544 -13.738   2.500  1.00  0.00    -0.278 N 
HETATM   30  C   UNL     1      41.088 -12.704   1.787  1.00  0.00     0.261 A 
HETATM   31  O   UNL     1      41.822 -11.820   2.196  1.00  0.00    -0.267 OA
HETATM   32  C   UNL     1      40.739 -12.912   0.384  1.00  0.00     0.048 A 
HETATM   33  C   UNL     1      40.065 -14.117   0.302  1.00  0.00     0.048 A 
HETATM   34  C   UNL     1      41.046 -12.168  -0.736  1.00  0.00     0.018 A 
HETATM   35  C   UNL     1      39.974 -14.659   1.654  1.00  0.00     0.261 A 
HETATM   36  C   UNL     1      39.659 -14.649  -0.906  1.00  0.00     0.018 A 
HETATM   37  O   UNL     1      39.530 -15.755   1.938  1.00  0.00    -0.267 OA
HETATM   38  C   UNL     1      39.953 -13.911  -2.057  1.00  0.00     0.001 A 
HETATM   39  C   UNL     1      40.639 -12.681  -1.973  1.00  0.00     0.001 A 
ENDBRANCH  28  29
ENDBRANCH   3  28
TORSDOF 6
ENDMDL
MODEL 8
REMARK VINA RESULT:      -9.7      2.677      8.423
REMARK  6 active torsions:
REMARK  status: ('A' for Active; 'I' for Inactive)
REMARK    1  A    between atoms: C_7  and  C_8 
REMARK    2  A    between atoms: C_8  and  C_9 
REMARK    3  A    between atoms: C_9  and  N_10 
REMARK    4  A    between atoms: C_12  and  C_13 
REMARK    5  A    between atoms: C_13  and  N_14 
REMARK    6  A    between atoms: C_36  and  O_37 
ROOT
HETATM    1  N   UNL     1      42.198 -13.894   5.241  1.00  0.00    -0.054 N 
HETATM    2  H   UNL     1      41.483 -14.416   5.799  1.00  0.00     0.281 HD
HETATM    3  C   UNL     1      42.149 -14.557   3.848  1.00  0.00     0.240 C 
HETATM    4  C   UNL     1      42.802 -15.941   3.800  1.00  0.00    -0.020 A 
HETATM    5  C   UNL     1      43.565 -16.429   4.881  1.00  0.00    -0.048 A 
HETATM    6  C   UNL     1      43.736 -15.629   6.142  1.00  0.00     0.067 C 
HETATM    7  C   UNL     1      43.522 -14.142   5.915  1.00  0.00     0.241 C 
HETATM    8  C   UNL     1      42.700 -16.746   2.649  1.00  0.00     0.010 A 
HETATM    9  C   UNL     1      43.283 -18.014   2.598  1.00  0.00     0.001 A 
HETATM   10  C   UNL     1      43.994 -18.499   3.687  1.00  0.00     0.001 A 
HETATM   11  C   UNL     1      44.137 -17.710   4.823  1.00  0.00     0.008 A 
ENDROOT
BRANCH   1  12
HETATM   12  C   UNL     1      41.810 -12.395   5.301  1.00  0.00     0.319 C 
BRANCH  12  13
HETATM   13  C   UNL     1      40.419 -12.137   5.874  1.00  0.00     0.188 C 
HETATM   14  O   UNL     1      39.800 -13.085   6.363  1.00  0.00    -0.290 OA
BRANCH  13  15
HETATM   15  C   UNL     1      39.832 -10.798   5.836  1.00  0.00     0.046 A 
HETATM   16  C   UNL     1      39.079 -10.331   4.761  1.00  0.00     0.020 A 
HETATM   17  C   UNL     1      38.732 -10.962   3.456  1.00  0.00     0.069 C 
HETATM   18  N   UNL     1      38.623  -9.077   5.072  1.00  0.00    -0.358 N 
HETATM   19  H   UNL     1      38.032  -8.505   4.481  1.00  0.00     0.166 HD
HETATM   20  C   UNL     1      39.064  -8.704   6.317  1.00  0.00     0.043 A 
HETATM   21  C   UNL     1      39.849  -9.744   6.817  1.00  0.00     0.009 A 
HETATM   22  C   UNL     1      38.811  -7.525   7.026  1.00  0.00     0.033 A 
HETATM   23  C   UNL     1      40.415  -9.562   8.100  1.00  0.00     0.051 A 
HETATM   24  C   UNL     1      40.176  -8.387   8.831  1.00  0.00     0.069 A 
HETATM   25  C   UNL     1      39.377  -7.384   8.295  1.00  0.00     0.039 A 
BRANCH  24  26
HETATM   26  O   UNL     1      40.787  -8.362  10.056  1.00  0.00    -0.356 OA
HETATM   27  C   UNL     1      41.776  -9.359  10.300  1.00  0.00     0.210 C 
ENDBRANCH  24  26
ENDBRANCH  13  15
ENDBRANCH  12  13
ENDBRANCH   1  12
BRANCH   3  28
HETATM   28  C   UNL     1      40.711 -14.529   3.250  1.00  0.00     0.173 C 
BRANCH  28  29
HETATM   29  N   UNL     1      40.511 -14.010   1.903  1.00  0.00    -0.278 N 
HETATM   30  C   UNL     1      41.032 -12.863   1.367  1.00  0.00     0.261 A 
HETATM   31  O   UNL     1      41.685 -12.003   1.934  1.00  0.00    -0.267 OA
HETATM   32  C   UNL     1      40.782 -12.904  -0.071  1.00  0.00     0.048 A 
HETATM   33  C   UNL     1      40.189 -14.121  -0.352  1.00  0.00     0.048 A 
HETATM   34  C   UNL     1      41.110 -12.003  -1.065  1.00  0.00     0.018 A 
HETATM   35  C   UNL     1      40.051 -14.840   0.911  1.00  0.00     0.261 A 
HETATM   36  C   UNL     1      39.891 -14.511  -1.643  1.00  0.00     0.018 A 
HETATM   37  O   UNL     1      39.659 -15.986   1.022  1.00  0.00    -0.267 OA
HETATM   38  C   UNL     1      40.208 -13.614  -2.668  1.00  0.00     0.001 A 
HETATM   39  C   UNL     1      40.811 -12.370  -2.381  1.00  0.00     0.001 A 
ENDBRANCH  28  29
ENDBRANCH   3  28
TORSDOF 6
ENDMDL
MODEL 9
REMARK VINA RESULT:      -9.7     15.093     17.032
REMARK  6 active torsions:
REMARK  status: ('A' for Active; 'I' for Inactive)
REMARK    1  A    between atoms: C_7  and  C_8 
REMARK    2  A    between atoms: C_8  and  C_9 
REMARK    3  A    between atoms: C_9  and  N_10 
REMARK    4  A    between atoms: C_12  and  C_13 
REMARK    5  A    between atoms: C_13  and  N_14 
REMARK    6  A    between atoms: C_36  and  O_37 
ROOT
HETATM    1  N   UNL     1      46.765 -29.133   1.123  1.00  0.00    -0.054 N 
HETATM    2  H   UNL     1      47.297 -29.958   0.762  1.00  0.00     0.281 HD
HETATM    3  C   UNL     1      45.331 -29.343   0.592  1.00  0.00     0.240 C 
HETATM    4  C   UNL     1      45.180 -29.062  -0.906  1.00  0.00    -0.020 A 
HETATM    5  C   UNL     1      46.215 -28.453  -1.645  1.00  0.00    -0.048 A 
HETATM    6  C   UNL     1      47.525 -28.088  -1.004  1.00  0.00     0.067 C 
HETATM    7  C   UNL     1      47.402 -27.917   0.502  1.00  0.00     0.241 C 
HETATM    8  C   UNL     1      43.980 -29.361  -1.578  1.00  0.00     0.010 A 
HETATM    9  C   UNL     1      43.836 -29.120  -2.946  1.00  0.00     0.001 A 
HETATM   10  C   UNL     1      44.879 -28.559  -3.669  1.00  0.00     0.001 A 
HETATM   11  C   UNL     1      46.064 -28.224  -3.022  1.00  0.00     0.008 A 
ENDROOT
BRANCH   1  12
HETATM   12  C   UNL     1      46.931 -29.128   2.663  1.00  0.00     0.319 C 
BRANCH  12  13
HETATM   13  C   UNL     1      48.379 -29.249   3.131  1.00  0.00     0.188 C 
HETATM   14  O   UNL     1      48.893 -28.286   3.705  1.00  0.00    -0.290 OA
BRANCH  13  15
HETATM   15  C   UNL     1      49.140 -30.476   2.897  1.00  0.00     0.046 A 
HETATM   16  C   UNL     1      49.148 -31.544   3.792  1.00  0.00     0.020 A 
HETATM   17  C   UNL     1      48.503 -31.715   5.125  1.00  0.00     0.069 C 
HETATM   18  N   UNL     1      49.895 -32.554   3.245  1.00  0.00    -0.358 N 
HETATM   19  H   UNL     1      50.055 -33.459   3.669  1.00  0.00     0.166 HD
HETATM   20  C   UNL     1      50.386 -32.174   2.021  1.00  0.00     0.043 A 
HETATM   21  C   UNL     1      49.959 -30.867   1.780  1.00  0.00     0.009 A 
HETATM   22  C   UNL     1      51.168 -32.905   1.119  1.00  0.00     0.033 A 
HETATM   23  C   UNL     1      50.363 -30.274   0.562  1.00  0.00     0.051 A 
HETATM   24  C   UNL     1      51.148 -30.986  -0.359  1.00  0.00     0.069 A 
HETATM   25  C   UNL     1      51.539 -32.290  -0.079  1.00  0.00     0.039 A 
BRANCH  24  26
HETATM   26  O   UNL     1      51.453 -30.279  -1.492  1.00  0.00    -0.356 OA
HETATM   27  C   UNL     1      52.105 -30.995  -2.538  1.00  0.00     0.210 C 
ENDBRANCH  24  26
ENDBRANCH  13  15
ENDBRANCH  12  13
ENDBRANCH   1  12
BRANCH   3  28
HETATM   28  C   UNL     1      44.757 -30.725   1.023  1.00  0.00     0.173 C 
BRANCH  28  29
HETATM   29  N   UNL     1      43.859 -30.795   2.169  1.00  0.00    -0.278 N 
HETATM   30  C   UNL     1      42.540 -30.432   2.216  1.00  0.00     0.261 A 
HETATM   31  O   UNL     1      41.882 -29.891   1.344  1.00  0.00    -0.267 OA
HETATM   32  C   UNL     1      41.997 -30.934   3.477  1.00  0.00     0.048 A 
HETATM   33  C   UNL     1      42.999 -31.654   4.100  1.00  0.00     0.048 A 
HETATM   34  C   UNL     1      40.724 -30.845   4.003  1.00  0.00     0.018 A 
HETATM   35  C   UNL     1      44.178 -31.593   3.241  1.00  0.00     0.261 A 
HETATM   36  C   UNL     1      42.788 -32.329   5.285  1.00  0.00     0.018 A 
HETATM   37  O   UNL     1      45.214 -32.200   3.434  1.00  0.00    -0.267 OA
HETATM   38  C   UNL     1      41.508 -32.251   5.843  1.00  0.00     0.001 A 
HETATM   39  C   UNL     1      40.485 -31.514   5.208  1.00  0.00     0.001 A 
ENDBRANCH  28  29
ENDBRANCH   3  28
TORSDOF 6
ENDMDL
MODEL 10
REMARK VINA RESULT:      -9.7      2.325      8.052
REMARK  6 active torsions:
REMARK  status: ('A' for Active; 'I' for Inactive)
REMARK    1  A    between atoms: C_7  and  C_8 
REMARK    2  A    between atoms: C_8  and  C_9 
REMARK    3  A    between atoms: C_9  and  N_10 
REMARK    4  A    between atoms: C_12  and  C_13 
REMARK    5  A    between atoms: C_13  and  N_14 
REMARK    6  A    between atoms: C_36  and  O_37 
ROOT
HETATM    1  N   UNL     1      42.069 -14.112   4.806  1.00  0.00    -0.054 N 
HETATM    2  H   UNL     1      41.323 -14.590   5.363  1.00  0.00     0.281 HD
HETATM    3  C   UNL     1      42.022 -14.811   3.431  1.00  0.00     0.240 C 
HETATM    4  C   UNL     1      42.620 -16.220   3.433  1.00  0.00    -0.020 A 
HETATM    5  C   UNL     1      43.340 -16.708   4.542  1.00  0.00    -0.048 A 
HETATM    6  C   UNL     1      43.519 -15.881   5.785  1.00  0.00     0.067 C 
HETATM    7  C   UNL     1      43.368 -14.393   5.514  1.00  0.00     0.241 C 
HETATM    8  C   UNL     1      42.509 -17.052   2.302  1.00  0.00     0.010 A 
HETATM    9  C   UNL     1      43.041 -18.343   2.298  1.00  0.00     0.001 A 
HETATM   10  C   UNL     1      43.711 -18.826   3.414  1.00  0.00     0.001 A 
HETATM   11  C   UNL     1      43.863 -18.012   4.531  1.00  0.00     0.008 A 
ENDROOT
BRANCH   1  12
HETATM   12  C   UNL     1      41.739 -12.598   4.818  1.00  0.00     0.319 C 
BRANCH  12  13
HETATM   13  C   UNL     1      40.771 -12.183   5.922  1.00  0.00     0.188 C 
HETATM   14  O   UNL     1      40.001 -13.031   6.377  1.00  0.00    -0.290 OA
BRANCH  13  15
HETATM   15  C   UNL     1      40.754 -10.808   6.423  1.00  0.00     0.046 A 
HETATM   16  C   UNL     1      39.648  -9.970   6.295  1.00  0.00     0.020 A 
HETATM   17  C   UNL     1      38.326 -10.179   5.640  1.00  0.00     0.069 C 
HETATM   18  N   UNL     1      39.934  -8.788   6.926  1.00  0.00    -0.358 N 
HETATM   19  H   UNL     1      39.303  -8.001   7.009  1.00  0.00     0.166 HD
HETATM   20  C   UNL     1      41.201  -8.823   7.454  1.00  0.00     0.043 A 
HETATM   21  C   UNL     1      41.758 -10.063   7.135  1.00  0.00     0.009 A 
HETATM   22  C   UNL     1      41.875  -7.846   8.194  1.00  0.00     0.033 A 
HETATM   23  C   UNL     1      43.076 -10.309   7.583  1.00  0.00     0.051 A 
HETATM   24  C   UNL     1      43.775  -9.344   8.326  1.00  0.00     0.069 A 
HETATM   25  C   UNL     1      43.172  -8.129   8.629  1.00  0.00     0.039 A 
BRANCH  24  26
HETATM   26  O   UNL     1      45.036  -9.731   8.692  1.00  0.00    -0.356 OA
HETATM   27  C   UNL     1      45.330  -9.724  10.087  1.00  0.00     0.210 C 
ENDBRANCH  24  26
ENDBRANCH  13  15
ENDBRANCH  12  13
ENDBRANCH   1  12
BRANCH   3  28
HETATM   28  C   UNL     1      40.598 -14.744   2.802  1.00  0.00     0.173 C 
BRANCH  28  29
HETATM   29  N   UNL     1      40.427 -14.130   1.491  1.00  0.00    -0.278 N 
HETATM   30  C   UNL     1      40.963 -12.951   1.047  1.00  0.00     0.261 A 
HETATM   31  O   UNL     1      41.605 -12.135   1.686  1.00  0.00    -0.267 OA
HETATM   32  C   UNL     1      40.744 -12.890  -0.396  1.00  0.00     0.048 A 
HETATM   33  C   UNL     1      40.155 -14.083  -0.774  1.00  0.00     0.048 A 
HETATM   34  C   UNL     1      41.095 -11.924  -1.316  1.00  0.00     0.018 A 
HETATM   35  C   UNL     1      39.987 -14.888   0.433  1.00  0.00     0.261 A 
HETATM   36  C   UNL     1      39.884 -14.381  -2.094  1.00  0.00     0.018 A 
HETATM   37  O   UNL     1      39.591 -16.037   0.455  1.00  0.00    -0.267 OA
HETATM   38  C   UNL     1      40.224 -13.415  -3.047  1.00  0.00     0.001 A 
HETATM   39  C   UNL     1      40.823 -12.197  -2.661  1.00  0.00     0.001 A 
ENDBRANCH  28  29
ENDBRANCH   3  28
TORSDOF 6
ENDMDL
