MODEL 1
REMARK VINA RESULT:      -9.5      0.000      0.000
REMARK  7 active torsions:
REMARK  status: ('A' for Active; 'I' for Inactive)
REMARK    1  A    between atoms: O_2  and  C_3 
REMARK    2  A    between atoms: C_3  and  C_4 
REMARK    3  A    between atoms: C_6  and  N_7 
REMARK       I    between atoms: N_7  and  C_8 
REMARK    4  A    between atoms: C_8  and  C_9 
REMARK    5  A    between atoms: C_17  and  C_18 
REMARK    6  A    between atoms: C_18  and  N_19 
REMARK       I    between atoms: N_19  and  C_20 
REMARK    7  A    between atoms: C_20  and  C_21 
ROOT
HETATM    1  C   UNL     1      41.017 -13.289   5.297  1.00  0.00     0.042 A 
HETATM    2  C   UNL     1      41.311 -14.589   4.860  1.00  0.00     0.047 A 
HETATM    3  C   UNL     1      42.567 -15.151   5.104  1.00  0.00     0.036 A 
HETATM    4  C   UNL     1      43.526 -14.397   5.796  1.00  0.00     0.038 A 
HETATM    5  C   UNL     1      43.239 -13.106   6.267  1.00  0.00    -0.037 A 
HETATM    6  C   UNL     1      41.985 -12.551   5.992  1.00  0.00     0.026 A 
ENDROOT
BRANCH   5   7
HETATM    7  C   UNL     1      44.253 -12.345   7.079  1.00  0.00     0.161 C 
BRANCH   7   8
HETATM    8  N   UNL     1      43.642 -11.382   7.959  1.00  0.00    -0.351 N 
HETATM    9  C   UNL     1      44.351 -10.739   8.943  1.00  0.00     0.270 C 
HETATM   10  O   UNL     1      45.571 -10.832   9.036  1.00  0.00    -0.266 OA
HETATM   11  H   UNL     1      42.676 -11.144   7.808  1.00  0.00     0.163 HD
BRANCH   9  12
HETATM   12  C   UNL     1      43.576  -9.947   9.865  1.00  0.00     0.126 A 
HETATM   13  N   UNL     1      42.867 -10.560  10.871  1.00  0.00    -0.272 N 
HETATM   14  H   UNL     1      42.826 -11.557  11.059  1.00  0.00     0.189 HD
HETATM   15  N   UNL     1      42.163  -9.723  11.650  1.00  0.00    -0.178 NA
HETATM   16  C   UNL     1      42.408  -8.528  11.117  1.00  0.00     0.063 A 
HETATM   17  C   UNL     1      43.279  -8.599   9.999  1.00  0.00     0.002 A 
HETATM   18  C   UNL     1      41.775  -7.275  11.614  1.00  0.00     0.062 C 
HETATM   19  C   UNL     1      43.679  -7.390   9.226  1.00  0.00     0.043 C 
HETATM   20  C   UNL     1      42.759  -6.192   9.529  1.00  0.00     0.005 C 
HETATM   21  C   UNL     1      42.478  -6.038  11.034  1.00  0.00     0.006 C 
ENDBRANCH   9  12
ENDBRANCH   7   8
ENDBRANCH   5   7
BRANCH   3  22
HETATM   22  N   UNL     1      42.932 -16.464   4.729  1.00  0.00    -0.323 N 
HETATM   23  C   UNL     1      43.257 -16.914   3.461  1.00  0.00     0.256 C 
HETATM   24  O   UNL     1      43.397 -16.222   2.459  1.00  0.00    -0.267 OA
HETATM   25  H   UNL     1      42.976 -17.131   5.488  1.00  0.00     0.169 HD
BRANCH  23  26
HETATM   26  C   UNL     1      43.470 -18.385   3.326  1.00  0.00     0.035 A 
HETATM   27  C   UNL     1      43.315 -19.060   2.113  1.00  0.00     0.036 A 
HETATM   28  C   UNL     1      43.564 -20.421   2.093  1.00  0.00     0.117 A 
HETATM   29  N   UNL     1      43.953 -21.131   3.172  1.00  0.00    -0.273 NA
HETATM   30  C   UNL     1      44.120 -20.452   4.326  1.00  0.00     0.117 A 
HETATM   31  C   UNL     1      43.894 -19.094   4.453  1.00  0.00     0.036 A 
ENDBRANCH  23  26
ENDBRANCH   3  22
BRANCH   1  32
HETATM   32  C   UNL     1      39.690 -12.654   5.071  1.00  0.00     0.293 C 
HETATM   33  O   UNL     1      39.234 -12.438   3.958  1.00  0.00    -0.259 OA
BRANCH  32  34
HETATM   34  O   UNL     1      39.104 -12.328   6.248  1.00  0.00    -0.323 OA
HETATM   35  C   UNL     1      38.681 -10.967   6.337  1.00  0.00     0.213 C 
ENDBRANCH  32  34
ENDBRANCH   1  32
TORSDOF 7
ENDMDL
MODEL 2
REMARK VINA RESULT:      -9.2      4.365      7.102
REMARK  7 active torsions:
REMARK  status: ('A' for Active; 'I' for Inactive)
REMARK    1  A    between atoms: O_2  and  C_3 
REMARK    2  A    between atoms: C_3  and  C_4 
REMARK    3  A    between atoms: C_6  and  N_7 
REMARK       I    between atoms: N_7  and  C_8 
REMARK    4  A    between atoms: C_8  and  C_9 
REMARK    5  A    between atoms: C_17  and  C_18 
REMARK    6  A    between atoms: C_18  and  N_19 
REMARK       I    between atoms: N_19  and  C_20 
REMARK    7  A    between atoms: C_20  and  C_21 
ROOT
HETATM    1  C   UNL     1      43.433 -17.616   3.187  1.00  0.00     0.042 A 
HETATM    2  C   UNL     1      42.869 -17.040   2.039  1.00  0.00     0.047 A 
HETATM    3  C   UNL     1      42.380 -15.732   2.070  1.00  0.00     0.036 A 
HETATM    4  C   UNL     1      42.466 -15.002   3.265  1.00  0.00     0.038 A 
HETATM    5  C   UNL     1      43.054 -15.551   4.416  1.00  0.00    -0.037 A 
HETATM    6  C   UNL     1      43.517 -16.871   4.372  1.00  0.00     0.026 A 
ENDROOT
BRANCH   5   7
HETATM    7  C   UNL     1      43.211 -14.725   5.663  1.00  0.00     0.161 C 
BRANCH   7   8
HETATM    8  N   UNL     1      42.366 -13.558   5.660  1.00  0.00    -0.351 N 
HETATM    9  C   UNL     1      41.051 -13.608   6.047  1.00  0.00     0.270 C 
HETATM   10  O   UNL     1      40.557 -14.609   6.557  1.00  0.00    -0.266 OA
HETATM   11  H   UNL     1      42.777 -12.673   5.412  1.00  0.00     0.163 HD
BRANCH   9  12
HETATM   12  C   UNL     1      40.279 -12.412   5.817  1.00  0.00     0.126 A 
HETATM   13  N   UNL     1      39.856 -11.651   6.881  1.00  0.00    -0.272 N 
HETATM   14  H   UNL     1      40.037 -11.834   7.863  1.00  0.00     0.189 HD
HETATM   15  N   UNL     1      39.123 -10.577   6.545  1.00  0.00    -0.178 NA
HETATM   16  C   UNL     1      39.052 -10.657   5.218  1.00  0.00     0.063 A 
HETATM   17  C   UNL     1      39.748 -11.781   4.702  1.00  0.00     0.002 A 
HETATM   18  C   UNL     1      38.267  -9.700   4.391  1.00  0.00     0.062 C 
HETATM   19  C   UNL     1      39.790 -12.088   3.245  1.00  0.00     0.043 C 
HETATM   20  C   UNL     1      38.709 -11.312   2.469  1.00  0.00     0.005 C 
HETATM   21  C   UNL     1      38.625  -9.838   2.903  1.00  0.00     0.006 C 
ENDBRANCH   9  12
ENDBRANCH   7   8
ENDBRANCH   5   7
BRANCH   3  22
HETATM   22  N   UNL     1      41.830 -15.066   0.951  1.00  0.00    -0.323 N 
HETATM   23  C   UNL     1      40.490 -14.842   0.684  1.00  0.00     0.256 C 
HETATM   24  O   UNL     1      39.551 -15.082   1.434  1.00  0.00    -0.267 OA
HETATM   25  H   UNL     1      42.506 -14.701   0.293  1.00  0.00     0.169 HD
BRANCH  23  26
HETATM   26  C   UNL     1      40.183 -14.234  -0.644  1.00  0.00     0.035 A 
HETATM   27  C   UNL     1      40.737 -13.023  -1.063  1.00  0.00     0.036 A 
HETATM   28  C   UNL     1      40.406 -12.561  -2.325  1.00  0.00     0.117 A 
HETATM   29  N   UNL     1      39.587 -13.216  -3.175  1.00  0.00    -0.273 NA
HETATM   30  C   UNL     1      39.085 -14.396  -2.756  1.00  0.00     0.117 A 
HETATM   31  C   UNL     1      39.350 -14.942  -1.514  1.00  0.00     0.036 A 
ENDBRANCH  23  26
ENDBRANCH   3  22
BRANCH   1  32
HETATM   32  C   UNL     1      43.978 -19.001   3.198  1.00  0.00     0.293 C 
HETATM   33  O   UNL     1      43.848 -19.777   2.263  1.00  0.00    -0.259 OA
BRANCH  32  34
HETATM   34  O   UNL     1      44.584 -19.272   4.379  1.00  0.00    -0.323 OA
HETATM   35  C   UNL     1      44.234 -20.537   4.942  1.00  0.00     0.213 C 
ENDBRANCH  32  34
ENDBRANCH   1  32
TORSDOF 7
ENDMDL
MODEL 3
REMARK VINA RESULT:      -9.1      3.507      6.277
REMARK  7 active torsions:
REMARK  status: ('A' for Active; 'I' for Inactive)
REMARK    1  A    between atoms: O_2  and  C_3 
REMARK    2  A    between atoms: C_3  and  C_4 
REMARK    3  A    between atoms: C_6  and  N_7 
REMARK       I    between atoms: N_7  and  C_8 
REMARK    4  A    between atoms: C_8  and  C_9 
REMARK    5  A    between atoms: C_17  and  C_18 
REMARK    6  A    between atoms: C_18  and  N_19 
REMARK       I    between atoms: N_19  and  C_20 
REMARK    7  A    between atoms: C_20  and  C_21 
ROOT
HETATM    1  C   UNL     1      42.953 -17.453   3.785  1.00  0.00     0.042 A 
HETATM    2  C   UNL     1      42.272 -16.993   2.648  1.00  0.00     0.047 A 
HETATM    3  C   UNL     1      41.355 -15.944   2.748  1.00  0.00     0.036 A 
HETATM    4  C   UNL     1      41.127 -15.356   4.001  1.00  0.00     0.038 A 
HETATM    5  C   UNL     1      41.821 -15.784   5.145  1.00  0.00    -0.037 A 
HETATM    6  C   UNL     1      42.718 -16.851   5.029  1.00  0.00     0.026 A 
ENDROOT
BRANCH   5   7
HETATM    7  C   UNL     1      41.625 -15.086   6.464  1.00  0.00     0.161 C 
BRANCH   7   8
HETATM    8  N   UNL     1      42.651 -14.110   6.728  1.00  0.00    -0.351 N 
HETATM    9  C   UNL     1      42.495 -12.783   6.413  1.00  0.00     0.270 C 
HETATM   10  O   UNL     1      41.424 -12.324   6.028  1.00  0.00    -0.266 OA
HETATM   11  H   UNL     1      43.485 -14.412   7.204  1.00  0.00     0.163 HD
BRANCH   9  12
HETATM   12  C   UNL     1      43.667 -11.957   6.561  1.00  0.00     0.126 A 
HETATM   13  N   UNL     1      44.603 -11.905   5.554  1.00  0.00    -0.272 N 
HETATM   14  H   UNL     1      44.563 -12.398   4.667  1.00  0.00     0.189 HD
HETATM   15  N   UNL     1      45.664 -11.124   5.815  1.00  0.00    -0.178 NA
HETATM   16  C   UNL     1      45.416 -10.670   7.041  1.00  0.00     0.063 A 
HETATM   17  C   UNL     1      44.189 -11.156   7.565  1.00  0.00     0.002 A 
HETATM   18  C   UNL     1      46.367  -9.804   7.791  1.00  0.00     0.062 C 
HETATM   19  C   UNL     1      43.712 -10.800   8.930  1.00  0.00     0.043 C 
HETATM   20  C   UNL     1      44.844 -10.211   9.792  1.00  0.00     0.005 C 
HETATM   21  C   UNL     1      45.689  -9.181   9.021  1.00  0.00     0.006 C 
ENDBRANCH   9  12
ENDBRANCH   7   8
ENDBRANCH   5   7
BRANCH   3  22
HETATM   22  N   UNL     1      40.655 -15.398   1.648  1.00  0.00    -0.323 N 
HETATM   23  C   UNL     1      40.897 -14.190   1.016  1.00  0.00     0.256 C 
HETATM   24  O   UNL     1      41.839 -13.435   1.230  1.00  0.00    -0.267 OA
HETATM   25  H   UNL     1      39.911 -15.977   1.280  1.00  0.00     0.169 HD
BRANCH  23  26
HETATM   26  C   UNL     1      39.913 -13.795  -0.035  1.00  0.00     0.035 A 
HETATM   27  C   UNL     1      39.582 -14.627  -1.106  1.00  0.00     0.036 A 
HETATM   28  C   UNL     1      38.636 -14.174  -2.010  1.00  0.00     0.117 A 
HETATM   29  N   UNL     1      38.013 -12.981  -1.912  1.00  0.00    -0.273 NA
HETATM   30  C   UNL     1      38.333 -12.207  -0.854  1.00  0.00     0.117 A 
HETATM   31  C   UNL     1      39.265 -12.565   0.101  1.00  0.00     0.036 A 
ENDBRANCH  23  26
ENDBRANCH   3  22
BRANCH   1  32
HETATM   32  C   UNL     1      43.947 -18.558   3.725  1.00  0.00     0.293 C 
HETATM   33  O   UNL     1      44.332 -19.054   2.677  1.00  0.00    -0.259 OA
BRANCH  32  34
HETATM   34  O   UNL     1      44.317 -18.943   4.970  1.00  0.00    -0.323 OA
HETATM   35  C   UNL     1      44.150 -20.337   5.228  1.00  0.00     0.213 C 
ENDBRANCH  32  34
ENDBRANCH   1  32
TORSDOF 7
ENDMDL
MODEL 4
REMARK VINA RESULT:      -9.0      3.784      7.679
REMARK  7 active torsions:
REMARK  status: ('A' for Active; 'I' for Inactive)
REMARK    1  A    between atoms: O_2  and  C_3 
REMARK    2  A    between atoms: C_3  and  C_4 
REMARK    3  A    between atoms: C_6  and  N_7 
REMARK       I    between atoms: N_7  and  C_8 
REMARK    4  A    between atoms: C_8  and  C_9 
REMARK    5  A    between atoms: C_17  and  C_18 
REMARK    6  A    between atoms: C_18  and  N_19 
REMARK       I    between atoms: N_19  and  C_20 
REMARK    7  A    between atoms: C_20  and  C_21 
ROOT
HETATM    1  C   UNL     1      43.654 -12.921   6.383  1.00  0.00     0.042 A 
HETATM    2  C   UNL     1      43.969 -14.251   6.067  1.00  0.00     0.047 A 
HETATM    3  C   UNL     1      43.059 -15.048   5.368  1.00  0.00     0.036 A 
HETATM    4  C   UNL     1      41.828 -14.497   4.985  1.00  0.00     0.038 A 
HETATM    5  C   UNL     1      41.507 -13.159   5.266  1.00  0.00    -0.037 A 
HETATM    6  C   UNL     1      42.421 -12.384   5.987  1.00  0.00     0.026 A 
ENDROOT
BRANCH   5   7
HETATM    7  C   UNL     1      40.216 -12.562   4.774  1.00  0.00     0.161 C 
BRANCH   7   8
HETATM    8  N   UNL     1      40.302 -12.115   3.408  1.00  0.00    -0.351 N 
HETATM    9  C   UNL     1      39.914 -12.905   2.355  1.00  0.00     0.270 C 
HETATM   10  O   UNL     1      39.336 -13.975   2.519  1.00  0.00    -0.266 OA
HETATM   11  H   UNL     1      40.611 -11.173   3.233  1.00  0.00     0.163 HD
BRANCH   9  12
HETATM   12  C   UNL     1      40.229 -12.405   1.040  1.00  0.00     0.126 A 
HETATM   13  N   UNL     1      40.581 -11.086   0.872  1.00  0.00    -0.272 N 
HETATM   14  H   UNL     1      40.659 -10.385   1.602  1.00  0.00     0.189 HD
HETATM   15  N   UNL     1      40.826 -10.729  -0.400  1.00  0.00    -0.178 NA
HETATM   16  C   UNL     1      40.604 -11.851  -1.081  1.00  0.00     0.063 A 
HETATM   17  C   UNL     1      40.224 -12.932  -0.243  1.00  0.00     0.002 A 
HETATM   18  C   UNL     1      40.685 -11.925  -2.566  1.00  0.00     0.062 C 
HETATM   19  C   UNL     1      39.904 -14.281  -0.784  1.00  0.00     0.043 C 
HETATM   20  C   UNL     1      39.656 -14.240  -2.304  1.00  0.00     0.005 C 
HETATM   21  C   UNL     1      40.701 -13.386  -3.042  1.00  0.00     0.006 C 
ENDBRANCH   9  12
ENDBRANCH   7   8
ENDBRANCH   5   7
BRANCH   3  22
HETATM   22  N   UNL     1      43.312 -16.383   4.980  1.00  0.00    -0.323 N 
HETATM   23  C   UNL     1      43.459 -16.868   3.692  1.00  0.00     0.256 C 
HETATM   24  O   UNL     1      43.511 -16.199   2.666  1.00  0.00    -0.267 OA
HETATM   25  H   UNL     1      43.414 -17.041   5.742  1.00  0.00     0.169 HD
BRANCH  23  26
HETATM   26  C   UNL     1      43.582 -18.350   3.563  1.00  0.00     0.035 A 
HETATM   27  C   UNL     1      43.347 -19.023   2.362  1.00  0.00     0.036 A 
HETATM   28  C   UNL     1      43.516 -20.397   2.345  1.00  0.00     0.117 A 
HETATM   29  N   UNL     1      43.900 -21.120   3.418  1.00  0.00    -0.273 NA
HETATM   30  C   UNL     1      44.145 -20.444   4.559  1.00  0.00     0.117 A 
HETATM   31  C   UNL     1      44.002 -19.074   4.681  1.00  0.00     0.036 A 
ENDBRANCH  23  26
ENDBRANCH   3  22
BRANCH   1  32
HETATM   32  C   UNL     1      44.597 -12.031   7.115  1.00  0.00     0.293 C 
HETATM   33  O   UNL     1      45.638 -11.617   6.628  1.00  0.00    -0.259 OA
BRANCH  32  34
HETATM   34  O   UNL     1      44.157 -11.792   8.373  1.00  0.00    -0.323 OA
HETATM   35  C   UNL     1      44.464 -10.488   8.865  1.00  0.00     0.213 C 
ENDBRANCH  32  34
ENDBRANCH   1  32
TORSDOF 7
ENDMDL
MODEL 5
REMARK VINA RESULT:      -9.0      2.428      3.856
REMARK  7 active torsions:
REMARK  status: ('A' for Active; 'I' for Inactive)
REMARK    1  A    between atoms: O_2  and  C_3 
REMARK    2  A    between atoms: C_3  and  C_4 
REMARK    3  A    between atoms: C_6  and  N_7 
REMARK       I    between atoms: N_7  and  C_8 
REMARK    4  A    between atoms: C_8  and  C_9 
REMARK    5  A    between atoms: C_17  and  C_18 
REMARK    6  A    between atoms: C_18  and  N_19 
REMARK       I    between atoms: N_19  and  C_20 
REMARK    7  A    between atoms: C_20  and  C_21 
ROOT
HETATM    1  C   UNL     1      40.012 -13.667   1.720  1.00  0.00     0.042 A 
HETATM    2  C   UNL     1      40.710 -14.878   1.835  1.00  0.00     0.047 A 
HETATM    3  C   UNL     1      41.076 -15.368   3.091  1.00  0.00     0.036 A 
HETATM    4  C   UNL     1      40.731 -14.633   4.235  1.00  0.00     0.038 A 
HETATM    5  C   UNL     1      40.007 -13.434   4.141  1.00  0.00    -0.037 A 
HETATM    6  C   UNL     1      39.670 -12.947   2.874  1.00  0.00     0.026 A 
ENDROOT
BRANCH   5   7
HETATM    7  C   UNL     1      39.575 -12.702   5.383  1.00  0.00     0.161 C 
BRANCH   7   8
HETATM    8  N   UNL     1      40.688 -12.345   6.226  1.00  0.00    -0.351 N 
HETATM    9  C   UNL     1      41.390 -11.178   6.053  1.00  0.00     0.270 C 
HETATM   10  O   UNL     1      41.024 -10.305   5.272  1.00  0.00    -0.266 OA
HETATM   11  H   UNL     1      40.918 -12.952   6.995  1.00  0.00     0.163 HD
BRANCH   9  12
HETATM   12  C   UNL     1      42.588 -11.039   6.842  1.00  0.00     0.126 A 
HETATM   13  N   UNL     1      43.345 -12.147   7.144  1.00  0.00    -0.272 N 
HETATM   14  H   UNL     1      43.158 -13.102   6.857  1.00  0.00     0.189 HD
HETATM   15  N   UNL     1      44.422 -11.898   7.907  1.00  0.00    -0.178 NA
HETATM   16  C   UNL     1      44.348 -10.587   8.124  1.00  0.00     0.063 A 
HETATM   17  C   UNL     1      43.225  -9.992   7.491  1.00  0.00     0.002 A 
HETATM   18  C   UNL     1      45.310  -9.854   8.993  1.00  0.00     0.062 C 
HETATM   19  C   UNL     1      42.924  -8.538   7.610  1.00  0.00     0.043 C 
HETATM   20  C   UNL     1      43.706  -7.889   8.768  1.00  0.00     0.005 C 
HETATM   21  C   UNL     1      45.178  -8.336   8.800  1.00  0.00     0.006 C 
ENDBRANCH   9  12
ENDBRANCH   7   8
ENDBRANCH   5   7
BRANCH   3  22
HETATM   22  N   UNL     1      41.747 -16.595   3.297  1.00  0.00    -0.323 N 
HETATM   23  C   UNL     1      42.939 -17.004   2.722  1.00  0.00     0.256 C 
HETATM   24  O   UNL     1      43.679 -16.323   2.023  1.00  0.00    -0.267 OA
HETATM   25  H   UNL     1      41.306 -17.223   3.955  1.00  0.00     0.169 HD
BRANCH  23  26
HETATM   26  C   UNL     1      43.352 -18.410   3.009  1.00  0.00     0.035 A 
HETATM   27  C   UNL     1      43.841 -18.811   4.254  1.00  0.00     0.036 A 
HETATM   28  C   UNL     1      44.169 -20.146   4.422  1.00  0.00     0.117 A 
HETATM   29  N   UNL     1      44.037 -21.079   3.457  1.00  0.00    -0.273 NA
HETATM   30  C   UNL     1      43.539 -20.671   2.271  1.00  0.00     0.117 A 
HETATM   31  C   UNL     1      43.185 -19.362   2.001  1.00  0.00     0.036 A 
ENDBRANCH  23  26
ENDBRANCH   3  22
BRANCH   1  32
HETATM   32  C   UNL     1      39.591 -13.112   0.405  1.00  0.00     0.293 C 
HETATM   33  O   UNL     1      38.938 -12.085   0.292  1.00  0.00    -0.259 OA
BRANCH  32  34
HETATM   34  O   UNL     1      39.996 -13.913  -0.609  1.00  0.00    -0.323 OA
HETATM   35  C   UNL     1      39.007 -14.131  -1.616  1.00  0.00     0.213 C 
ENDBRANCH  32  34
ENDBRANCH   1  32
TORSDOF 7
ENDMDL
MODEL 6
REMARK VINA RESULT:      -8.8      4.742      9.942
REMARK  7 active torsions:
REMARK  status: ('A' for Active; 'I' for Inactive)
REMARK    1  A    between atoms: O_2  and  C_3 
REMARK    2  A    between atoms: C_3  and  C_4 
REMARK    3  A    between atoms: C_6  and  N_7 
REMARK       I    between atoms: N_7  and  C_8 
REMARK    4  A    between atoms: C_8  and  C_9 
REMARK    5  A    between atoms: C_17  and  C_18 
REMARK    6  A    between atoms: C_18  and  N_19 
REMARK       I    between atoms: N_19  and  C_20 
REMARK    7  A    between atoms: C_20  and  C_21 
ROOT
HETATM    1  C   UNL     1      42.868 -17.090   3.219  1.00  0.00     0.042 A 
HETATM    2  C   UNL     1      43.266 -16.078   4.105  1.00  0.00     0.047 A 
HETATM    3  C   UNL     1      42.578 -14.863   4.147  1.00  0.00     0.036 A 
HETATM    4  C   UNL     1      41.482 -14.672   3.292  1.00  0.00     0.038 A 
HETATM    5  C   UNL     1      41.051 -15.685   2.419  1.00  0.00    -0.037 A 
HETATM    6  C   UNL     1      41.767 -16.886   2.375  1.00  0.00     0.026 A 
ENDROOT
BRANCH   5   7
HETATM    7  C   UNL     1      39.824 -15.491   1.570  1.00  0.00     0.161 C 
BRANCH   7   8
HETATM    8  N   UNL     1      39.985 -14.435   0.604  1.00  0.00    -0.351 N 
HETATM    9  C   UNL     1      39.657 -14.599  -0.719  1.00  0.00     0.270 C 
HETATM   10  O   UNL     1      39.072 -15.597  -1.128  1.00  0.00    -0.266 OA
HETATM   11  H   UNL     1      40.302 -13.536   0.928  1.00  0.00     0.163 HD
BRANCH   9  12
HETATM   12  C   UNL     1      40.043 -13.527  -1.603  1.00  0.00     0.126 A 
HETATM   13  N   UNL     1      40.946 -13.761  -2.614  1.00  0.00    -0.272 N 
HETATM   14  H   UNL     1      41.392 -14.646  -2.831  1.00  0.00     0.189 HD
HETATM   15  N   UNL     1      41.248 -12.682  -3.355  1.00  0.00    -0.178 NA
HETATM   16  C   UNL     1      40.532 -11.712  -2.791  1.00  0.00     0.063 A 
HETATM   17  C   UNL     1      39.762 -12.172  -1.691  1.00  0.00     0.002 A 
HETATM   18  C   UNL     1      40.597 -10.294  -3.238  1.00  0.00     0.062 C 
HETATM   19  C   UNL     1      38.898 -11.261  -0.891  1.00  0.00     0.043 C 
HETATM   20  C   UNL     1      39.246  -9.781  -1.141  1.00  0.00     0.005 C 
HETATM   21  C   UNL     1      39.446  -9.474  -2.635  1.00  0.00     0.006 C 
ENDBRANCH   9  12
ENDBRANCH   7   8
ENDBRANCH   5   7
BRANCH   3  22
HETATM   22  N   UNL     1      42.890 -13.807   5.033  1.00  0.00    -0.323 N 
HETATM   23  C   UNL     1      43.441 -12.578   4.711  1.00  0.00     0.256 C 
HETATM   24  O   UNL     1      43.646 -12.147   3.582  1.00  0.00    -0.267 OA
HETATM   25  H   UNL     1      42.660 -13.977   6.003  1.00  0.00     0.169 HD
BRANCH  23  26
HETATM   26  C   UNL     1      43.797 -11.701   5.866  1.00  0.00     0.035 A 
HETATM   27  C   UNL     1      42.890 -10.807   6.439  1.00  0.00     0.036 A 
HETATM   28  C   UNL     1      43.315 -10.060   7.525  1.00  0.00     0.117 A 
HETATM   29  N   UNL     1      44.549 -10.151   8.063  1.00  0.00    -0.273 NA
HETATM   30  C   UNL     1      45.398 -11.040   7.507  1.00  0.00     0.117 A 
HETATM   31  C   UNL     1      45.073 -11.830   6.420  1.00  0.00     0.036 A 
ENDBRANCH  23  26
ENDBRANCH   3  22
BRANCH   1  32
HETATM   32  C   UNL     1      43.562 -18.405   3.148  1.00  0.00     0.293 C 
HETATM   33  O   UNL     1      44.570 -18.663   3.789  1.00  0.00    -0.259 OA
BRANCH  32  34
HETATM   34  O   UNL     1      42.949 -19.227   2.264  1.00  0.00    -0.323 OA
HETATM   35  C   UNL     1      43.708 -20.384   1.913  1.00  0.00     0.213 C 
ENDBRANCH  32  34
ENDBRANCH   1  32
TORSDOF 7
ENDMDL
MODEL 7
REMARK VINA RESULT:      -8.6      3.941      5.516
REMARK  7 active torsions:
REMARK  status: ('A' for Active; 'I' for Inactive)
REMARK    1  A    between atoms: O_2  and  C_3 
REMARK    2  A    between atoms: C_3  and  C_4 
REMARK    3  A    between atoms: C_6  and  N_7 
REMARK       I    between atoms: N_7  and  C_8 
REMARK    4  A    between atoms: C_8  and  C_9 
REMARK    5  A    between atoms: C_17  and  C_18 
REMARK    6  A    between atoms: C_18  and  N_19 
REMARK       I    between atoms: N_19  and  C_20 
REMARK    7  A    between atoms: C_20  and  C_21 
ROOT
HETATM    1  C   UNL     1      41.075 -15.067   4.896  1.00  0.00     0.042 A 
HETATM    2  C   UNL     1      40.626 -15.217   3.575  1.00  0.00     0.047 A 
HETATM    3  C   UNL     1      39.927 -14.186   2.943  1.00  0.00     0.036 A 
HETATM    4  C   UNL     1      39.683 -12.998   3.649  1.00  0.00     0.038 A 
HETATM    5  C   UNL     1      40.150 -12.818   4.961  1.00  0.00    -0.037 A 
HETATM    6  C   UNL     1      40.828 -13.871   5.585  1.00  0.00     0.026 A 
ENDROOT
BRANCH   5   7
HETATM    7  C   UNL     1      39.950 -11.507   5.671  1.00  0.00     0.161 C 
BRANCH   7   8
HETATM    8  N   UNL     1      40.982 -11.244   6.641  1.00  0.00    -0.351 N 
HETATM    9  C   UNL     1      42.131 -10.564   6.320  1.00  0.00     0.270 C 
HETATM   10  O   UNL     1      42.281 -10.013   5.233  1.00  0.00    -0.266 OA
HETATM   11  H   UNL     1      40.825 -11.528   7.594  1.00  0.00     0.163 HD
BRANCH   9  12
HETATM   12  C   UNL     1      43.154 -10.537   7.335  1.00  0.00     0.126 A 
HETATM   13  N   UNL     1      44.351 -11.179   7.122  1.00  0.00    -0.272 N 
HETATM   14  H   UNL     1      44.620 -11.692   6.289  1.00  0.00     0.189 HD
HETATM   15  N   UNL     1      45.215 -11.108   8.148  1.00  0.00    -0.178 NA
HETATM   16  C   UNL     1      44.546 -10.412   9.064  1.00  0.00     0.063 A 
HETATM   17  C   UNL     1      43.253 -10.029   8.621  1.00  0.00     0.002 A 
HETATM   18  C   UNL     1      45.087 -10.133  10.423  1.00  0.00     0.062 C 
HETATM   19  C   UNL     1      42.313  -9.261   9.485  1.00  0.00     0.043 C 
HETATM   20  C   UNL     1      42.744  -9.293  10.963  1.00  0.00     0.005 C 
HETATM   21  C   UNL     1      44.254  -9.056  11.136  1.00  0.00     0.006 C 
ENDBRANCH   9  12
ENDBRANCH   7   8
ENDBRANCH   5   7
BRANCH   3  22
HETATM   22  N   UNL     1      39.472 -14.242   1.606  1.00  0.00    -0.323 N 
HETATM   23  C   UNL     1      40.077 -13.687   0.491  1.00  0.00     0.256 C 
HETATM   24  O   UNL     1      41.177 -13.148   0.455  1.00  0.00    -0.267 OA
HETATM   25  H   UNL     1      38.620 -14.767   1.463  1.00  0.00     0.169 HD
BRANCH  23  26
HETATM   26  C   UNL     1      39.306 -13.780  -0.783  1.00  0.00     0.035 A 
HETATM   27  C   UNL     1      38.534 -12.726  -1.274  1.00  0.00     0.036 A 
HETATM   28  C   UNL     1      37.880 -12.908  -2.481  1.00  0.00     0.117 A 
HETATM   29  N   UNL     1      37.952 -14.041  -3.211  1.00  0.00    -0.273 NA
HETATM   30  C   UNL     1      38.724 -15.036  -2.727  1.00  0.00     0.117 A 
HETATM   31  C   UNL     1      39.414 -14.955  -1.532  1.00  0.00     0.036 A 
ENDBRANCH  23  26
ENDBRANCH   3  22
BRANCH   1  32
HETATM   32  C   UNL     1      41.835 -16.132   5.605  1.00  0.00     0.293 C 
HETATM   33  O   UNL     1      42.441 -17.019   5.024  1.00  0.00    -0.259 OA
BRANCH  32  34
HETATM   34  O   UNL     1      41.721 -15.994   6.947  1.00  0.00    -0.323 OA
HETATM   35  C   UNL     1      42.964 -16.033   7.649  1.00  0.00     0.213 C 
ENDBRANCH  32  34
ENDBRANCH   1  32
TORSDOF 7
ENDMDL
MODEL 8
REMARK VINA RESULT:      -8.6      1.482      2.002
REMARK  7 active torsions:
REMARK  status: ('A' for Active; 'I' for Inactive)
REMARK    1  A    between atoms: O_2  and  C_3 
REMARK    2  A    between atoms: C_3  and  C_4 
REMARK    3  A    between atoms: C_6  and  N_7 
REMARK       I    between atoms: N_7  and  C_8 
REMARK    4  A    between atoms: C_8  and  C_9 
REMARK    5  A    between atoms: C_17  and  C_18 
REMARK    6  A    between atoms: C_18  and  N_19 
REMARK       I    between atoms: N_19  and  C_20 
REMARK    7  A    between atoms: C_20  and  C_21 
ROOT
HETATM    1  C   UNL     1      41.477 -12.465   4.927  1.00  0.00     0.042 A 
HETATM    2  C   UNL     1      41.792 -13.799   4.627  1.00  0.00     0.047 A 
HETATM    3  C   UNL     1      42.864 -14.433   5.260  1.00  0.00     0.036 A 
HETATM    4  C   UNL     1      43.617 -13.717   6.202  1.00  0.00     0.038 A 
HETATM    5  C   UNL     1      43.298 -12.391   6.538  1.00  0.00    -0.037 A 
HETATM    6  C   UNL     1      42.236 -11.765   5.876  1.00  0.00     0.026 A 
ENDROOT
BRANCH   5   7
HETATM    7  C   UNL     1      44.066 -11.667   7.611  1.00  0.00     0.161 C 
BRANCH   7   8
HETATM    8  N   UNL     1      43.218 -10.840   8.431  1.00  0.00    -0.351 N 
HETATM    9  C   UNL     1      43.584 -10.446   9.694  1.00  0.00     0.270 C 
HETATM   10  O   UNL     1      44.708 -10.648  10.142  1.00  0.00    -0.266 OA
HETATM   11  H   UNL     1      42.354 -10.505   8.038  1.00  0.00     0.163 HD
BRANCH   9  12
HETATM   12  C   UNL     1      42.565  -9.781  10.468  1.00  0.00     0.126 A 
HETATM   13  N   UNL     1      41.254  -9.818  10.054  1.00  0.00    -0.272 N 
HETATM   14  H   UNL     1      40.894 -10.288   9.229  1.00  0.00     0.189 HD
HETATM   15  N   UNL     1      40.400  -9.141  10.840  1.00  0.00    -0.178 NA
HETATM   16  C   UNL     1      41.189  -8.632  11.783  1.00  0.00     0.063 A 
HETATM   17  C   UNL     1      42.551  -8.991  11.607  1.00  0.00     0.002 A 
HETATM   18  C   UNL     1      40.687  -7.733  12.859  1.00  0.00     0.062 C 
HETATM   19  C   UNL     1      43.621  -8.519  12.528  1.00  0.00     0.043 C 
HETATM   20  C   UNL     1      43.146  -7.339  13.396  1.00  0.00     0.005 C 
HETATM   21  C   UNL     1      41.736  -7.568  13.969  1.00  0.00     0.006 C 
ENDBRANCH   9  12
ENDBRANCH   7   8
ENDBRANCH   5   7
BRANCH   3  22
HETATM   22  N   UNL     1      43.225 -15.782   5.042  1.00  0.00    -0.323 N 
HETATM   23  C   UNL     1      43.410 -16.413   3.824  1.00  0.00     0.256 C 
HETATM   24  O   UNL     1      43.405 -15.879   2.721  1.00  0.00    -0.267 OA
HETATM   25  H   UNL     1      43.383 -16.326   5.880  1.00  0.00     0.169 HD
BRANCH  23  26
HETATM   26  C   UNL     1      43.655 -17.885   3.883  1.00  0.00     0.035 A 
HETATM   27  C   UNL     1      43.997 -18.544   5.065  1.00  0.00     0.036 A 
HETATM   28  C   UNL     1      44.174 -19.916   5.015  1.00  0.00     0.117 A 
HETATM   29  N   UNL     1      44.028 -20.652   3.893  1.00  0.00    -0.273 NA
HETATM   30  C   UNL     1      43.673 -19.995   2.769  1.00  0.00     0.117 A 
HETATM   31  C   UNL     1      43.475 -18.628   2.714  1.00  0.00     0.036 A 
ENDBRANCH  23  26
ENDBRANCH   3  22
BRANCH   1  32
HETATM   32  C   UNL     1      40.338 -11.752   4.287  1.00  0.00     0.293 C 
HETATM   33  O   UNL     1      39.560 -11.043   4.909  1.00  0.00    -0.259 OA
BRANCH  32  34
HETATM   34  O   UNL     1      40.275 -12.032   2.964  1.00  0.00    -0.323 OA
HETATM   35  C   UNL     1      38.990 -12.464   2.515  1.00  0.00     0.213 C 
ENDBRANCH  32  34
ENDBRANCH   1  32
TORSDOF 7
ENDMDL
MODEL 9
REMARK VINA RESULT:      -8.4      3.243      4.940
REMARK  7 active torsions:
REMARK  status: ('A' for Active; 'I' for Inactive)
REMARK    1  A    between atoms: O_2  and  C_3 
REMARK    2  A    between atoms: C_3  and  C_4 
REMARK    3  A    between atoms: C_6  and  N_7 
REMARK       I    between atoms: N_7  and  C_8 
REMARK    4  A    between atoms: C_8  and  C_9 
REMARK    5  A    between atoms: C_17  and  C_18 
REMARK    6  A    between atoms: C_18  and  N_19 
REMARK       I    between atoms: N_19  and  C_20 
REMARK    7  A    between atoms: C_20  and  C_21 
ROOT
HETATM    1  C   UNL     1      43.441 -14.751   5.908  1.00  0.00     0.042 A 
HETATM    2  C   UNL     1      42.886 -14.675   4.622  1.00  0.00     0.047 A 
HETATM    3  C   UNL     1      42.627 -13.435   4.035  1.00  0.00     0.036 A 
HETATM    4  C   UNL     1      42.932 -12.267   4.749  1.00  0.00     0.038 A 
HETATM    5  C   UNL     1      43.515 -12.323   6.025  1.00  0.00    -0.037 A 
HETATM    6  C   UNL     1      43.746 -13.574   6.607  1.00  0.00     0.026 A 
ENDROOT
BRANCH   5   7
HETATM    7  C   UNL     1      43.911 -11.060   6.741  1.00  0.00     0.161 C 
BRANCH   7   8
HETATM    8  N   UNL     1      43.021 -10.741   7.828  1.00  0.00    -0.351 N 
HETATM    9  C   UNL     1      43.198  -9.631   8.616  1.00  0.00     0.270 C 
HETATM   10  O   UNL     1      44.030  -8.768   8.352  1.00  0.00    -0.266 OA
HETATM   11  H   UNL     1      42.219 -11.331   7.976  1.00  0.00     0.163 HD
BRANCH   9  12
HETATM   12  C   UNL     1      42.348  -9.538   9.776  1.00  0.00     0.126 A 
HETATM   13  N   UNL     1      41.008  -9.834   9.673  1.00  0.00    -0.272 N 
HETATM   14  H   UNL     1      40.520 -10.134   8.835  1.00  0.00     0.189 HD
HETATM   15  N   UNL     1      40.313  -9.686  10.812  1.00  0.00    -0.178 NA
HETATM   16  C   UNL     1      41.230  -9.259  11.678  1.00  0.00     0.063 A 
HETATM   17  C   UNL     1      42.518  -9.142  11.094  1.00  0.00     0.002 A 
HETATM   18  C   UNL     1      40.905  -8.888  13.083  1.00  0.00     0.062 C 
HETATM   19  C   UNL     1      43.698  -8.662  11.865  1.00  0.00     0.043 C 
HETATM   20  C   UNL     1      43.278  -7.968  13.174  1.00  0.00     0.005 C 
HETATM   21  C   UNL     1      42.184  -8.748  13.923  1.00  0.00     0.006 C 
ENDBRANCH   9  12
ENDBRANCH   7   8
ENDBRANCH   5   7
BRANCH   3  22
HETATM   22  N   UNL     1      42.104 -13.271   2.732  1.00  0.00    -0.323 N 
HETATM   23  C   UNL     1      40.821 -13.564   2.301  1.00  0.00     0.256 C 
HETATM   24  O   UNL     1      39.879 -13.910   3.005  1.00  0.00    -0.267 OA
HETATM   25  H   UNL     1      42.744 -12.874   2.057  1.00  0.00     0.169 HD
BRANCH  23  26
HETATM   26  C   UNL     1      40.578 -13.423   0.835  1.00  0.00     0.035 A 
HETATM   27  C   UNL     1      40.975 -12.297   0.111  1.00  0.00     0.036 A 
HETATM   28  C   UNL     1      40.725 -12.280  -1.251  1.00  0.00     0.117 A 
HETATM   29  N   UNL     1      40.128 -13.290  -1.918  1.00  0.00    -0.273 NA
HETATM   30  C   UNL     1      39.776 -14.377  -1.200  1.00  0.00     0.117 A 
HETATM   31  C   UNL     1      39.978 -14.491   0.163  1.00  0.00     0.036 A 
ENDBRANCH  23  26
ENDBRANCH   3  22
BRANCH   1  32
HETATM   32  C   UNL     1      43.746 -16.049   6.569  1.00  0.00     0.293 C 
HETATM   33  O   UNL     1      43.384 -16.322   7.704  1.00  0.00    -0.259 OA
BRANCH  32  34
HETATM   34  O   UNL     1      44.495 -16.837   5.762  1.00  0.00    -0.323 OA
HETATM   35  C   UNL     1      43.926 -18.121   5.502  1.00  0.00     0.213 C 
ENDBRANCH  32  34
ENDBRANCH   1  32
TORSDOF 7
ENDMDL
MODEL 10
REMARK VINA RESULT:      -8.4      5.642      8.132
REMARK  7 active torsions:
REMARK  status: ('A' for Active; 'I' for Inactive)
REMARK    1  A    between atoms: O_2  and  C_3 
REMARK    2  A    between atoms: C_3  and  C_4 
REMARK    3  A    between atoms: C_6  and  N_7 
REMARK       I    between atoms: N_7  and  C_8 
REMARK    4  A    between atoms: C_8  and  C_9 
REMARK    5  A    between atoms: C_17  and  C_18 
REMARK    6  A    between atoms: C_18  and  N_19 
REMARK       I    between atoms: N_19  and  C_20 
REMARK    7  A    between atoms: C_20  and  C_21 
ROOT
HETATM    1  C   UNL     1      40.009 -13.364   3.497  1.00  0.00     0.042 A 
HETATM    2  C   UNL     1      40.568 -14.626   3.750  1.00  0.00     0.047 A 
HETATM    3  C   UNL     1      40.975 -15.445   2.694  1.00  0.00     0.036 A 
HETATM    4  C   UNL     1      40.820 -14.985   1.378  1.00  0.00     0.038 A 
HETATM    5  C   UNL     1      40.291 -13.713   1.106  1.00  0.00    -0.037 A 
HETATM    6  C   UNL     1      39.867 -12.917   2.175  1.00  0.00     0.026 A 
ENDROOT
BRANCH   5   7
HETATM    7  C   UNL     1      40.209 -13.205  -0.308  1.00  0.00     0.161 C 
BRANCH   7   8
HETATM    8  N   UNL     1      40.950 -11.984  -0.497  1.00  0.00    -0.351 N 
HETATM    9  C   UNL     1      40.353 -10.827  -0.933  1.00  0.00     0.270 C 
HETATM   10  O   UNL     1      39.135 -10.723  -1.044  1.00  0.00    -0.266 OA
HETATM   11  H   UNL     1      41.927 -11.976  -0.252  1.00  0.00     0.163 HD
BRANCH   9  12
HETATM   12  C   UNL     1      41.243  -9.740  -1.255  1.00  0.00     0.126 A 
HETATM   13  N   UNL     1      42.028  -9.180  -0.274  1.00  0.00    -0.272 N 
HETATM   14  H   UNL     1      42.066  -9.459   0.701  1.00  0.00     0.189 HD
HETATM   15  N   UNL     1      42.796  -8.158  -0.686  1.00  0.00    -0.178 NA
HETATM   16  C   UNL     1      42.481  -8.039  -1.974  1.00  0.00     0.063 A 
HETATM   17  C   UNL     1      41.516  -8.992  -2.390  1.00  0.00     0.002 A 
HETATM   18  C   UNL     1      43.042  -6.972  -2.849  1.00  0.00     0.062 C 
HETATM   19  C   UNL     1      40.994  -9.038  -3.784  1.00  0.00     0.043 C 
HETATM   20  C   UNL     1      41.313  -7.742  -4.553  1.00  0.00     0.005 C 
HETATM   21  C   UNL     1      42.761  -7.272  -4.329  1.00  0.00     0.006 C 
ENDBRANCH   9  12
ENDBRANCH   7   8
ENDBRANCH   5   7
BRANCH   3  22
HETATM   22  N   UNL     1      41.579 -16.712   2.863  1.00  0.00    -0.323 N 
HETATM   23  C   UNL     1      42.845 -16.978   3.356  1.00  0.00     0.256 C 
HETATM   24  O   UNL     1      43.622 -16.163   3.841  1.00  0.00    -0.267 OA
HETATM   25  H   UNL     1      41.000 -17.502   2.611  1.00  0.00     0.169 HD
BRANCH  23  26
HETATM   26  C   UNL     1      43.282 -18.404   3.296  1.00  0.00     0.035 A 
HETATM   27  C   UNL     1      43.847 -19.064   4.389  1.00  0.00     0.036 A 
HETATM   28  C   UNL     1      44.191 -20.397   4.234  1.00  0.00     0.117 A 
HETATM   29  N   UNL     1      44.005 -21.093   3.094  1.00  0.00    -0.273 NA
HETATM   30  C   UNL     1      43.434 -20.440   2.060  1.00  0.00     0.117 A 
HETATM   31  C   UNL     1      43.058 -19.110   2.112  1.00  0.00     0.036 A 
ENDBRANCH  23  26
ENDBRANCH   3  22
BRANCH   1  32
HETATM   32  C   UNL     1      39.573 -12.453   4.589  1.00  0.00     0.293 C 
HETATM   33  O   UNL     1      39.121 -12.852   5.651  1.00  0.00    -0.259 OA
BRANCH  32  34
HETATM   34  O   UNL     1      39.712 -11.157   4.220  1.00  0.00    -0.323 OA
HETATM   35  C   UNL     1      38.651 -10.305   4.654  1.00  0.00     0.213 C 
ENDBRANCH  32  34
ENDBRANCH   1  32
TORSDOF 7
ENDMDL
