MODEL 1
REMARK VINA RESULT:      -8.5      0.000      0.000
REMARK  7 active torsions:
REMARK  status: ('A' for Active; 'I' for Inactive)
REMARK    1  A    between atoms: O_2  and  C_3 
REMARK    2  A    between atoms: C_3  and  C_4 
REMARK    3  A    between atoms: C_8  and  C_9 
REMARK    4  A    between atoms: C_9  and  N_10 
REMARK    5  A    between atoms: C_13  and  C_14 
REMARK    6  A    between atoms: C_14  and  N_15 
REMARK       I    between atoms: N_15  and  C_16 
REMARK       I    between atoms: C_16  and  N_17 
REMARK    7  A    between atoms: N_17  and  C_18 
ROOT
HETATM    1  N   UNL     1      41.696 -13.666   3.191  1.00  0.00    -0.067 N 
HETATM    2  H   UNL     1      41.685 -14.657   3.515  1.00  0.00     0.280 HD
HETATM    3  C   UNL     1      42.721 -12.961   4.040  1.00  0.00     0.241 C 
HETATM    4  C   UNL     1      42.295 -12.862   5.510  1.00  0.00     0.029 C 
HETATM    5  C   UNL     1      40.917 -12.191   5.598  1.00  0.00     0.009 C 
HETATM    6  C   UNL     1      39.880 -12.915   4.742  1.00  0.00     0.028 C 
HETATM    7  C   UNL     1      40.324 -13.062   3.296  1.00  0.00     0.235 C 
ENDROOT
BRANCH   4   8
HETATM    8  C   UNL     1      42.292 -14.179   6.313  1.00  0.00     0.130 C 
BRANCH   8   9
HETATM    9  N   UNL     1      43.292 -15.140   5.899  1.00  0.00    -0.342 N 
HETATM   10  C   UNL     1      42.894 -16.286   5.233  1.00  0.00     0.320 C 
HETATM   11  N   UNL     1      43.943 -17.154   5.067  1.00  0.00    -0.309 N 
HETATM   12  O   UNL     1      41.741 -16.406   4.829  1.00  0.00    -0.247 OA
HETATM   13  H   UNL     1      44.862 -16.784   5.271  1.00  0.00     0.170 HD
HETATM   14  H   UNL     1      44.072 -15.269   6.533  1.00  0.00     0.164 HD
BRANCH  11  15
HETATM   15  C   UNL     1      43.909 -18.452   4.518  1.00  0.00     0.039 A 
HETATM   16  C   UNL     1      43.774 -18.712   3.157  1.00  0.00     0.071 A 
HETATM   17  C   UNL     1      43.765 -20.029   2.701  1.00  0.00     0.118 A 
HETATM   18  F   UNL     1      43.673 -20.266   1.386  1.00  0.00    -0.206 F 
HETATM   19  C   UNL     1      43.869 -21.099   3.582  1.00  0.00     0.042 A 
HETATM   20  C   UNL     1      43.982 -20.849   4.945  1.00  0.00     0.005 A 
HETATM   21  C   UNL     1      44.004 -19.530   5.411  1.00  0.00     0.030 A 
ENDBRANCH  11  15
ENDBRANCH   8   9
ENDBRANCH   4   8
BRANCH   1  22
HETATM   22  C   UNL     1      42.112 -13.744   1.730  1.00  0.00     0.274 C 
BRANCH  22  23
HETATM   23  C   UNL     1      41.019 -14.120   0.793  1.00  0.00    -0.015 A 
HETATM   24  C   UNL     1      40.221 -15.246   0.864  1.00  0.00     0.097 A 
HETATM   25  N   UNL     1      39.348 -15.232  -0.192  1.00  0.00    -0.360 N 
HETATM   26  C   UNL     1      39.583 -14.128  -0.979  1.00  0.00     0.108 A 
HETATM   27  H   UNL     1      38.663 -15.948  -0.408  1.00  0.00     0.165 HD
HETATM   28  C   UNL     1      40.574 -13.395  -0.349  1.00  0.00     0.046 A 
BRANCH  26  29
HETATM   29  C   UNL     1      38.912 -13.841  -2.225  1.00  0.00     0.309 C 
HETATM   30  O   UNL     1      39.396 -14.011  -3.335  1.00  0.00    -0.258 OA
BRANCH  29  31
HETATM   31  O   UNL     1      37.654 -13.385  -1.973  1.00  0.00    -0.321 OA
HETATM   32  C   UNL     1      37.541 -11.963  -2.003  1.00  0.00     0.213 C 
ENDBRANCH  29  31
ENDBRANCH  26  29
ENDBRANCH  22  23
ENDBRANCH   1  22
TORSDOF 7
ENDMDL
MODEL 2
REMARK VINA RESULT:      -8.2      4.101      7.685
REMARK  7 active torsions:
REMARK  status: ('A' for Active; 'I' for Inactive)
REMARK    1  A    between atoms: O_2  and  C_3 
REMARK    2  A    between atoms: C_3  and  C_4 
REMARK    3  A    between atoms: C_8  and  C_9 
REMARK    4  A    between atoms: C_9  and  N_10 
REMARK    5  A    between atoms: C_13  and  C_14 
REMARK    6  A    between atoms: C_14  and  N_15 
REMARK       I    between atoms: N_15  and  C_16 
REMARK       I    between atoms: C_16  and  N_17 
REMARK    7  A    between atoms: N_17  and  C_18 
ROOT
HETATM    1  N   UNL     1      43.686 -11.841   5.589  1.00  0.00    -0.067 N 
HETATM    2  H   UNL     1      43.825 -11.991   4.567  1.00  0.00     0.280 HD
HETATM    3  C   UNL     1      43.094 -13.120   6.122  1.00  0.00     0.241 C 
HETATM    4  C   UNL     1      41.678 -13.374   5.591  1.00  0.00     0.029 C 
HETATM    5  C   UNL     1      40.791 -12.160   5.899  1.00  0.00     0.009 C 
HETATM    6  C   UNL     1      41.391 -10.868   5.349  1.00  0.00     0.028 C 
HETATM    7  C   UNL     1      42.814 -10.641   5.831  1.00  0.00     0.235 C 
ENDROOT
BRANCH   4   8
HETATM    8  C   UNL     1      41.562 -13.747   4.099  1.00  0.00     0.130 C 
BRANCH   8   9
HETATM    9  N   UNL     1      42.563 -14.681   3.631  1.00  0.00    -0.342 N 
HETATM   10  C   UNL     1      42.315 -16.040   3.718  1.00  0.00     0.320 C 
HETATM   11  N   UNL     1      43.428 -16.771   3.388  1.00  0.00    -0.309 N 
HETATM   12  O   UNL     1      41.196 -16.453   4.009  1.00  0.00    -0.247 OA
HETATM   13  H   UNL     1      44.187 -16.256   2.962  1.00  0.00     0.170 HD
HETATM   14  H   UNL     1      43.528 -14.416   3.796  1.00  0.00     0.164 HD
BRANCH  11  15
HETATM   15  C   UNL     1      43.588 -18.170   3.445  1.00  0.00     0.039 A 
HETATM   16  C   UNL     1      44.056 -18.850   4.566  1.00  0.00     0.071 A 
HETATM   17  C   UNL     1      44.167 -20.239   4.537  1.00  0.00     0.118 A 
HETATM   18  F   UNL     1      44.582 -20.885   5.634  1.00  0.00    -0.206 F 
HETATM   19  C   UNL     1      43.839 -20.967   3.399  1.00  0.00     0.042 A 
HETATM   20  C   UNL     1      43.392 -20.293   2.267  1.00  0.00     0.005 A 
HETATM   21  C   UNL     1      43.266 -18.900   2.291  1.00  0.00     0.030 A 
ENDBRANCH  11  15
ENDBRANCH   8   9
ENDBRANCH   4   8
BRANCH   1  22
HETATM   22  C   UNL     1      45.081 -11.581   6.133  1.00  0.00     0.274 C 
BRANCH  22  23
HETATM   23  C   UNL     1      45.115 -10.874   7.443  1.00  0.00    -0.015 A 
HETATM   24  C   UNL     1      45.955  -9.835   7.799  1.00  0.00     0.097 A 
HETATM   25  N   UNL     1      45.681  -9.476   9.093  1.00  0.00    -0.360 N 
HETATM   26  C   UNL     1      44.695 -10.287   9.606  1.00  0.00     0.108 A 
HETATM   27  H   UNL     1      46.161  -8.758   9.625  1.00  0.00     0.165 HD
HETATM   28  C   UNL     1      44.290 -11.119   8.577  1.00  0.00     0.046 A 
BRANCH  26  29
HETATM   29  C   UNL     1      44.221 -10.252  10.969  1.00  0.00     0.309 C 
HETATM   30  O   UNL     1      44.007 -11.238  11.660  1.00  0.00    -0.258 OA
BRANCH  29  31
HETATM   31  O   UNL     1      44.081  -8.960  11.373  1.00  0.00    -0.321 OA
HETATM   32  C   UNL     1      42.772  -8.430  11.162  1.00  0.00     0.213 C 
ENDBRANCH  29  31
ENDBRANCH  26  29
ENDBRANCH  22  23
ENDBRANCH   1  22
TORSDOF 7
ENDMDL
MODEL 3
REMARK VINA RESULT:      -8.1      1.552      1.638
REMARK  7 active torsions:
REMARK  status: ('A' for Active; 'I' for Inactive)
REMARK    1  A    between atoms: O_2  and  C_3 
REMARK    2  A    between atoms: C_3  and  C_4 
REMARK    3  A    between atoms: C_8  and  C_9 
REMARK    4  A    between atoms: C_9  and  N_10 
REMARK    5  A    between atoms: C_13  and  C_14 
REMARK    6  A    between atoms: C_14  and  N_15 
REMARK       I    between atoms: N_15  and  C_16 
REMARK       I    between atoms: C_16  and  N_17 
REMARK    7  A    between atoms: N_17  and  C_18 
ROOT
HETATM    1  N   UNL     1      40.841 -11.690   3.032  1.00  0.00    -0.067 N 
HETATM    2  H   UNL     1      40.531 -12.672   2.871  1.00  0.00     0.280 HD
HETATM    3  C   UNL     1      42.186 -11.782   3.702  1.00  0.00     0.241 C 
HETATM    4  C   UNL     1      42.097 -12.375   5.114  1.00  0.00     0.029 C 
HETATM    5  C   UNL     1      41.095 -11.564   5.947  1.00  0.00     0.009 C 
HETATM    6  C   UNL     1      39.730 -11.482   5.266  1.00  0.00     0.028 C 
HETATM    7  C   UNL     1      39.823 -10.944   3.848  1.00  0.00     0.235 C 
ENDROOT
BRANCH   4   8
HETATM    8  C   UNL     1      41.764 -13.879   5.206  1.00  0.00     0.130 C 
BRANCH   8   9
HETATM    9  N   UNL     1      42.781 -14.756   4.666  1.00  0.00    -0.342 N 
HETATM   10  C   UNL     1      42.473 -16.084   4.430  1.00  0.00     0.320 C 
HETATM   11  N   UNL     1      43.591 -16.799   4.081  1.00  0.00    -0.309 N 
HETATM   12  O   UNL     1      41.312 -16.477   4.495  1.00  0.00    -0.247 OA
HETATM   13  H   UNL     1      44.416 -16.256   3.867  1.00  0.00     0.170 HD
HETATM   14  H   UNL     1      43.726 -14.592   4.995  1.00  0.00     0.164 HD
BRANCH  11  15
HETATM   15  C   UNL     1      43.689 -18.186   3.853  1.00  0.00     0.039 A 
HETATM   16  C   UNL     1      43.471 -18.784   2.614  1.00  0.00     0.071 A 
HETATM   17  C   UNL     1      43.606 -20.164   2.478  1.00  0.00     0.118 A 
HETATM   18  F   UNL     1      43.431 -20.723   1.274  1.00  0.00    -0.206 F 
HETATM   19  C   UNL     1      43.936 -20.969   3.562  1.00  0.00     0.042 A 
HETATM   20  C   UNL     1      44.134 -20.383   4.808  1.00  0.00     0.005 A 
HETATM   21  C   UNL     1      44.013 -18.997   4.952  1.00  0.00     0.030 A 
ENDBRANCH  11  15
ENDBRANCH   8   9
ENDBRANCH   4   8
BRANCH   1  22
HETATM   22  C   UNL     1      40.930 -11.082   1.641  1.00  0.00     0.274 C 
BRANCH  22  23
HETATM   23  C   UNL     1      40.248 -11.867   0.576  1.00  0.00    -0.015 A 
HETATM   24  C   UNL     1      38.915 -12.233   0.546  1.00  0.00     0.097 A 
HETATM   25  N   UNL     1      38.688 -12.960  -0.594  1.00  0.00    -0.360 N 
HETATM   26  C   UNL     1      39.861 -13.109  -1.297  1.00  0.00     0.108 A 
HETATM   27  H   UNL     1      37.805 -13.381  -0.865  1.00  0.00     0.165 HD
HETATM   28  C   UNL     1      40.825 -12.385  -0.618  1.00  0.00     0.046 A 
BRANCH  26  29
HETATM   29  C   UNL     1      40.012 -13.895  -2.499  1.00  0.00     0.309 C 
HETATM   30  O   UNL     1      40.876 -13.718  -3.346  1.00  0.00    -0.258 OA
BRANCH  29  31
HETATM   31  O   UNL     1      39.071 -14.878  -2.524  1.00  0.00    -0.321 OA
HETATM   32  C   UNL     1      38.166 -14.779  -3.624  1.00  0.00     0.213 C 
ENDBRANCH  29  31
ENDBRANCH  26  29
ENDBRANCH  22  23
ENDBRANCH   1  22
TORSDOF 7
ENDMDL
MODEL 4
REMARK VINA RESULT:      -8.0      6.080      9.567
REMARK  7 active torsions:
REMARK  status: ('A' for Active; 'I' for Inactive)
REMARK    1  A    between atoms: O_2  and  C_3 
REMARK    2  A    between atoms: C_3  and  C_4 
REMARK    3  A    between atoms: C_8  and  C_9 
REMARK    4  A    between atoms: C_9  and  N_10 
REMARK    5  A    between atoms: C_13  and  C_14 
REMARK    6  A    between atoms: C_14  and  N_15 
REMARK       I    between atoms: N_15  and  C_16 
REMARK       I    between atoms: C_16  and  N_17 
REMARK    7  A    between atoms: N_17  and  C_18 
ROOT
HETATM    1  N   UNL     1      42.210 -12.996   6.270  1.00  0.00    -0.067 N 
HETATM    2  H   UNL     1      41.717 -12.277   6.841  1.00  0.00     0.280 HD
HETATM    3  C   UNL     1      43.566 -13.173   6.900  1.00  0.00     0.241 C 
HETATM    4  C   UNL     1      44.445 -11.924   6.758  1.00  0.00     0.029 C 
HETATM    5  C   UNL     1      44.548 -11.538   5.276  1.00  0.00     0.009 C 
HETATM    6  C   UNL     1      43.170 -11.351   4.644  1.00  0.00     0.028 C 
HETATM    7  C   UNL     1      42.278 -12.567   4.830  1.00  0.00     0.235 C 
ENDROOT
BRANCH   4   8
HETATM    8  C   UNL     1      44.032 -10.696   7.595  1.00  0.00     0.130 C 
BRANCH   8   9
HETATM    9  N   UNL     1      43.563 -11.006   8.929  1.00  0.00    -0.342 N 
HETATM   10  C   UNL     1      43.131  -9.979   9.750  1.00  0.00     0.320 C 
HETATM   11  N   UNL     1      42.884 -10.430  11.022  1.00  0.00    -0.309 N 
HETATM   12  O   UNL     1      42.965  -8.848   9.301  1.00  0.00    -0.247 OA
HETATM   13  H   UNL     1      42.866 -11.434  11.142  1.00  0.00     0.170 HD
HETATM   14  H   UNL     1      44.054 -11.752   9.409  1.00  0.00     0.164 HD
BRANCH  11  15
HETATM   15  C   UNL     1      42.517  -9.668  12.150  1.00  0.00     0.039 A 
HETATM   16  C   UNL     1      43.303  -8.650  12.685  1.00  0.00     0.071 A 
HETATM   17  C   UNL     1      42.852  -7.939  13.795  1.00  0.00     0.118 A 
HETATM   18  F   UNL     1      43.599  -6.937  14.277  1.00  0.00    -0.206 F 
HETATM   19  C   UNL     1      41.636  -8.234  14.398  1.00  0.00     0.042 A 
HETATM   20  C   UNL     1      40.855  -9.264  13.884  1.00  0.00     0.005 A 
HETATM   21  C   UNL     1      41.293  -9.976  12.763  1.00  0.00     0.030 A 
ENDBRANCH  11  15
ENDBRANCH   8   9
ENDBRANCH   4   8
BRANCH   1  22
HETATM   22  C   UNL     1      41.349 -14.243   6.394  1.00  0.00     0.274 C 
BRANCH  22  23
HETATM   23  C   UNL     1      42.068 -15.521   6.141  1.00  0.00    -0.015 A 
HETATM   24  C   UNL     1      42.466 -16.445   7.089  1.00  0.00     0.097 A 
HETATM   25  N   UNL     1      43.110 -17.474   6.452  1.00  0.00    -0.360 N 
HETATM   26  C   UNL     1      43.172 -17.224   5.101  1.00  0.00     0.108 A 
HETATM   27  H   UNL     1      43.533 -18.281   6.901  1.00  0.00     0.165 HD
HETATM   28  C   UNL     1      42.477 -16.047   4.883  1.00  0.00     0.046 A 
BRANCH  26  29
HETATM   29  C   UNL     1      43.860 -18.050   4.136  1.00  0.00     0.309 C 
HETATM   30  O   UNL     1      44.820 -18.763   4.385  1.00  0.00    -0.258 OA
BRANCH  29  31
HETATM   31  O   UNL     1      43.254 -17.935   2.922  1.00  0.00    -0.321 OA
HETATM   32  C   UNL     1      43.175 -19.165   2.201  1.00  0.00     0.213 C 
ENDBRANCH  29  31
ENDBRANCH  26  29
ENDBRANCH  22  23
ENDBRANCH   1  22
TORSDOF 7
ENDMDL
MODEL 5
REMARK VINA RESULT:      -7.9      4.028      6.570
REMARK  7 active torsions:
REMARK  status: ('A' for Active; 'I' for Inactive)
REMARK    1  A    between atoms: O_2  and  C_3 
REMARK    2  A    between atoms: C_3  and  C_4 
REMARK    3  A    between atoms: C_8  and  C_9 
REMARK    4  A    between atoms: C_9  and  N_10 
REMARK    5  A    between atoms: C_13  and  C_14 
REMARK    6  A    between atoms: C_14  and  N_15 
REMARK       I    between atoms: N_15  and  C_16 
REMARK       I    between atoms: C_16  and  N_17 
REMARK    7  A    between atoms: N_17  and  C_18 
ROOT
HETATM    1  N   UNL     1      41.397 -15.979   2.734  1.00  0.00    -0.067 N 
HETATM    2  H   UNL     1      41.976 -15.137   2.527  1.00  0.00     0.280 HD
HETATM    3  C   UNL     1      40.999 -15.866   4.182  1.00  0.00     0.241 C 
HETATM    4  C   UNL     1      42.197 -16.002   5.130  1.00  0.00     0.029 C 
HETATM    5  C   UNL     1      42.933 -17.317   4.838  1.00  0.00     0.009 C 
HETATM    6  C   UNL     1      43.342 -17.422   3.371  1.00  0.00     0.028 C 
HETATM    7  C   UNL     1      42.165 -17.234   2.427  1.00  0.00     0.235 C 
ENDROOT
BRANCH   4   8
HETATM    8  C   UNL     1      43.198 -14.829   5.142  1.00  0.00     0.130 C 
BRANCH   8   9
HETATM    9  N   UNL     1      43.209 -14.058   6.367  1.00  0.00    -0.342 N 
HETATM   10  C   UNL     1      43.624 -12.738   6.331  1.00  0.00     0.320 C 
HETATM   11  N   UNL     1      43.730 -12.216   7.596  1.00  0.00    -0.309 N 
HETATM   12  O   UNL     1      43.801 -12.167   5.259  1.00  0.00    -0.247 OA
HETATM   13  H   UNL     1      43.329 -12.772   8.340  1.00  0.00     0.170 HD
HETATM   14  H   UNL     1      43.474 -14.562   7.205  1.00  0.00     0.164 HD
BRANCH  11  15
HETATM   15  C   UNL     1      44.204 -10.941   7.965  1.00  0.00     0.039 A 
HETATM   16  C   UNL     1      43.394  -9.936   8.487  1.00  0.00     0.071 A 
HETATM   17  C   UNL     1      43.953  -8.709   8.839  1.00  0.00     0.118 A 
HETATM   18  F   UNL     1      43.171  -7.764   9.375  1.00  0.00    -0.206 F 
HETATM   19  C   UNL     1      45.308  -8.455   8.662  1.00  0.00     0.042 A 
HETATM   20  C   UNL     1      46.120  -9.446   8.121  1.00  0.00     0.005 A 
HETATM   21  C   UNL     1      45.570 -10.685   7.775  1.00  0.00     0.030 A 
ENDBRANCH  11  15
ENDBRANCH   8   9
ENDBRANCH   4   8
BRANCH   1  22
HETATM   22  C   UNL     1      40.205 -15.864   1.797  1.00  0.00     0.274 C 
BRANCH  22  23
HETATM   23  C   UNL     1      40.359 -14.852   0.717  1.00  0.00    -0.015 A 
HETATM   24  C   UNL     1      41.173 -13.735   0.743  1.00  0.00     0.097 A 
HETATM   25  N   UNL     1      41.016 -13.053  -0.436  1.00  0.00    -0.360 N 
HETATM   26  C   UNL     1      40.084 -13.686  -1.224  1.00  0.00     0.108 A 
HETATM   27  H   UNL     1      41.471 -12.179  -0.683  1.00  0.00     0.165 HD
HETATM   28  C   UNL     1      39.711 -14.837  -0.551  1.00  0.00     0.046 A 
BRANCH  26  29
HETATM   29  C   UNL     1      39.602 -13.197  -2.494  1.00  0.00     0.309 C 
HETATM   30  O   UNL     1      39.367 -12.024  -2.747  1.00  0.00    -0.258 OA
BRANCH  29  31
HETATM   31  O   UNL     1      39.483 -14.233  -3.369  1.00  0.00    -0.321 OA
HETATM   32  C   UNL     1      38.132 -14.568  -3.682  1.00  0.00     0.213 C 
ENDBRANCH  29  31
ENDBRANCH  26  29
ENDBRANCH  22  23
ENDBRANCH   1  22
TORSDOF 7
ENDMDL
MODEL 6
REMARK VINA RESULT:      -7.9      4.782      8.243
REMARK  7 active torsions:
REMARK  status: ('A' for Active; 'I' for Inactive)
REMARK    1  A    between atoms: O_2  and  C_3 
REMARK    2  A    between atoms: C_3  and  C_4 
REMARK    3  A    between atoms: C_8  and  C_9 
REMARK    4  A    between atoms: C_9  and  N_10 
REMARK    5  A    between atoms: C_13  and  C_14 
REMARK    6  A    between atoms: C_14  and  N_15 
REMARK       I    between atoms: N_15  and  C_16 
REMARK       I    between atoms: C_16  and  N_17 
REMARK    7  A    between atoms: N_17  and  C_18 
ROOT
HETATM    1  N   UNL     1      42.107 -10.491   7.478  1.00  0.00    -0.067 N 
HETATM    2  H   UNL     1      41.885 -11.299   8.098  1.00  0.00     0.280 HD
HETATM    3  C   UNL     1      41.710 -10.910   6.087  1.00  0.00     0.241 C 
HETATM    4  C   UNL     1      42.589 -12.043   5.544  1.00  0.00     0.029 C 
HETATM    5  C   UNL     1      44.064 -11.625   5.617  1.00  0.00     0.009 C 
HETATM    6  C   UNL     1      44.464 -11.211   7.032  1.00  0.00     0.028 C 
HETATM    7  C   UNL     1      43.561 -10.125   7.593  1.00  0.00     0.235 C 
ENDROOT
BRANCH   4   8
HETATM    8  C   UNL     1      42.400 -13.429   6.194  1.00  0.00     0.130 C 
BRANCH   8   9
HETATM    9  N   UNL     1      43.369 -14.424   5.786  1.00  0.00    -0.342 N 
HETATM   10  C   UNL     1      42.926 -15.609   5.226  1.00  0.00     0.320 C 
HETATM   11  N   UNL     1      43.960 -16.495   5.055  1.00  0.00    -0.309 N 
HETATM   12  O   UNL     1      41.750 -15.747   4.904  1.00  0.00    -0.247 OA
HETATM   13  H   UNL     1      44.891 -16.119   5.175  1.00  0.00     0.170 HD
HETATM   14  H   UNL     1      44.187 -14.515   6.378  1.00  0.00     0.164 HD
BRANCH  11  15
HETATM   15  C   UNL     1      43.887 -17.827   4.599  1.00  0.00     0.039 A 
HETATM   16  C   UNL     1      43.730 -18.178   3.261  1.00  0.00     0.071 A 
HETATM   17  C   UNL     1      43.683 -19.523   2.900  1.00  0.00     0.118 A 
HETATM   18  F   UNL     1      43.571 -19.850   1.606  1.00  0.00    -0.206 F 
HETATM   19  C   UNL     1      43.769 -20.532   3.852  1.00  0.00     0.042 A 
HETATM   20  C   UNL     1      43.903 -20.189   5.194  1.00  0.00     0.005 A 
HETATM   21  C   UNL     1      43.963 -18.842   5.565  1.00  0.00     0.030 A 
ENDBRANCH  11  15
ENDBRANCH   8   9
ENDBRANCH   4   8
BRANCH   1  22
HETATM   22  C   UNL     1      41.248  -9.354   8.006  1.00  0.00     0.274 C 
BRANCH  22  23
HETATM   23  C   UNL     1      40.465  -9.683   9.228  1.00  0.00    -0.015 A 
HETATM   24  C   UNL     1      39.126 -10.020   9.286  1.00  0.00     0.097 A 
HETATM   25  N   UNL     1      38.784 -10.233  10.596  1.00  0.00    -0.360 N 
HETATM   26  C   UNL     1      39.872 -10.006  11.407  1.00  0.00     0.108 A 
HETATM   27  H   UNL     1      37.858 -10.468  10.939  1.00  0.00     0.165 HD
HETATM   28  C   UNL     1      40.938  -9.724  10.571  1.00  0.00     0.046 A 
BRANCH  26  29
HETATM   29  C   UNL     1      39.853 -10.047  12.850  1.00  0.00     0.309 C 
HETATM   30  O   UNL     1      39.591 -11.037  13.518  1.00  0.00    -0.258 OA
BRANCH  29  31
HETATM   31  O   UNL     1      40.200  -8.828  13.347  1.00  0.00    -0.321 OA
HETATM   32  C   UNL     1      41.251  -8.880  14.312  1.00  0.00     0.213 C 
ENDBRANCH  29  31
ENDBRANCH  26  29
ENDBRANCH  22  23
ENDBRANCH   1  22
TORSDOF 7
ENDMDL
MODEL 7
REMARK VINA RESULT:      -7.7      3.132      6.714
REMARK  7 active torsions:
REMARK  status: ('A' for Active; 'I' for Inactive)
REMARK    1  A    between atoms: O_2  and  C_3 
REMARK    2  A    between atoms: C_3  and  C_4 
REMARK    3  A    between atoms: C_8  and  C_9 
REMARK    4  A    between atoms: C_9  and  N_10 
REMARK    5  A    between atoms: C_13  and  C_14 
REMARK    6  A    between atoms: C_14  and  N_15 
REMARK       I    between atoms: N_15  and  C_16 
REMARK       I    between atoms: C_16  and  N_17 
REMARK    7  A    between atoms: N_17  and  C_18 
ROOT
HETATM    1  N   UNL     1      41.002 -12.066   3.975  1.00  0.00    -0.067 N 
HETATM    2  H   UNL     1      41.519 -12.900   3.622  1.00  0.00     0.280 HD
HETATM    3  C   UNL     1      39.589 -12.206   3.473  1.00  0.00     0.241 C 
HETATM    4  C   UNL     1      39.496 -12.078   1.947  1.00  0.00     0.029 C 
HETATM    5  C   UNL     1      40.133 -10.753   1.506  1.00  0.00     0.009 C 
HETATM    6  C   UNL     1      41.568 -10.621   2.010  1.00  0.00     0.028 C 
HETATM    7  C   UNL     1      41.671 -10.800   3.516  1.00  0.00     0.235 C 
ENDROOT
BRANCH   4   8
HETATM    8  C   UNL     1      40.081 -13.245   1.124  1.00  0.00     0.130 C 
BRANCH   8   9
HETATM    9  N   UNL     1      40.162 -14.503   1.835  1.00  0.00    -0.342 N 
HETATM   10  C   UNL     1      41.404 -15.001   2.188  1.00  0.00     0.320 C 
HETATM   11  N   UNL     1      41.303 -16.270   2.700  1.00  0.00    -0.309 N 
HETATM   12  O   UNL     1      42.411 -14.308   2.074  1.00  0.00    -0.247 OA
HETATM   13  H   UNL     1      40.368 -16.587   2.920  1.00  0.00     0.170 HD
HETATM   14  H   UNL     1      39.484 -15.208   1.567  1.00  0.00     0.164 HD
BRANCH  11  15
HETATM   15  C   UNL     1      42.351 -17.130   3.085  1.00  0.00     0.039 A 
HETATM   16  C   UNL     1      42.762 -18.231   2.337  1.00  0.00     0.071 A 
HETATM   17  C   UNL     1      43.820 -19.018   2.788  1.00  0.00     0.118 A 
HETATM   18  F   UNL     1      44.231 -20.051   2.041  1.00  0.00    -0.206 F 
HETATM   19  C   UNL     1      44.468 -18.741   3.985  1.00  0.00     0.042 A 
HETATM   20  C   UNL     1      44.050 -17.656   4.749  1.00  0.00     0.005 A 
HETATM   21  C   UNL     1      42.996 -16.853   4.299  1.00  0.00     0.030 A 
ENDBRANCH  11  15
ENDBRANCH   8   9
ENDBRANCH   4   8
BRANCH   1  22
HETATM   22  C   UNL     1      41.089 -12.172   5.489  1.00  0.00     0.274 C 
BRANCH  22  23
HETATM   23  C   UNL     1      42.475 -12.205   6.030  1.00  0.00    -0.015 A 
HETATM   24  C   UNL     1      43.382 -13.242   5.915  1.00  0.00     0.097 A 
HETATM   25  N   UNL     1      44.537 -12.887   6.562  1.00  0.00    -0.360 N 
HETATM   26  C   UNL     1      44.392 -11.644   7.132  1.00  0.00     0.108 A 
HETATM   27  H   UNL     1      45.365 -13.466   6.663  1.00  0.00     0.165 HD
HETATM   28  C   UNL     1      43.142 -11.181   6.761  1.00  0.00     0.046 A 
BRANCH  26  29
HETATM   29  C   UNL     1      45.375 -10.995   7.967  1.00  0.00     0.309 C 
HETATM   30  O   UNL     1      46.461 -10.588   7.580  1.00  0.00    -0.258 OA
BRANCH  29  31
HETATM   31  O   UNL     1      44.893 -10.879   9.235  1.00  0.00    -0.321 OA
HETATM   32  C   UNL     1      45.276  -9.667   9.886  1.00  0.00     0.213 C 
ENDBRANCH  29  31
ENDBRANCH  26  29
ENDBRANCH  22  23
ENDBRANCH   1  22
TORSDOF 7
ENDMDL
MODEL 8
REMARK VINA RESULT:      -7.6      3.505      8.287
REMARK  7 active torsions:
REMARK  status: ('A' for Active; 'I' for Inactive)
REMARK    1  A    between atoms: O_2  and  C_3 
REMARK    2  A    between atoms: C_3  and  C_4 
REMARK    3  A    between atoms: C_8  and  C_9 
REMARK    4  A    between atoms: C_9  and  N_10 
REMARK    5  A    between atoms: C_13  and  C_14 
REMARK    6  A    between atoms: C_14  and  N_15 
REMARK       I    between atoms: N_15  and  C_16 
REMARK       I    between atoms: C_16  and  N_17 
REMARK    7  A    between atoms: N_17  and  C_18 
ROOT
HETATM    1  N   UNL     1      41.532 -14.021   4.182  1.00  0.00    -0.067 N 
HETATM    2  H   UNL     1      40.920 -14.125   3.345  1.00  0.00     0.280 HD
HETATM    3  C   UNL     1      42.899 -14.492   3.761  1.00  0.00     0.241 C 
HETATM    4  C   UNL     1      42.934 -15.996   3.466  1.00  0.00     0.029 C 
HETATM    5  C   UNL     1      42.412 -16.768   4.686  1.00  0.00     0.009 C 
HETATM    6  C   UNL     1      41.022 -16.293   5.102  1.00  0.00     0.028 C 
HETATM    7  C   UNL     1      40.971 -14.794   5.343  1.00  0.00     0.235 C 
ENDROOT
BRANCH   4   8
HETATM    8  C   UNL     1      42.199 -16.462   2.192  1.00  0.00     0.130 C 
BRANCH   8   9
HETATM    9  N   UNL     1      41.992 -15.427   1.203  1.00  0.00    -0.342 N 
HETATM   10  C   UNL     1      40.724 -15.229   0.685  1.00  0.00     0.320 C 
HETATM   11  N   UNL     1      40.745 -14.331  -0.352  1.00  0.00    -0.309 N 
HETATM   12  O   UNL     1      39.752 -15.786   1.185  1.00  0.00    -0.247 OA
HETATM   13  H   UNL     1      41.605 -13.813  -0.473  1.00  0.00     0.170 HD
HETATM   14  H   UNL     1      42.746 -15.293   0.538  1.00  0.00     0.164 HD
BRANCH  11  15
HETATM   15  C   UNL     1      39.671 -13.945  -1.179  1.00  0.00     0.039 A 
HETATM   16  C   UNL     1      39.353 -14.578  -2.378  1.00  0.00     0.071 A 
HETATM   17  C   UNL     1      38.262 -14.137  -3.125  1.00  0.00     0.118 A 
HETATM   18  F   UNL     1      37.942 -14.777  -4.257  1.00  0.00    -0.206 F 
HETATM   19  C   UNL     1      37.488 -13.060  -2.708  1.00  0.00     0.042 A 
HETATM   20  C   UNL     1      37.813 -12.409  -1.523  1.00  0.00     0.005 A 
HETATM   21  C   UNL     1      38.899 -12.851  -0.761  1.00  0.00     0.030 A 
ENDBRANCH  11  15
ENDBRANCH   8   9
ENDBRANCH   4   8
BRANCH   1  22
HETATM   22  C   UNL     1      41.505 -12.533   4.494  1.00  0.00     0.274 C 
BRANCH  22  23
HETATM   23  C   UNL     1      42.758 -12.003   5.097  1.00  0.00    -0.015 A 
HETATM   24  C   UNL     1      43.898 -11.610   4.421  1.00  0.00     0.097 A 
HETATM   25  N   UNL     1      44.830 -11.199   5.338  1.00  0.00    -0.360 N 
HETATM   26  C   UNL     1      44.333 -11.348   6.612  1.00  0.00     0.108 A 
HETATM   27  H   UNL     1      45.771 -10.882   5.129  1.00  0.00     0.165 HD
HETATM   28  C   UNL     1      43.027 -11.787   6.479  1.00  0.00     0.046 A 
BRANCH  26  29
HETATM   29  C   UNL     1      45.075 -11.100   7.826  1.00  0.00     0.309 C 
HETATM   30  O   UNL     1      46.268 -10.838   7.874  1.00  0.00    -0.258 OA
BRANCH  29  31
HETATM   31  O   UNL     1      44.237 -11.170   8.896  1.00  0.00    -0.321 OA
HETATM   32  C   UNL     1      44.577 -10.271   9.952  1.00  0.00     0.213 C 
ENDBRANCH  29  31
ENDBRANCH  26  29
ENDBRANCH  22  23
ENDBRANCH   1  22
TORSDOF 7
ENDMDL
MODEL 9
REMARK VINA RESULT:      -7.5      3.069      7.398
REMARK  7 active torsions:
REMARK  status: ('A' for Active; 'I' for Inactive)
REMARK    1  A    between atoms: O_2  and  C_3 
REMARK    2  A    between atoms: C_3  and  C_4 
REMARK    3  A    between atoms: C_8  and  C_9 
REMARK    4  A    between atoms: C_9  and  N_10 
REMARK    5  A    between atoms: C_13  and  C_14 
REMARK    6  A    between atoms: C_14  and  N_15 
REMARK       I    between atoms: N_15  and  C_16 
REMARK       I    between atoms: C_16  and  N_17 
REMARK    7  A    between atoms: N_17  and  C_18 
ROOT
HETATM    1  N   UNL     1      43.341 -17.925   6.119  1.00  0.00    -0.067 N 
HETATM    2  H   UNL     1      42.423 -17.781   5.647  1.00  0.00     0.280 HD
HETATM    3  C   UNL     1      44.394 -17.578   5.099  1.00  0.00     0.241 C 
HETATM    4  C   UNL     1      44.422 -18.569   3.928  1.00  0.00     0.029 C 
HETATM    5  C   UNL     1      44.596 -19.994   4.470  1.00  0.00     0.009 C 
HETATM    6  C   UNL     1      43.521 -20.344   5.496  1.00  0.00     0.028 C 
HETATM    7  C   UNL     1      43.454 -19.334   6.630  1.00  0.00     0.235 C 
ENDROOT
BRANCH   4   8
HETATM    8  C   UNL     1      43.226 -18.516   2.956  1.00  0.00     0.130 C 
BRANCH   8   9
HETATM    9  N   UNL     1      43.212 -17.364   2.080  1.00  0.00    -0.342 N 
HETATM   10  C   UNL     1      42.195 -16.434   2.202  1.00  0.00     0.320 C 
HETATM   11  N   UNL     1      42.245 -15.507   1.191  1.00  0.00    -0.309 N 
HETATM   12  O   UNL     1      41.421 -16.475   3.154  1.00  0.00    -0.247 OA
HETATM   13  H   UNL     1      43.085 -15.509   0.628  1.00  0.00     0.170 HD
HETATM   14  H   UNL     1      43.524 -17.527   1.129  1.00  0.00     0.164 HD
BRANCH  11  15
HETATM   15  C   UNL     1      41.331 -14.466   0.931  1.00  0.00     0.039 A 
HETATM   16  C   UNL     1      40.355 -14.523  -0.060  1.00  0.00     0.071 A 
HETATM   17  C   UNL     1      39.483 -13.450  -0.236  1.00  0.00     0.118 A 
HETATM   18  F   UNL     1      38.524 -13.533  -1.167  1.00  0.00    -0.206 F 
HETATM   19  C   UNL     1      39.577 -12.306   0.547  1.00  0.00     0.042 A 
HETATM   20  C   UNL     1      40.564 -12.231   1.524  1.00  0.00     0.005 A 
HETATM   21  C   UNL     1      41.436 -13.308   1.716  1.00  0.00     0.030 A 
ENDBRANCH  11  15
ENDBRANCH   8   9
ENDBRANCH   4   8
BRANCH   1  22
HETATM   22  C   UNL     1      43.329 -16.954   7.289  1.00  0.00     0.274 C 
BRANCH  22  23
HETATM   23  C   UNL     1      42.845 -15.587   6.955  1.00  0.00    -0.015 A 
HETATM   24  C   UNL     1      41.532 -15.201   6.757  1.00  0.00     0.097 A 
HETATM   25  N   UNL     1      41.510 -13.865   6.454  1.00  0.00    -0.360 N 
HETATM   26  C   UNL     1      42.793 -13.371   6.415  1.00  0.00     0.108 A 
HETATM   27  H   UNL     1      40.683 -13.318   6.233  1.00  0.00     0.165 HD
HETATM   28  C   UNL     1      43.629 -14.411   6.783  1.00  0.00     0.046 A 
BRANCH  26  29
HETATM   29  C   UNL     1      43.152 -12.025   6.037  1.00  0.00     0.309 C 
HETATM   30  O   UNL     1      43.782 -11.246   6.738  1.00  0.00    -0.258 OA
BRANCH  29  31
HETATM   31  O   UNL     1      42.712 -11.772   4.774  1.00  0.00    -0.321 OA
HETATM   32  C   UNL     1      43.763 -11.590   3.825  1.00  0.00     0.213 C 
ENDBRANCH  29  31
ENDBRANCH  26  29
ENDBRANCH  22  23
ENDBRANCH   1  22
TORSDOF 7
ENDMDL
MODEL 10
REMARK VINA RESULT:      -7.5     14.131     16.081
REMARK  7 active torsions:
REMARK  status: ('A' for Active; 'I' for Inactive)
REMARK    1  A    between atoms: O_2  and  C_3 
REMARK    2  A    between atoms: C_3  and  C_4 
REMARK    3  A    between atoms: C_8  and  C_9 
REMARK    4  A    between atoms: C_9  and  N_10 
REMARK    5  A    between atoms: C_13  and  C_14 
REMARK    6  A    between atoms: C_14  and  N_15 
REMARK       I    between atoms: N_15  and  C_16 
REMARK       I    between atoms: C_16  and  N_17 
REMARK    7  A    between atoms: N_17  and  C_18 
ROOT
HETATM    1  N   UNL     1      47.474 -31.154   2.869  1.00  0.00    -0.067 N 
HETATM    2  H   UNL     1      47.204 -30.636   2.005  1.00  0.00     0.280 HD
HETATM    3  C   UNL     1      47.457 -30.143   3.985  1.00  0.00     0.241 C 
HETATM    4  C   UNL     1      48.558 -29.086   3.833  1.00  0.00     0.029 C 
HETATM    5  C   UNL     1      49.921 -29.782   3.709  1.00  0.00     0.009 C 
HETATM    6  C   UNL     1      49.934 -30.799   2.570  1.00  0.00     0.028 C 
HETATM    7  C   UNL     1      48.812 -31.816   2.689  1.00  0.00     0.235 C 
ENDROOT
BRANCH   4   8
HETATM    8  C   UNL     1      48.379 -28.070   2.687  1.00  0.00     0.130 C 
BRANCH   8   9
HETATM    9  N   UNL     1      47.075 -28.094   2.058  1.00  0.00    -0.342 N 
HETATM   10  C   UNL     1      46.965 -28.520   0.746  1.00  0.00     0.320 C 
HETATM   11  N   UNL     1      45.696 -28.320   0.263  1.00  0.00    -0.309 N 
HETATM   12  O   UNL     1      47.917 -29.048   0.178  1.00  0.00    -0.247 OA
HETATM   13  H   UNL     1      44.993 -28.078   0.949  1.00  0.00     0.170 HD
HETATM   14  H   UNL     1      46.447 -27.340   2.312  1.00  0.00     0.164 HD
BRANCH  11  15
HETATM   15  C   UNL     1      45.227 -28.545  -1.047  1.00  0.00     0.039 A 
HETATM   16  C   UNL     1      45.504 -27.703  -2.122  1.00  0.00     0.071 A 
HETATM   17  C   UNL     1      45.010 -28.013  -3.388  1.00  0.00     0.118 A 
HETATM   18  F   UNL     1      45.314 -27.218  -4.421  1.00  0.00    -0.206 F 
HETATM   19  C   UNL     1      44.225 -29.140  -3.602  1.00  0.00     0.042 A 
HETATM   20  C   UNL     1      43.926 -29.973  -2.530  1.00  0.00     0.005 A 
HETATM   21  C   UNL     1      44.427 -29.677  -1.257  1.00  0.00     0.030 A 
ENDBRANCH  11  15
ENDBRANCH   8   9
ENDBRANCH   4   8
BRANCH   1  22
HETATM   22  C   UNL     1      46.395 -32.213   3.033  1.00  0.00     0.274 C 
BRANCH  22  23
HETATM   23  C   UNL     1      45.007 -31.680   3.103  1.00  0.00    -0.015 A 
HETATM   24  C   UNL     1      44.130 -31.800   4.164  1.00  0.00     0.097 A 
HETATM   25  N   UNL     1      42.950 -31.187   3.827  1.00  0.00    -0.360 N 
HETATM   26  C   UNL     1      43.027 -30.696   2.545  1.00  0.00     0.108 A 
HETATM   27  H   UNL     1      42.117 -31.143   4.405  1.00  0.00     0.165 HD
HETATM   28  C   UNL     1      44.316 -30.938   2.103  1.00  0.00     0.046 A 
BRANCH  26  29
HETATM   29  C   UNL     1      41.938 -30.071   1.830  1.00  0.00     0.309 C 
HETATM   30  O   UNL     1      42.012 -29.005   1.237  1.00  0.00    -0.258 OA
BRANCH  29  31
HETATM   31  O   UNL     1      40.835 -30.867   1.892  1.00  0.00    -0.321 OA
HETATM   32  C   UNL     1      40.982 -32.107   1.201  1.00  0.00     0.213 C 
ENDBRANCH  29  31
ENDBRANCH  26  29
ENDBRANCH  22  23
ENDBRANCH   1  22
TORSDOF 7
ENDMDL
