MODEL 1
REMARK VINA RESULT:      -7.4      0.000      0.000
REMARK  6 active torsions:
REMARK  status: ('A' for Active; 'I' for Inactive)
REMARK    1  A    between atoms: C_4  and  C_5 
REMARK    2  A    between atoms: C_5  and  N_6 
REMARK    3  A    between atoms: C_5  and  C_10 
REMARK    4  A    between atoms: C_10  and  N_11 
REMARK       I    between atoms: N_11  and  C_12 
REMARK       I    between atoms: C_12  and  N_13 
REMARK    5  A    between atoms: N_13  and  C_14 
REMARK    6  A    between atoms: C_17  and  N_18 
ROOT
HETATM    1  N   UNL     1      44.008 -17.465   5.520  1.00  0.00    -0.340 N 
HETATM    2  C   UNL     1      43.384 -17.800   6.674  1.00  0.00     0.320 C 
HETATM    3  N   UNL     1      42.688 -16.843   7.334  1.00  0.00    -0.309 N 
HETATM    4  O   UNL     1      43.519 -18.922   7.165  1.00  0.00    -0.247 OA
HETATM    5  H   UNL     1      44.139 -16.473   5.358  1.00  0.00     0.164 HD
HETATM    6  H   UNL     1      42.479 -17.110   8.290  1.00  0.00     0.170 HD
ENDROOT
BRANCH   1   7
HETATM    7  C   UNL     1      44.690 -18.407   4.629  1.00  0.00     0.164 C 
BRANCH   7   8
HETATM    8  C   UNL     1      44.105 -18.546   3.185  1.00  0.00     0.261 C 
BRANCH   8   9
HETATM    9  C   UNL     1      43.186 -17.410   2.862  1.00  0.00     0.085 A 
HETATM   10  O   UNL     1      43.697 -16.150   2.970  1.00  0.00    -0.318 OA
HETATM   11  C   UNL     1      42.693 -15.280   2.667  1.00  0.00     0.049 A 
HETATM   12  C   UNL     1      43.011 -13.838   2.744  1.00  0.00     0.076 C 
HETATM   13  C   UNL     1      41.548 -15.974   2.342  1.00  0.00     0.035 A 
HETATM   14  C   UNL     1      41.864 -17.348   2.467  1.00  0.00     0.037 A 
ENDBRANCH   8   9
BRANCH   8  15
HETATM   15  N   UNL     1      43.479 -19.921   2.939  1.00  0.00    -0.067 N 
HETATM   16  H   UNL     1      42.458 -19.760   3.056  1.00  0.00     0.280 HD
HETATM   17  C   UNL     1      43.620 -20.481   1.556  1.00  0.00     0.270 C 
HETATM   18  C   UNL     1      43.857 -20.928   3.978  1.00  0.00     0.270 C 
ENDBRANCH   8  15
ENDBRANCH   7   8
ENDBRANCH   1   7
BRANCH   3  19
HETATM   19  C   UNL     1      42.086 -15.643   6.905  1.00  0.00     0.036 A 
HETATM   20  C   UNL     1      42.767 -14.445   6.703  1.00  0.00     0.032 A 
HETATM   21  C   UNL     1      42.094 -13.311   6.218  1.00  0.00     0.032 A 
HETATM   22  C   UNL     1      40.731 -13.363   5.909  1.00  0.00     0.040 A 
HETATM   23  C   UNL     1      40.049 -14.570   6.114  1.00  0.00     0.032 A 
HETATM   24  C   UNL     1      40.725 -15.698   6.594  1.00  0.00     0.032 A 
BRANCH  22  25
HETATM   25  N   UNL     1      40.025 -12.226   5.403  1.00  0.00    -0.309 N 
HETATM   26  C   UNL     1      39.475 -11.998   4.140  1.00  0.00     0.106 A 
HETATM   27  C   UNL     1      39.342 -12.994   3.046  1.00  0.00     0.091 C 
HETATM   28  N   UNL     1      38.969 -10.781   4.051  1.00  0.00    -0.246 NA
HETATM   29  C   UNL     1      39.122 -10.214   5.277  1.00  0.00     0.136 A 
HETATM   30  C   UNL     1      39.744 -11.085   6.134  1.00  0.00     0.118 A 
ENDBRANCH  22  25
ENDBRANCH   3  19
TORSDOF 6
ENDMDL
MODEL 2
REMARK VINA RESULT:      -7.3      2.212      7.642
REMARK  6 active torsions:
REMARK  status: ('A' for Active; 'I' for Inactive)
REMARK    1  A    between atoms: C_4  and  C_5 
REMARK    2  A    between atoms: C_5  and  N_6 
REMARK    3  A    between atoms: C_5  and  C_10 
REMARK    4  A    between atoms: C_10  and  N_11 
REMARK       I    between atoms: N_11  and  C_12 
REMARK       I    between atoms: C_12  and  N_13 
REMARK    5  A    between atoms: N_13  and  C_14 
REMARK    6  A    between atoms: C_17  and  N_18 
ROOT
HETATM    1  N   UNL     1      42.404 -12.358   2.536  1.00  0.00    -0.340 N 
HETATM    2  C   UNL     1      41.542 -12.739   1.563  1.00  0.00     0.320 C 
HETATM    3  N   UNL     1      41.641 -13.996   1.069  1.00  0.00    -0.309 N 
HETATM    4  O   UNL     1      40.748 -11.937   1.071  1.00  0.00    -0.247 OA
HETATM    5  H   UNL     1      43.230 -12.935   2.649  1.00  0.00     0.164 HD
HETATM    6  H   UNL     1      41.143 -14.104   0.191  1.00  0.00     0.170 HD
ENDROOT
BRANCH   1   7
HETATM    7  C   UNL     1      42.346 -11.084   3.258  1.00  0.00     0.164 C 
BRANCH   7   8
HETATM    8  C   UNL     1      41.721 -11.126   4.692  1.00  0.00     0.261 C 
BRANCH   8   9
HETATM    9  C   UNL     1      41.636 -12.529   5.205  1.00  0.00     0.085 A 
HETATM   10  O   UNL     1      42.809 -13.212   5.340  1.00  0.00    -0.318 OA
HETATM   11  C   UNL     1      42.500 -14.463   5.782  1.00  0.00     0.049 A 
HETATM   12  C   UNL     1      43.626 -15.401   5.978  1.00  0.00     0.076 C 
HETATM   13  C   UNL     1      41.138 -14.579   5.954  1.00  0.00     0.035 A 
HETATM   14  C   UNL     1      40.579 -13.333   5.583  1.00  0.00     0.037 A 
ENDBRANCH   8   9
BRANCH   8  15
HETATM   15  N   UNL     1      40.393 -10.369   4.771  1.00  0.00    -0.067 N 
HETATM   16  H   UNL     1      39.671 -11.118   4.743  1.00  0.00     0.280 HD
HETATM   17  C   UNL     1      40.122  -9.629   6.046  1.00  0.00     0.270 C 
HETATM   18  C   UNL     1      40.139  -9.509   3.574  1.00  0.00     0.270 C 
ENDBRANCH   8  15
ENDBRANCH   7   8
ENDBRANCH   1   7
BRANCH   3  19
HETATM   19  C   UNL     1      42.164 -15.189   1.608  1.00  0.00     0.036 A 
HETATM   20  C   UNL     1      43.483 -15.613   1.458  1.00  0.00     0.032 A 
HETATM   21  C   UNL     1      43.933 -16.790   2.080  1.00  0.00     0.032 A 
HETATM   22  C   UNL     1      43.074 -17.551   2.880  1.00  0.00     0.040 A 
HETATM   23  C   UNL     1      41.749 -17.122   3.029  1.00  0.00     0.032 A 
HETATM   24  C   UNL     1      41.306 -15.947   2.409  1.00  0.00     0.032 A 
BRANCH  22  25
HETATM   25  N   UNL     1      43.511 -18.747   3.534  1.00  0.00    -0.309 N 
HETATM   26  C   UNL     1      43.630 -20.048   3.041  1.00  0.00     0.106 A 
HETATM   27  C   UNL     1      43.490 -20.468   1.623  1.00  0.00     0.091 C 
HETATM   28  N   UNL     1      44.000 -20.888   3.991  1.00  0.00    -0.246 NA
HETATM   29  C   UNL     1      44.192 -20.138   5.109  1.00  0.00     0.136 A 
HETATM   30  C   UNL     1      43.924 -18.819   4.852  1.00  0.00     0.118 A 
ENDBRANCH  22  25
ENDBRANCH   3  19
TORSDOF 6
ENDMDL
MODEL 3
REMARK VINA RESULT:      -7.3      2.313      7.022
REMARK  6 active torsions:
REMARK  status: ('A' for Active; 'I' for Inactive)
REMARK    1  A    between atoms: C_4  and  C_5 
REMARK    2  A    between atoms: C_5  and  N_6 
REMARK    3  A    between atoms: C_5  and  C_10 
REMARK    4  A    between atoms: C_10  and  N_11 
REMARK       I    between atoms: N_11  and  C_12 
REMARK       I    between atoms: C_12  and  N_13 
REMARK    5  A    between atoms: N_13  and  C_14 
REMARK    6  A    between atoms: C_17  and  N_18 
ROOT
HETATM    1  N   UNL     1      42.494 -12.849   5.971  1.00  0.00    -0.340 N 
HETATM    2  C   UNL     1      43.397 -13.178   6.925  1.00  0.00     0.320 C 
HETATM    3  N   UNL     1      43.670 -14.489   7.131  1.00  0.00    -0.309 N 
HETATM    4  O   UNL     1      43.889 -12.317   7.655  1.00  0.00    -0.247 OA
HETATM    5  H   UNL     1      41.888 -13.598   5.654  1.00  0.00     0.164 HD
HETATM    6  H   UNL     1      44.146 -14.649   8.013  1.00  0.00     0.170 HD
ENDROOT
BRANCH   1   7
HETATM    7  C   UNL     1      42.184 -11.482   5.543  1.00  0.00     0.164 C 
BRANCH   7   8
HETATM    8  C   UNL     1      41.315 -11.339   4.251  1.00  0.00     0.261 C 
BRANCH   8   9
HETATM    9  C   UNL     1      41.287 -12.617   3.472  1.00  0.00     0.085 A 
HETATM   10  O   UNL     1      42.491 -13.140   3.098  1.00  0.00    -0.318 OA
HETATM   11  C   UNL     1      42.234 -14.269   2.379  1.00  0.00     0.049 A 
HETATM   12  C   UNL     1      43.401 -14.999   1.842  1.00  0.00     0.076 C 
HETATM   13  C   UNL     1      40.875 -14.486   2.310  1.00  0.00     0.035 A 
HETATM   14  C   UNL     1      40.263 -13.422   3.015  1.00  0.00     0.037 A 
ENDBRANCH   8   9
BRANCH   8  15
HETATM   15  N   UNL     1      41.716 -10.124   3.409  1.00  0.00    -0.067 N 
HETATM   16  H   UNL     1      42.751 -10.195   3.339  1.00  0.00     0.280 HD
HETATM   17  C   UNL     1      41.239 -10.110   1.988  1.00  0.00     0.270 C 
HETATM   18  C   UNL     1      41.438  -8.824   4.094  1.00  0.00     0.270 C 
ENDBRANCH   8  15
ENDBRANCH   7   8
ENDBRANCH   1   7
BRANCH   3  19
HETATM   19  C   UNL     1      43.556 -15.623   6.302  1.00  0.00     0.036 A 
HETATM   20  C   UNL     1      42.395 -15.996   5.626  1.00  0.00     0.032 A 
HETATM   21  C   UNL     1      42.389 -17.112   4.774  1.00  0.00     0.032 A 
HETATM   22  C   UNL     1      43.551 -17.863   4.567  1.00  0.00     0.040 A 
HETATM   23  C   UNL     1      44.716 -17.486   5.247  1.00  0.00     0.032 A 
HETATM   24  C   UNL     1      44.718 -16.370   6.094  1.00  0.00     0.032 A 
BRANCH  22  25
HETATM   25  N   UNL     1      43.573 -18.998   3.695  1.00  0.00    -0.309 N 
HETATM   26  C   UNL     1      43.892 -20.331   3.963  1.00  0.00     0.106 A 
HETATM   27  C   UNL     1      44.120 -20.928   5.304  1.00  0.00     0.091 C 
HETATM   28  N   UNL     1      43.865 -21.060   2.862  1.00  0.00    -0.246 NA
HETATM   29  C   UNL     1      43.465 -20.228   1.864  1.00  0.00     0.136 A 
HETATM   30  C   UNL     1      43.255 -18.964   2.349  1.00  0.00     0.118 A 
ENDBRANCH  22  25
ENDBRANCH   3  19
TORSDOF 6
ENDMDL
MODEL 4
REMARK VINA RESULT:      -7.2      2.157      6.717
REMARK  6 active torsions:
REMARK  status: ('A' for Active; 'I' for Inactive)
REMARK    1  A    between atoms: C_4  and  C_5 
REMARK    2  A    between atoms: C_5  and  N_6 
REMARK    3  A    between atoms: C_5  and  C_10 
REMARK    4  A    between atoms: C_10  and  N_11 
REMARK       I    between atoms: N_11  and  C_12 
REMARK       I    between atoms: C_12  and  N_13 
REMARK    5  A    between atoms: N_13  and  C_14 
REMARK    6  A    between atoms: C_17  and  N_18 
ROOT
HETATM    1  N   UNL     1      40.319 -12.993   4.926  1.00  0.00    -0.340 N 
HETATM    2  C   UNL     1      41.159 -12.514   5.874  1.00  0.00     0.320 C 
HETATM    3  N   UNL     1      41.953 -13.390   6.535  1.00  0.00    -0.309 N 
HETATM    4  O   UNL     1      41.137 -11.326   6.198  1.00  0.00    -0.247 OA
HETATM    5  H   UNL     1      40.144 -13.991   4.949  1.00  0.00     0.164 HD
HETATM    6  H   UNL     1      42.346 -12.991   7.381  1.00  0.00     0.170 HD
ENDROOT
BRANCH   1   7
HETATM    7  C   UNL     1      39.493 -12.167   4.040  1.00  0.00     0.164 C 
BRANCH   7   8
HETATM    8  C   UNL     1      39.240 -12.729   2.603  1.00  0.00     0.261 C 
BRANCH   8   9
HETATM    9  C   UNL     1      40.055 -13.958   2.350  1.00  0.00     0.085 A 
HETATM   10  O   UNL     1      41.409 -13.802   2.289  1.00  0.00    -0.318 OA
HETATM   11  C   UNL     1      41.944 -15.026   2.019  1.00  0.00     0.049 A 
HETATM   12  C   UNL     1      43.414 -15.097   1.881  1.00  0.00     0.076 C 
HETATM   13  C   UNL     1      40.944 -15.970   1.931  1.00  0.00     0.035 A 
HETATM   14  C   UNL     1      39.725 -15.283   2.144  1.00  0.00     0.037 A 
ENDBRANCH   8   9
BRANCH   8  15
HETATM   15  N   UNL     1      39.406 -11.658   1.520  1.00  0.00    -0.067 N 
HETATM   16  H   UNL     1      40.421 -11.684   1.291  1.00  0.00     0.280 HD
HETATM   17  C   UNL     1      38.715 -11.916   0.216  1.00  0.00     0.270 C 
HETATM   18  C   UNL     1      39.134 -10.275   2.021  1.00  0.00     0.270 C 
ENDBRANCH   8  15
ENDBRANCH   7   8
ENDBRANCH   1   7
BRANCH   3  19
HETATM   19  C   UNL     1      42.443 -14.668   6.196  1.00  0.00     0.036 A 
HETATM   20  C   UNL     1      43.766 -15.076   6.356  1.00  0.00     0.032 A 
HETATM   21  C   UNL     1      44.153 -16.390   6.045  1.00  0.00     0.032 A 
HETATM   22  C   UNL     1      43.218 -17.324   5.587  1.00  0.00     0.040 A 
HETATM   23  C   UNL     1      41.889 -16.911   5.427  1.00  0.00     0.032 A 
HETATM   24  C   UNL     1      41.507 -15.600   5.742  1.00  0.00     0.032 A 
BRANCH  22  25
HETATM   25  N   UNL     1      43.585 -18.671   5.274  1.00  0.00    -0.309 N 
HETATM   26  C   UNL     1      43.877 -19.260   4.042  1.00  0.00     0.106 A 
HETATM   27  C   UNL     1      44.050 -18.551   2.747  1.00  0.00     0.091 C 
HETATM   28  N   UNL     1      44.098 -20.556   4.171  1.00  0.00    -0.246 NA
HETATM   29  C   UNL     1      44.017 -20.826   5.501  1.00  0.00     0.136 A 
HETATM   30  C   UNL     1      43.728 -19.685   6.204  1.00  0.00     0.118 A 
ENDBRANCH  22  25
ENDBRANCH   3  19
TORSDOF 6
ENDMDL
MODEL 5
REMARK VINA RESULT:      -7.2      2.348      7.654
REMARK  6 active torsions:
REMARK  status: ('A' for Active; 'I' for Inactive)
REMARK    1  A    between atoms: C_4  and  C_5 
REMARK    2  A    between atoms: C_5  and  N_6 
REMARK    3  A    between atoms: C_5  and  C_10 
REMARK    4  A    between atoms: C_10  and  N_11 
REMARK       I    between atoms: N_11  and  C_12 
REMARK       I    between atoms: C_12  and  N_13 
REMARK    5  A    between atoms: N_13  and  C_14 
REMARK    6  A    between atoms: C_17  and  N_18 
ROOT
HETATM    1  N   UNL     1      42.358 -11.859   3.231  1.00  0.00    -0.340 N 
HETATM    2  C   UNL     1      41.295 -12.038   2.411  1.00  0.00     0.320 C 
HETATM    3  N   UNL     1      41.210 -13.193   1.708  1.00  0.00    -0.309 N 
HETATM    4  O   UNL     1      40.473 -11.139   2.233  1.00  0.00    -0.247 OA
HETATM    5  H   UNL     1      43.150 -12.472   3.073  1.00  0.00     0.164 HD
HETATM    6  H   UNL     1      40.540 -13.132   0.948  1.00  0.00     0.170 HD
ENDROOT
BRANCH   1   7
HETATM    7  C   UNL     1      42.531 -10.729   4.148  1.00  0.00     0.164 C 
BRANCH   7   8
HETATM    8  C   UNL     1      42.470 -11.059   5.676  1.00  0.00     0.261 C 
BRANCH   8   9
HETATM    9  C   UNL     1      42.509 -12.536   5.913  1.00  0.00     0.085 A 
HETATM   10  O   UNL     1      41.310 -13.182   5.992  1.00  0.00    -0.318 OA
HETATM   11  C   UNL     1      41.576 -14.495   6.244  1.00  0.00     0.049 A 
HETATM   12  C   UNL     1      40.413 -15.395   6.397  1.00  0.00     0.076 C 
HETATM   13  C   UNL     1      42.937 -14.698   6.303  1.00  0.00     0.035 A 
HETATM   14  C   UNL     1      43.540 -13.436   6.090  1.00  0.00     0.037 A 
ENDBRANCH   8   9
BRANCH   8  15
HETATM   15  N   UNL     1      41.300 -10.362   6.376  1.00  0.00    -0.067 N 
HETATM   16  H   UNL     1      40.714 -11.145   6.732  1.00  0.00     0.280 HD
HETATM   17  C   UNL     1      41.636  -9.556   7.595  1.00  0.00     0.270 C 
HETATM   18  C   UNL     1      40.429  -9.593   5.434  1.00  0.00     0.270 C 
ENDBRANCH   8  15
ENDBRANCH   7   8
ENDBRANCH   1   7
BRANCH   3  19
HETATM   19  C   UNL     1      41.751 -14.476   1.923  1.00  0.00     0.036 A 
HETATM   20  C   UNL     1      43.005 -14.891   1.479  1.00  0.00     0.032 A 
HETATM   21  C   UNL     1      43.488 -16.173   1.789  1.00  0.00     0.032 A 
HETATM   22  C   UNL     1      42.731 -17.056   2.568  1.00  0.00     0.040 A 
HETATM   23  C   UNL     1      41.471 -16.636   3.013  1.00  0.00     0.032 A 
HETATM   24  C   UNL     1      40.995 -15.356   2.703  1.00  0.00     0.032 A 
BRANCH  22  25
HETATM   25  N   UNL     1      43.205 -18.362   2.907  1.00  0.00    -0.309 N 
HETATM   26  C   UNL     1      43.873 -18.807   4.050  1.00  0.00     0.106 A 
HETATM   27  C   UNL     1      44.096 -18.030   5.297  1.00  0.00     0.091 C 
HETATM   28  N   UNL     1      44.208 -20.081   3.944  1.00  0.00    -0.246 NA
HETATM   29  C   UNL     1      43.707 -20.508   2.754  1.00  0.00     0.136 A 
HETATM   30  C   UNL     1      43.066 -19.483   2.108  1.00  0.00     0.118 A 
ENDBRANCH  22  25
ENDBRANCH   3  19
TORSDOF 6
ENDMDL
MODEL 6
REMARK VINA RESULT:      -6.8      2.123      3.133
REMARK  6 active torsions:
REMARK  status: ('A' for Active; 'I' for Inactive)
REMARK    1  A    between atoms: C_4  and  C_5 
REMARK    2  A    between atoms: C_5  and  N_6 
REMARK    3  A    between atoms: C_5  and  C_10 
REMARK    4  A    between atoms: C_10  and  N_11 
REMARK       I    between atoms: N_11  and  C_12 
REMARK       I    between atoms: C_12  and  N_13 
REMARK    5  A    between atoms: N_13  and  C_14 
REMARK    6  A    between atoms: C_17  and  N_18 
ROOT
HETATM    1  N   UNL     1      43.620 -15.492   6.061  1.00  0.00    -0.340 N 
HETATM    2  C   UNL     1      43.005 -14.840   7.076  1.00  0.00     0.320 C 
HETATM    3  N   UNL     1      42.292 -13.724   6.790  1.00  0.00    -0.309 N 
HETATM    4  O   UNL     1      43.165 -15.194   8.245  1.00  0.00    -0.247 OA
HETATM    5  H   UNL     1      43.730 -14.969   5.199  1.00  0.00     0.164 HD
HETATM    6  H   UNL     1      42.092 -13.173   7.618  1.00  0.00     0.170 HD
ENDROOT
BRANCH   1   7
HETATM    7  C   UNL     1      44.318 -16.774   6.186  1.00  0.00     0.164 C 
BRANCH   7   8
HETATM    8  C   UNL     1      44.155 -17.773   4.994  1.00  0.00     0.261 C 
BRANCH   8   9
HETATM    9  C   UNL     1      43.361 -17.164   3.881  1.00  0.00     0.085 A 
HETATM   10  O   UNL     1      42.065 -16.836   4.152  1.00  0.00    -0.318 OA
HETATM   11  C   UNL     1      41.527 -16.335   3.004  1.00  0.00     0.049 A 
HETATM   12  C   UNL     1      40.106 -15.932   3.052  1.00  0.00     0.076 C 
HETATM   13  C   UNL     1      42.476 -16.319   2.006  1.00  0.00     0.035 A 
HETATM   14  C   UNL     1      43.660 -16.852   2.569  1.00  0.00     0.037 A 
ENDBRANCH   8   9
BRANCH   8  15
HETATM   15  N   UNL     1      43.621 -19.136   5.444  1.00  0.00    -0.067 N 
HETATM   16  H   UNL     1      42.704 -19.222   4.959  1.00  0.00     0.280 HD
HETATM   17  C   UNL     1      44.400 -20.337   4.999  1.00  0.00     0.270 C 
HETATM   18  C   UNL     1      43.319 -19.190   6.908  1.00  0.00     0.270 C 
ENDBRANCH   8  15
ENDBRANCH   7   8
ENDBRANCH   1   7
BRANCH   3  19
HETATM   19  C   UNL     1      41.665 -13.277   5.610  1.00  0.00     0.036 A 
HETATM   20  C   UNL     1      40.290 -13.104   5.462  1.00  0.00     0.032 A 
HETATM   21  C   UNL     1      39.756 -12.597   4.265  1.00  0.00     0.032 A 
HETATM   22  C   UNL     1      40.592 -12.236   3.203  1.00  0.00     0.040 A 
HETATM   23  C   UNL     1      41.973 -12.411   3.355  1.00  0.00     0.032 A 
HETATM   24  C   UNL     1      42.501 -12.914   4.551  1.00  0.00     0.032 A 
BRANCH  22  25
HETATM   25  N   UNL     1      40.074 -11.708   1.978  1.00  0.00    -0.309 N 
HETATM   26  C   UNL     1      40.119 -12.229   0.684  1.00  0.00     0.106 A 
HETATM   27  C   UNL     1      40.582 -13.587   0.299  1.00  0.00     0.091 C 
HETATM   28  N   UNL     1      39.587 -11.392  -0.189  1.00  0.00    -0.246 NA
HETATM   29  C   UNL     1      39.125 -10.335   0.531  1.00  0.00     0.136 A 
HETATM   30  C   UNL     1      39.387 -10.512   1.865  1.00  0.00     0.118 A 
ENDBRANCH  22  25
ENDBRANCH   3  19
TORSDOF 6
ENDMDL
MODEL 7
REMARK VINA RESULT:      -6.8      2.513      7.099
REMARK  6 active torsions:
REMARK  status: ('A' for Active; 'I' for Inactive)
REMARK    1  A    between atoms: C_4  and  C_5 
REMARK    2  A    between atoms: C_5  and  N_6 
REMARK    3  A    between atoms: C_5  and  C_10 
REMARK    4  A    between atoms: C_10  and  N_11 
REMARK       I    between atoms: N_11  and  C_12 
REMARK       I    between atoms: C_12  and  N_13 
REMARK    5  A    between atoms: N_13  and  C_14 
REMARK    6  A    between atoms: C_17  and  N_18 
ROOT
HETATM    1  N   UNL     1      39.524 -12.019   4.687  1.00  0.00    -0.340 N 
HETATM    2  C   UNL     1      39.841 -11.973   6.003  1.00  0.00     0.320 C 
HETATM    3  N   UNL     1      40.420 -13.060   6.566  1.00  0.00    -0.309 N 
HETATM    4  O   UNL     1      39.527 -11.005   6.697  1.00  0.00    -0.247 OA
HETATM    5  H   UNL     1      39.496 -12.941   4.268  1.00  0.00     0.164 HD
HETATM    6  H   UNL     1      40.384 -13.034   7.579  1.00  0.00     0.170 HD
ENDROOT
BRANCH   1   7
HETATM    7  C   UNL     1      39.013 -10.889   3.906  1.00  0.00     0.164 C 
BRANCH   7   8
HETATM    8  C   UNL     1      39.334 -10.901   2.375  1.00  0.00     0.261 C 
BRANCH   8   9
HETATM    9  C   UNL     1      40.071 -12.144   1.985  1.00  0.00     0.085 A 
HETATM   10  O   UNL     1      39.437 -13.333   2.201  1.00  0.00    -0.318 OA
HETATM   11  C   UNL     1      40.291 -14.321   1.812  1.00  0.00     0.049 A 
HETATM   12  C   UNL     1      39.823 -15.714   1.980  1.00  0.00     0.076 C 
HETATM   13  C   UNL     1      41.458 -13.773   1.326  1.00  0.00     0.035 A 
HETATM   14  C   UNL     1      41.317 -12.369   1.436  1.00  0.00     0.037 A 
ENDBRANCH   8   9
BRANCH   8  15
HETATM   15  N   UNL     1      40.026  -9.616   1.914  1.00  0.00    -0.067 N 
HETATM   16  H   UNL     1      41.018  -9.897   1.777  1.00  0.00     0.280 HD
HETATM   17  C   UNL     1      39.599  -9.068   0.585  1.00  0.00     0.270 C 
HETATM   18  C   UNL     1      40.041  -8.552   2.965  1.00  0.00     0.270 C 
ENDBRANCH   8  15
ENDBRANCH   7   8
ENDBRANCH   1   7
BRANCH   3  19
HETATM   19  C   UNL     1      41.177 -14.118   6.024  1.00  0.00     0.036 A 
HETATM   20  C   UNL     1      42.534 -14.043   5.714  1.00  0.00     0.032 A 
HETATM   21  C   UNL     1      43.223 -15.168   5.231  1.00  0.00     0.032 A 
HETATM   22  C   UNL     1      42.569 -16.394   5.069  1.00  0.00     0.040 A 
HETATM   23  C   UNL     1      41.205 -16.467   5.382  1.00  0.00     0.032 A 
HETATM   24  C   UNL     1      40.524 -15.343   5.866  1.00  0.00     0.032 A 
BRANCH  22  25
HETATM   25  N   UNL     1      43.250 -17.557   4.589  1.00  0.00    -0.309 N 
HETATM   26  C   UNL     1      43.477 -17.990   3.281  1.00  0.00     0.106 A 
HETATM   27  C   UNL     1      43.203 -17.222   2.040  1.00  0.00     0.091 C 
HETATM   28  N   UNL     1      44.085 -19.163   3.264  1.00  0.00    -0.246 NA
HETATM   29  C   UNL     1      44.324 -19.488   4.562  1.00  0.00     0.136 A 
HETATM   30  C   UNL     1      43.846 -18.510   5.396  1.00  0.00     0.118 A 
ENDBRANCH  22  25
ENDBRANCH   3  19
TORSDOF 6
ENDMDL
MODEL 8
REMARK VINA RESULT:      -6.8      4.986      7.241
REMARK  6 active torsions:
REMARK  status: ('A' for Active; 'I' for Inactive)
REMARK    1  A    between atoms: C_4  and  C_5 
REMARK    2  A    between atoms: C_5  and  N_6 
REMARK    3  A    between atoms: C_5  and  C_10 
REMARK    4  A    between atoms: C_10  and  N_11 
REMARK       I    between atoms: N_11  and  C_12 
REMARK       I    between atoms: C_12  and  N_13 
REMARK    5  A    between atoms: N_13  and  C_14 
REMARK    6  A    between atoms: C_17  and  N_18 
ROOT
HETATM    1  N   UNL     1      41.598 -14.454   0.873  1.00  0.00    -0.340 N 
HETATM    2  C   UNL     1      40.304 -14.733   0.590  1.00  0.00     0.320 C 
HETATM    3  N   UNL     1      39.529 -13.749   0.074  1.00  0.00    -0.309 N 
HETATM    4  O   UNL     1      39.813 -15.824   0.881  1.00  0.00    -0.247 OA
HETATM    5  H   UNL     1      41.839 -13.470   0.930  1.00  0.00     0.164 HD
HETATM    6  H   UNL     1      38.539 -13.966   0.137  1.00  0.00     0.170 HD
ENDROOT
BRANCH   1   7
HETATM    7  C   UNL     1      42.593 -15.436   1.314  1.00  0.00     0.164 C 
BRANCH   7   8
HETATM    8  C   UNL     1      42.805 -15.563   2.858  1.00  0.00     0.261 C 
BRANCH   8   9
HETATM    9  C   UNL     1      43.305 -16.925   3.226  1.00  0.00     0.085 A 
HETATM   10  O   UNL     1      43.143 -17.915   2.301  1.00  0.00    -0.318 OA
HETATM   11  C   UNL     1      43.631 -19.063   2.849  1.00  0.00     0.049 A 
HETATM   12  C   UNL     1      43.537 -20.289   2.028  1.00  0.00     0.076 C 
HETATM   13  C   UNL     1      44.126 -18.811   4.110  1.00  0.00     0.035 A 
HETATM   14  C   UNL     1      43.917 -17.432   4.354  1.00  0.00     0.037 A 
ENDBRANCH   8   9
BRANCH   8  15
HETATM   15  N   UNL     1      41.569 -15.136   3.654  1.00  0.00    -0.067 N 
HETATM   16  H   UNL     1      40.976 -14.642   2.956  1.00  0.00     0.280 HD
HETATM   17  C   UNL     1      40.699 -16.238   4.179  1.00  0.00     0.270 C 
HETATM   18  C   UNL     1      41.878 -14.129   4.716  1.00  0.00     0.270 C 
ENDBRANCH   8  15
ENDBRANCH   7   8
ENDBRANCH   1   7
BRANCH   3  19
HETATM   19  C   UNL     1      39.837 -12.581  -0.652  1.00  0.00     0.036 A 
HETATM   20  C   UNL     1      39.623 -11.283  -0.190  1.00  0.00     0.032 A 
HETATM   21  C   UNL     1      40.016 -10.175  -0.960  1.00  0.00     0.032 A 
HETATM   22  C   UNL     1      40.648 -10.348  -2.196  1.00  0.00     0.040 A 
HETATM   23  C   UNL     1      40.861 -11.653  -2.657  1.00  0.00     0.032 A 
HETATM   24  C   UNL     1      40.471 -12.755  -1.885  1.00  0.00     0.032 A 
BRANCH  22  25
HETATM   25  N   UNL     1      41.067  -9.236  -2.993  1.00  0.00    -0.309 N 
HETATM   26  C   UNL     1      41.990  -8.226  -2.712  1.00  0.00     0.106 A 
HETATM   27  C   UNL     1      42.909  -8.174  -1.546  1.00  0.00     0.091 C 
HETATM   28  N   UNL     1      42.037  -7.336  -3.687  1.00  0.00    -0.246 NA
HETATM   29  C   UNL     1      41.192  -7.784  -4.653  1.00  0.00     0.136 A 
HETATM   30  C   UNL     1      40.602  -8.960  -4.266  1.00  0.00     0.118 A 
ENDBRANCH  22  25
ENDBRANCH   3  19
TORSDOF 6
ENDMDL
MODEL 9
REMARK VINA RESULT:      -6.8      2.905      7.738
REMARK  6 active torsions:
REMARK  status: ('A' for Active; 'I' for Inactive)
REMARK    1  A    between atoms: C_4  and  C_5 
REMARK    2  A    between atoms: C_5  and  N_6 
REMARK    3  A    between atoms: C_5  and  C_10 
REMARK    4  A    between atoms: C_10  and  N_11 
REMARK       I    between atoms: N_11  and  C_12 
REMARK       I    between atoms: C_12  and  N_13 
REMARK    5  A    between atoms: N_13  and  C_14 
REMARK    6  A    between atoms: C_17  and  N_18 
ROOT
HETATM    1  N   UNL     1      42.123 -11.831   2.743  1.00  0.00    -0.340 N 
HETATM    2  C   UNL     1      41.153 -12.099   1.837  1.00  0.00     0.320 C 
HETATM    3  N   UNL     1      41.182 -13.292   1.195  1.00  0.00    -0.309 N 
HETATM    4  O   UNL     1      40.318 -11.248   1.530  1.00  0.00    -0.247 OA
HETATM    5  H   UNL     1      42.950 -12.415   2.697  1.00  0.00     0.164 HD
HETATM    6  H   UNL     1      40.589 -13.300   0.372  1.00  0.00     0.170 HD
ENDROOT
BRANCH   1   7
HETATM    7  C   UNL     1      42.160 -10.647   3.607  1.00  0.00     0.164 C 
BRANCH   7   8
HETATM    8  C   UNL     1      42.009 -10.904   5.143  1.00  0.00     0.261 C 
BRANCH   8   9
HETATM    9  C   UNL     1      43.344 -11.040   5.804  1.00  0.00     0.085 A 
HETATM   10  O   UNL     1      43.433 -10.644   7.107  1.00  0.00    -0.318 OA
HETATM   11  C   UNL     1      44.728 -10.820   7.494  1.00  0.00     0.049 A 
HETATM   12  C   UNL     1      45.071 -10.429   8.878  1.00  0.00     0.076 C 
HETATM   13  C   UNL     1      45.463 -11.350   6.457  1.00  0.00     0.035 A 
HETATM   14  C   UNL     1      44.572 -11.493   5.366  1.00  0.00     0.037 A 
ENDBRANCH   8   9
BRANCH   8  15
HETATM   15  N   UNL     1      41.058 -12.064   5.449  1.00  0.00    -0.067 N 
HETATM   16  H   UNL     1      40.675 -12.330   4.519  1.00  0.00     0.280 HD
HETATM   17  C   UNL     1      41.686 -13.320   5.975  1.00  0.00     0.270 C 
HETATM   18  C   UNL     1      39.882 -11.652   6.276  1.00  0.00     0.270 C 
ENDBRANCH   8  15
ENDBRANCH   7   8
ENDBRANCH   1   7
BRANCH   3  19
HETATM   19  C   UNL     1      41.749 -14.537   1.533  1.00  0.00     0.036 A 
HETATM   20  C   UNL     1      43.103 -14.848   1.417  1.00  0.00     0.032 A 
HETATM   21  C   UNL     1      43.589 -16.099   1.833  1.00  0.00     0.032 A 
HETATM   22  C   UNL     1      42.731 -17.053   2.392  1.00  0.00     0.040 A 
HETATM   23  C   UNL     1      41.371 -16.737   2.507  1.00  0.00     0.032 A 
HETATM   24  C   UNL     1      40.891 -15.488   2.094  1.00  0.00     0.032 A 
BRANCH  22  25
HETATM   25  N   UNL     1      43.204 -18.329   2.833  1.00  0.00    -0.309 N 
HETATM   26  C   UNL     1      43.893 -18.679   3.997  1.00  0.00     0.106 A 
HETATM   27  C   UNL     1      44.149 -17.799   5.166  1.00  0.00     0.091 C 
HETATM   28  N   UNL     1      44.217 -19.959   3.994  1.00  0.00    -0.246 NA
HETATM   29  C   UNL     1      43.688 -20.484   2.857  1.00  0.00     0.136 A 
HETATM   30  C   UNL     1      43.040 -19.514   2.138  1.00  0.00     0.118 A 
ENDBRANCH  22  25
ENDBRANCH   3  19
TORSDOF 6
ENDMDL
MODEL 10
REMARK VINA RESULT:      -6.7      3.589      7.651
REMARK  6 active torsions:
REMARK  status: ('A' for Active; 'I' for Inactive)
REMARK    1  A    between atoms: C_4  and  C_5 
REMARK    2  A    between atoms: C_5  and  N_6 
REMARK    3  A    between atoms: C_5  and  C_10 
REMARK    4  A    between atoms: C_10  and  N_11 
REMARK       I    between atoms: N_11  and  C_12 
REMARK       I    between atoms: C_12  and  N_13 
REMARK    5  A    between atoms: N_13  and  C_14 
REMARK    6  A    between atoms: C_17  and  N_18 
ROOT
HETATM    1  N   UNL     1      40.811 -12.985  -0.679  1.00  0.00    -0.340 N 
HETATM    2  C   UNL     1      39.772 -13.851  -0.610  1.00  0.00     0.320 C 
HETATM    3  N   UNL     1      39.915 -14.972   0.138  1.00  0.00    -0.309 N 
HETATM    4  O   UNL     1      38.756 -13.677  -1.283  1.00  0.00    -0.247 OA
HETATM    5  H   UNL     1      41.712 -13.348  -0.389  1.00  0.00     0.164 HD
HETATM    6  H   UNL     1      39.206 -15.667  -0.072  1.00  0.00     0.170 HD
ENDROOT
BRANCH   1   7
HETATM    7  C   UNL     1      40.771 -11.677  -1.337  1.00  0.00     0.164 C 
BRANCH   7   8
HETATM    8  C   UNL     1      40.762 -10.426  -0.397  1.00  0.00     0.261 C 
BRANCH   8   9
HETATM    9  C   UNL     1      40.952 -10.822   1.033  1.00  0.00     0.085 A 
HETATM   10  O   UNL     1      42.227 -11.097   1.435  1.00  0.00    -0.318 OA
HETATM   11  C   UNL     1      42.165 -11.464   2.746  1.00  0.00     0.049 A 
HETATM   12  C   UNL     1      43.440 -11.837   3.396  1.00  0.00     0.076 C 
HETATM   13  C   UNL     1      40.864 -11.404   3.193  1.00  0.00     0.035 A 
HETATM   14  C   UNL     1      40.080 -10.989   2.090  1.00  0.00     0.037 A 
ENDBRANCH   8   9
BRANCH   8  15
HETATM   15  N   UNL     1      39.537  -9.536  -0.623  1.00  0.00    -0.067 N 
HETATM   16  H   UNL     1      39.088  -9.479   0.314  1.00  0.00     0.280 HD
HETATM   17  C   UNL     1      39.808  -8.111  -1.001  1.00  0.00     0.270 C 
HETATM   18  C   UNL     1      38.522 -10.159  -1.527  1.00  0.00     0.270 C 
ENDBRANCH   8  15
ENDBRANCH   7   8
ENDBRANCH   1   7
BRANCH   3  19
HETATM   19  C   UNL     1      40.749 -15.283   1.231  1.00  0.00     0.036 A 
HETATM   20  C   UNL     1      42.138 -15.172   1.223  1.00  0.00     0.032 A 
HETATM   21  C   UNL     1      42.886 -15.450   2.379  1.00  0.00     0.032 A 
HETATM   22  C   UNL     1      42.254 -15.825   3.569  1.00  0.00     0.040 A 
HETATM   23  C   UNL     1      40.858 -15.936   3.574  1.00  0.00     0.032 A 
HETATM   24  C   UNL     1      40.116 -15.655   2.420  1.00  0.00     0.032 A 
BRANCH  22  25
HETATM   25  N   UNL     1      42.993 -16.102   4.763  1.00  0.00    -0.309 N 
HETATM   26  C   UNL     1      43.746 -17.224   5.114  1.00  0.00     0.106 A 
HETATM   27  C   UNL     1      44.108 -18.355   4.220  1.00  0.00     0.091 C 
HETATM   28  N   UNL     1      44.212 -17.122   6.345  1.00  0.00    -0.246 NA
HETATM   29  C   UNL     1      43.825 -15.901   6.800  1.00  0.00     0.136 A 
HETATM   30  C   UNL     1      43.097 -15.243   5.843  1.00  0.00     0.118 A 
ENDBRANCH  22  25
ENDBRANCH   3  19
TORSDOF 6
ENDMDL
