MODEL 1
REMARK VINA RESULT:      -7.8      0.000      0.000
REMARK  3 active torsions:
REMARK  status: ('A' for Active; 'I' for Inactive)
REMARK    1  A    between atoms: C_2  and  N_3 
REMARK       I    between atoms: N_3  and  C_4 
REMARK    2  A    between atoms: C_4  and  C_5 
REMARK    3  A    between atoms: C_5  and  C_6 
ROOT
HETATM    1  C   UNL     1      39.899 -13.657   2.625  1.00  0.00     0.286 C 
HETATM    2  N   UNL     1      40.507 -12.775   1.526  1.00  0.00    -0.056 N 
HETATM    3  H   UNL     1      40.466 -11.783   1.815  1.00  0.00     0.278 HD
HETATM    4  H   UNL     1      41.514 -12.979   1.447  1.00  0.00     0.278 HD
HETATM    5  C   UNL     1      39.816 -13.006   0.215  1.00  0.00     0.209 C 
HETATM    6  C   UNL     1      40.062 -14.476  -0.188  1.00  0.00     0.115 C 
HETATM    7  N   UNL     1      39.631 -15.399   0.859  1.00  0.00    -0.353 N 
HETATM    8  C   UNL     1      39.811 -15.143   2.204  1.00  0.00     0.249 C 
HETATM    9  O   UNL     1      39.804 -16.063   3.013  1.00  0.00    -0.271 OA
HETATM   10  C   UNL     1      40.332 -12.036  -0.836  1.00  0.00     0.035 C 
HETATM   11  C   UNL     1      39.661 -12.327  -2.178  1.00  0.00     0.002 C 
HETATM   12  C   UNL     1      39.852 -13.782  -2.607  1.00  0.00     0.002 C 
HETATM   13  C   UNL     1      39.401 -14.776  -1.533  1.00  0.00     0.027 C 
HETATM   14  H   UNL     1      39.619 -16.397   0.647  1.00  0.00     0.163 HD
ENDROOT
BRANCH   1  15
HETATM   15  C   UNL     1      40.694 -13.491   3.914  1.00  0.00     0.146 C 
BRANCH  15  16
HETATM   16  C   UNL     1      42.093 -13.103   3.539  1.00  0.00     0.224 C 
HETATM   17  N   UNL     1      43.111 -13.972   3.341  1.00  0.00    -0.327 N 
HETATM   18  H   UNL     1      43.994 -13.473   3.253  1.00  0.00     0.169 HD
HETATM   19  O   UNL     1      42.383 -11.902   3.643  1.00  0.00    -0.273 OA
BRANCH  17  20
HETATM   20  C   UNL     1      43.229 -15.373   3.321  1.00  0.00     0.034 A 
HETATM   21  C   UNL     1      43.334 -16.201   4.438  1.00  0.00     0.031 A 
HETATM   22  C   UNL     1      43.475 -17.588   4.282  1.00  0.00     0.026 A 
HETATM   23  C   UNL     1      43.502 -18.154   3.011  1.00  0.00     0.034 A 
HETATM   24  C   UNL     1      43.367 -17.347   1.891  1.00  0.00     0.026 A 
HETATM   25 CL   UNL     1      43.689 -19.852   2.831  1.00  0.00    -0.084 Cl
HETATM   26  C   UNL     1      43.218 -15.965   2.048  1.00  0.00     0.031 A 
ENDBRANCH  17  20
ENDBRANCH  15  16
ENDBRANCH   1  15
TORSDOF 3
ENDMDL
MODEL 2
REMARK VINA RESULT:      -7.7      2.414      3.587
REMARK  3 active torsions:
REMARK  status: ('A' for Active; 'I' for Inactive)
REMARK    1  A    between atoms: C_2  and  N_3 
REMARK       I    between atoms: N_3  and  C_4 
REMARK    2  A    between atoms: C_4  and  C_5 
REMARK    3  A    between atoms: C_5  and  C_6 
ROOT
HETATM    1  C   UNL     1      41.139 -14.941   5.183  1.00  0.00     0.286 C 
HETATM    2  N   UNL     1      40.934 -15.550   3.789  1.00  0.00    -0.056 N 
HETATM    3  H   UNL     1      41.693 -16.224   3.590  1.00  0.00     0.278 HD
HETATM    4  H   UNL     1      40.076 -16.121   3.792  1.00  0.00     0.278 HD
HETATM    5  C   UNL     1      40.852 -14.476   2.746  1.00  0.00     0.209 C 
HETATM    6  C   UNL     1      39.606 -13.618   3.058  1.00  0.00     0.115 C 
HETATM    7  N   UNL     1      39.645 -13.093   4.421  1.00  0.00    -0.353 N 
HETATM    8  C   UNL     1      40.111 -13.827   5.494  1.00  0.00     0.249 C 
HETATM    9  O   UNL     1      39.780 -13.530   6.635  1.00  0.00    -0.271 OA
HETATM   10  C   UNL     1      40.782 -15.089   1.356  1.00  0.00     0.035 C 
HETATM   11  C   UNL     1      40.638 -13.981   0.312  1.00  0.00     0.002 C 
HETATM   12  C   UNL     1      39.432 -13.085   0.596  1.00  0.00     0.002 C 
HETATM   13  C   UNL     1      39.448 -12.512   2.016  1.00  0.00     0.027 C 
HETATM   14  H   UNL     1      38.944 -12.403   4.692  1.00  0.00     0.163 HD
ENDROOT
BRANCH   1  15
HETATM   15  C   UNL     1      41.101 -16.043   6.234  1.00  0.00     0.146 C 
BRANCH  15  16
HETATM   16  C   UNL     1      42.476 -16.161   6.819  1.00  0.00     0.224 C 
HETATM   17  N   UNL     1      43.467 -16.936   6.320  1.00  0.00    -0.327 N 
HETATM   18  H   UNL     1      44.250 -16.976   6.969  1.00  0.00     0.169 HD
HETATM   19  O   UNL     1      42.637 -15.696   7.957  1.00  0.00    -0.273 OA
BRANCH  17  20
HETATM   20  C   UNL     1      43.612 -17.746   5.180  1.00  0.00     0.034 A 
HETATM   21  C   UNL     1      43.581 -17.309   3.856  1.00  0.00     0.031 A 
HETATM   22  C   UNL     1      43.710 -18.227   2.803  1.00  0.00     0.026 A 
HETATM   23  C   UNL     1      43.881 -19.582   3.067  1.00  0.00     0.034 A 
HETATM   24  C   UNL     1      43.945 -20.029   4.380  1.00  0.00     0.026 A 
HETATM   25 CL   UNL     1      44.024 -20.699   1.771  1.00  0.00    -0.084 Cl
HETATM   26  C   UNL     1      43.824 -19.112   5.429  1.00  0.00     0.031 A 
ENDBRANCH  17  20
ENDBRANCH  15  16
ENDBRANCH   1  15
TORSDOF 3
ENDMDL
MODEL 3
REMARK VINA RESULT:      -7.7      2.805      6.389
REMARK  3 active torsions:
REMARK  status: ('A' for Active; 'I' for Inactive)
REMARK    1  A    between atoms: C_2  and  N_3 
REMARK       I    between atoms: N_3  and  C_4 
REMARK    2  A    between atoms: C_4  and  C_5 
REMARK    3  A    between atoms: C_5  and  C_6 
ROOT
HETATM    1  C   UNL     1      43.468 -15.766   4.303  1.00  0.00     0.286 C 
HETATM    2  N   UNL     1      43.050 -16.970   5.159  1.00  0.00    -0.056 N 
HETATM    3  H   UNL     1      43.192 -16.749   6.160  1.00  0.00     0.278 HD
HETATM    4  H   UNL     1      42.034 -17.113   5.068  1.00  0.00     0.278 HD
HETATM    5  C   UNL     1      43.798 -18.202   4.745  1.00  0.00     0.209 C 
HETATM    6  C   UNL     1      43.403 -18.518   3.287  1.00  0.00     0.115 C 
HETATM    7  N   UNL     1      43.644 -17.377   2.406  1.00  0.00    -0.353 N 
HETATM    8  C   UNL     1      43.404 -16.072   2.788  1.00  0.00     0.249 C 
HETATM    9  O   UNL     1      43.241 -15.202   1.941  1.00  0.00    -0.271 OA
HETATM   10  C   UNL     1      43.478 -19.357   5.681  1.00  0.00     0.035 C 
HETATM   11  C   UNL     1      44.202 -20.618   5.208  1.00  0.00     0.002 C 
HETATM   12  C   UNL     1      43.865 -20.956   3.755  1.00  0.00     0.002 C 
HETATM   13  C   UNL     1      44.115 -19.782   2.805  1.00  0.00     0.027 C 
HETATM   14  H   UNL     1      43.550 -17.516   1.400  1.00  0.00     0.163 HD
ENDROOT
BRANCH   1  15
HETATM   15  C   UNL     1      42.611 -14.559   4.663  1.00  0.00     0.146 C 
BRANCH  15  16
HETATM   16  C   UNL     1      41.215 -15.049   4.910  1.00  0.00     0.224 C 
HETATM   17  N   UNL     1      40.208 -15.003   4.007  1.00  0.00    -0.327 N 
HETATM   18  H   UNL     1      39.323 -15.243   4.449  1.00  0.00     0.169 HD
HETATM   19  O   UNL     1      40.914 -15.298   6.086  1.00  0.00    -0.273 OA
BRANCH  17  20
HETATM   20  C   UNL     1      40.102 -14.622   2.658  1.00  0.00     0.034 A 
HETATM   21  C   UNL     1      40.139 -13.316   2.172  1.00  0.00     0.031 A 
HETATM   22  C   UNL     1      39.992 -13.066   0.800  1.00  0.00     0.026 A 
HETATM   23  C   UNL     1      39.819 -14.119  -0.093  1.00  0.00     0.034 A 
HETATM   24  C   UNL     1      39.812 -15.426   0.372  1.00  0.00     0.026 A 
HETATM   25 CL   UNL     1      39.627 -13.801  -1.770  1.00  0.00    -0.084 Cl
HETATM   26  C   UNL     1      39.966 -15.675   1.739  1.00  0.00     0.031 A 
ENDBRANCH  17  20
ENDBRANCH  15  16
ENDBRANCH   1  15
TORSDOF 3
ENDMDL
MODEL 4
REMARK VINA RESULT:      -7.5      4.517      6.703
REMARK  3 active torsions:
REMARK  status: ('A' for Active; 'I' for Inactive)
REMARK    1  A    between atoms: C_2  and  N_3 
REMARK       I    between atoms: N_3  and  C_4 
REMARK    2  A    between atoms: C_4  and  C_5 
REMARK    3  A    between atoms: C_5  and  C_6 
ROOT
HETATM    1  C   UNL     1      41.961 -14.554   4.962  1.00  0.00     0.286 C 
HETATM    2  N   UNL     1      42.304 -15.108   3.572  1.00  0.00    -0.056 N 
HETATM    3  H   UNL     1      41.544 -14.878   2.909  1.00  0.00     0.278 HD
HETATM    4  H   UNL     1      43.127 -14.610   3.203  1.00  0.00     0.278 HD
HETATM    5  C   UNL     1      42.563 -16.584   3.637  1.00  0.00     0.209 C 
HETATM    6  C   UNL     1      43.801 -16.800   4.535  1.00  0.00     0.115 C 
HETATM    7  N   UNL     1      43.622 -16.190   5.850  1.00  0.00    -0.353 N 
HETATM    8  C   UNL     1      42.995 -14.973   6.033  1.00  0.00     0.249 C 
HETATM    9  O   UNL     1      43.198 -14.321   7.050  1.00  0.00    -0.271 OA
HETATM   10  C   UNL     1      42.772 -17.149   2.241  1.00  0.00     0.035 C 
HETATM   11  C   UNL     1      43.094 -18.640   2.332  1.00  0.00     0.002 C 
HETATM   12  C   UNL     1      44.298 -18.908   3.237  1.00  0.00     0.002 C 
HETATM   13  C   UNL     1      44.137 -18.287   4.627  1.00  0.00     0.027 C 
HETATM   14  H   UNL     1      44.316 -16.386   6.571  1.00  0.00     0.163 HD
ENDROOT
BRANCH   1  15
HETATM   15  C   UNL     1      41.818 -13.039   4.888  1.00  0.00     0.146 C 
BRANCH  15  16
HETATM   16  C   UNL     1      43.023 -12.503   4.173  1.00  0.00     0.224 C 
HETATM   17  N   UNL     1      43.971 -11.717   4.735  1.00  0.00    -0.327 N 
HETATM   18  H   UNL     1      44.599 -11.351   4.022  1.00  0.00     0.169 HD
HETATM   19  O   UNL     1      43.024 -12.600   2.938  1.00  0.00    -0.273 OA
BRANCH  17  20
HETATM   20  C   UNL     1      44.219 -11.236   6.033  1.00  0.00     0.034 A 
HETATM   21  C   UNL     1      43.266 -10.721   6.910  1.00  0.00     0.031 A 
HETATM   22  C   UNL     1      43.647 -10.245   8.173  1.00  0.00     0.026 A 
HETATM   23  C   UNL     1      44.981 -10.291   8.569  1.00  0.00     0.034 A 
HETATM   24  C   UNL     1      45.937 -10.829   7.719  1.00  0.00     0.026 A 
HETATM   25 CL   UNL     1      45.440  -9.693  10.112  1.00  0.00    -0.084 Cl
HETATM   26  C   UNL     1      45.553 -11.311   6.463  1.00  0.00     0.031 A 
ENDBRANCH  17  20
ENDBRANCH  15  16
ENDBRANCH   1  15
TORSDOF 3
ENDMDL
MODEL 5
REMARK VINA RESULT:      -7.5      2.792      6.136
REMARK  3 active torsions:
REMARK  status: ('A' for Active; 'I' for Inactive)
REMARK    1  A    between atoms: C_2  and  N_3 
REMARK       I    between atoms: N_3  and  C_4 
REMARK    2  A    between atoms: C_4  and  C_5 
REMARK    3  A    between atoms: C_5  and  C_6 
ROOT
HETATM    1  C   UNL     1      41.805 -15.451   5.228  1.00  0.00     0.286 C 
HETATM    2  N   UNL     1      42.573 -15.885   3.972  1.00  0.00    -0.056 N 
HETATM    3  H   UNL     1      42.069 -15.561   3.128  1.00  0.00     0.278 HD
HETATM    4  H   UNL     1      43.476 -15.389   3.939  1.00  0.00     0.278 HD
HETATM    5  C   UNL     1      42.783 -17.370   3.963  1.00  0.00     0.209 C 
HETATM    6  C   UNL     1      43.662 -17.722   5.182  1.00  0.00     0.115 C 
HETATM    7  N   UNL     1      43.074 -17.233   6.427  1.00  0.00    -0.353 N 
HETATM    8  C   UNL     1      42.433 -16.013   6.525  1.00  0.00     0.249 C 
HETATM    9  O   UNL     1      42.304 -15.470   7.615  1.00  0.00    -0.271 OA
HETATM   10  C   UNL     1      43.426 -17.808   2.656  1.00  0.00     0.035 C 
HETATM   11  C   UNL     1      43.687 -19.313   2.691  1.00  0.00     0.002 C 
HETATM   12  C   UNL     1      44.531 -19.717   3.901  1.00  0.00     0.002 C 
HETATM   13  C   UNL     1      43.936 -19.225   5.223  1.00  0.00     0.027 C 
HETATM   14  H   UNL     1      43.496 -17.526   7.308  1.00  0.00     0.163 HD
ENDROOT
BRANCH   1  15
HETATM   15  C   UNL     1      41.708 -13.931   5.270  1.00  0.00     0.146 C 
BRANCH  15  16
HETATM   16  C   UNL     1      40.253 -13.568   5.297  1.00  0.00     0.224 C 
HETATM   17  N   UNL     1      39.462 -13.460   4.204  1.00  0.00    -0.327 N 
HETATM   18  H   UNL     1      38.564 -13.052   4.454  1.00  0.00     0.169 HD
HETATM   19  O   UNL     1      39.813 -13.119   6.365  1.00  0.00    -0.273 OA
BRANCH  17  20
HETATM   20  C   UNL     1      39.634 -13.695   2.829  1.00  0.00     0.034 A 
HETATM   21  C   UNL     1      39.805 -14.940   2.227  1.00  0.00     0.031 A 
HETATM   22  C   UNL     1      39.996 -15.038   0.841  1.00  0.00     0.026 A 
HETATM   23  C   UNL     1      40.006 -13.893   0.049  1.00  0.00     0.034 A 
HETATM   24  C   UNL     1      39.805 -12.649   0.630  1.00  0.00     0.026 A 
HETATM   25 CL   UNL     1      40.254 -14.022  -1.646  1.00  0.00    -0.084 Cl
HETATM   26  C   UNL     1      39.607 -12.554   2.011  1.00  0.00     0.031 A 
ENDBRANCH  17  20
ENDBRANCH  15  16
ENDBRANCH   1  15
TORSDOF 3
ENDMDL
MODEL 6
REMARK VINA RESULT:      -7.3      2.949      4.365
REMARK  3 active torsions:
REMARK  status: ('A' for Active; 'I' for Inactive)
REMARK    1  A    between atoms: C_2  and  N_3 
REMARK       I    between atoms: N_3  and  C_4 
REMARK    2  A    between atoms: C_4  and  C_5 
REMARK    3  A    between atoms: C_5  and  C_6 
ROOT
HETATM    1  C   UNL     1      40.637 -14.455   3.673  1.00  0.00     0.286 C 
HETATM    2  N   UNL     1      39.628 -13.394   3.213  1.00  0.00    -0.056 N 
HETATM    3  H   UNL     1      39.776 -13.187   2.210  1.00  0.00     0.278 HD
HETATM    4  H   UNL     1      38.677 -13.790   3.256  1.00  0.00     0.278 HD
HETATM    5  C   UNL     1      39.728 -12.161   4.060  1.00  0.00     0.209 C 
HETATM    6  C   UNL     1      39.350 -12.557   5.504  1.00  0.00     0.115 C 
HETATM    7  N   UNL     1      40.177 -13.658   5.992  1.00  0.00    -0.353 N 
HETATM    8  C   UNL     1      40.558 -14.720   5.195  1.00  0.00     0.249 C 
HETATM    9  O   UNL     1      40.901 -15.780   5.703  1.00  0.00    -0.271 OA
HETATM   10  C   UNL     1      38.821 -11.068   3.517  1.00  0.00     0.035 C 
HETATM   11  C   UNL     1      38.891  -9.842   4.428  1.00  0.00     0.002 C 
HETATM   12  C   UNL     1      38.553 -10.191   5.879  1.00  0.00     0.002 C 
HETATM   13  C   UNL     1      39.409 -11.337   6.422  1.00  0.00     0.027 C 
HETATM   14  H   UNL     1      40.110 -13.911   6.978  1.00  0.00     0.163 HD
ENDROOT
BRANCH   1  15
HETATM   15  C   UNL     1      40.435 -15.736   2.874  1.00  0.00     0.146 C 
BRANCH  15  16
HETATM   16  C   UNL     1      41.487 -15.779   1.807  1.00  0.00     0.224 C 
HETATM   17  N   UNL     1      42.605 -16.542   1.852  1.00  0.00    -0.327 N 
HETATM   18  H   UNL     1      43.240 -16.286   1.099  1.00  0.00     0.169 HD
HETATM   19  O   UNL     1      41.440 -14.890   0.945  1.00  0.00    -0.273 OA
BRANCH  17  20
HETATM   20  C   UNL     1      43.106 -17.516   2.733  1.00  0.00     0.034 A 
HETATM   21  C   UNL     1      43.543 -17.291   4.038  1.00  0.00     0.031 A 
HETATM   22  C   UNL     1      44.050 -18.348   4.808  1.00  0.00     0.026 A 
HETATM   23  C   UNL     1      44.113 -19.635   4.283  1.00  0.00     0.034 A 
HETATM   24  C   UNL     1      43.651 -19.881   2.997  1.00  0.00     0.026 A 
HETATM   25 CL   UNL     1      44.747 -20.920   5.229  1.00  0.00    -0.084 Cl
HETATM   26  C   UNL     1      43.139 -18.827   2.233  1.00  0.00     0.031 A 
ENDBRANCH  17  20
ENDBRANCH  15  16
ENDBRANCH   1  15
TORSDOF 3
ENDMDL
MODEL 7
REMARK VINA RESULT:      -7.2      2.592      6.181
REMARK  3 active torsions:
REMARK  status: ('A' for Active; 'I' for Inactive)
REMARK    1  A    between atoms: C_2  and  N_3 
REMARK       I    between atoms: N_3  and  C_4 
REMARK    2  A    between atoms: C_4  and  C_5 
REMARK    3  A    between atoms: C_5  and  C_6 
ROOT
HETATM    1  C   UNL     1      42.314 -13.200   4.841  1.00  0.00     0.286 C 
HETATM    2  N   UNL     1      41.806 -14.309   5.772  1.00  0.00    -0.056 N 
HETATM    3  H   UNL     1      41.561 -13.904   6.692  1.00  0.00     0.278 HD
HETATM    4  H   UNL     1      40.915 -14.676   5.407  1.00  0.00     0.278 HD
HETATM    5  C   UNL     1      42.821 -15.406   5.896  1.00  0.00     0.209 C 
HETATM    6  C   UNL     1      43.002 -16.032   4.495  1.00  0.00     0.115 C 
HETATM    7  N   UNL     1      43.364 -15.024   3.501  1.00  0.00    -0.353 N 
HETATM    8  C   UNL     1      42.820 -13.754   3.488  1.00  0.00     0.249 C 
HETATM    9  O   UNL     1      42.835 -13.087   2.461  1.00  0.00    -0.271 OA
HETATM   10  C   UNL     1      42.369 -16.435   6.921  1.00  0.00     0.035 C 
HETATM   11  C   UNL     1      43.385 -17.575   6.988  1.00  0.00     0.002 C 
HETATM   12  C   UNL     1      43.622 -18.208   5.615  1.00  0.00     0.002 C 
HETATM   13  C   UNL     1      44.011 -17.178   4.552  1.00  0.00     0.027 C 
HETATM   14  H   UNL     1      43.642 -15.341   2.573  1.00  0.00     0.163 HD
ENDROOT
BRANCH   1  15
HETATM   15  C   UNL     1      41.221 -12.158   4.640  1.00  0.00     0.146 C 
BRANCH  15  16
HETATM   16  C   UNL     1      39.899 -12.860   4.739  1.00  0.00     0.224 C 
HETATM   17  N   UNL     1      39.197 -13.340   3.685  1.00  0.00    -0.327 N 
HETATM   18  H   UNL     1      38.267 -13.630   3.980  1.00  0.00     0.169 HD
HETATM   19  O   UNL     1      39.314 -12.791   5.829  1.00  0.00    -0.273 OA
BRANCH  17  20
HETATM   20  C   UNL     1      39.427 -13.437   2.302  1.00  0.00     0.034 A 
HETATM   21  C   UNL     1      39.322 -12.398   1.379  1.00  0.00     0.031 A 
HETATM   22  C   UNL     1      39.551 -12.633   0.016  1.00  0.00     0.026 A 
HETATM   23  C   UNL     1      39.897 -13.904  -0.430  1.00  0.00     0.034 A 
HETATM   24  C   UNL     1      40.037 -14.943   0.480  1.00  0.00     0.026 A 
HETATM   25 CL   UNL     1      40.163 -14.185  -2.104  1.00  0.00    -0.084 Cl
HETATM   26  C   UNL     1      39.816 -14.705   1.840  1.00  0.00     0.031 A 
ENDBRANCH  17  20
ENDBRANCH  15  16
ENDBRANCH   1  15
TORSDOF 3
ENDMDL
MODEL 8
REMARK VINA RESULT:      -7.1      3.407      6.187
REMARK  3 active torsions:
REMARK  status: ('A' for Active; 'I' for Inactive)
REMARK    1  A    between atoms: C_2  and  N_3 
REMARK       I    between atoms: N_3  and  C_4 
REMARK    2  A    between atoms: C_4  and  C_5 
REMARK    3  A    between atoms: C_5  and  C_6 
ROOT
HETATM    1  C   UNL     1      41.630 -11.312   4.667  1.00  0.00     0.286 C 
HETATM    2  N   UNL     1      41.759 -11.159   6.188  1.00  0.00    -0.056 N 
HETATM    3  H   UNL     1      40.986 -10.570   6.544  1.00  0.00     0.278 HD
HETATM    4  H   UNL     1      41.610 -12.075   6.635  1.00  0.00     0.278 HD
HETATM    5  C   UNL     1      43.101 -10.601   6.556  1.00  0.00     0.209 C 
HETATM    6  C   UNL     1      44.168 -11.624   6.107  1.00  0.00     0.115 C 
HETATM    7  N   UNL     1      44.045 -11.938   4.685  1.00  0.00    -0.353 N 
HETATM    8  C   UNL     1      42.827 -12.075   4.050  1.00  0.00     0.249 C 
HETATM    9  O   UNL     1      42.745 -12.700   3.001  1.00  0.00    -0.271 OA
HETATM   10  C   UNL     1      43.173 -10.328   8.050  1.00  0.00     0.035 C 
HETATM   11  C   UNL     1      44.567  -9.818   8.413  1.00  0.00     0.002 C 
HETATM   12  C   UNL     1      45.663 -10.786   7.962  1.00  0.00     0.002 C 
HETATM   13  C   UNL     1      45.566 -11.129   6.473  1.00  0.00     0.027 C 
HETATM   14  H   UNL     1      44.781 -12.495   4.250  1.00  0.00     0.163 HD
ENDROOT
BRANCH   1  15
HETATM   15  C   UNL     1      40.307 -11.988   4.329  1.00  0.00     0.146 C 
BRANCH  15  16
HETATM   16  C   UNL     1      39.961 -12.904   5.465  1.00  0.00     0.224 C 
HETATM   17  N   UNL     1      40.220 -14.232   5.495  1.00  0.00    -0.327 N 
HETATM   18  H   UNL     1      39.756 -14.667   6.290  1.00  0.00     0.169 HD
HETATM   19  O   UNL     1      39.189 -12.455   6.325  1.00  0.00    -0.273 OA
BRANCH  17  20
HETATM   20  C   UNL     1      40.891 -15.131   4.648  1.00  0.00     0.034 A 
HETATM   21  C   UNL     1      40.462 -15.541   3.386  1.00  0.00     0.031 A 
HETATM   22  C   UNL     1      41.212 -16.469   2.649  1.00  0.00     0.026 A 
HETATM   23  C   UNL     1      42.397 -16.984   3.164  1.00  0.00     0.034 A 
HETATM   24  C   UNL     1      42.854 -16.562   4.405  1.00  0.00     0.026 A 
HETATM   25 CL   UNL     1      43.302 -18.130   2.260  1.00  0.00    -0.084 Cl
HETATM   26  C   UNL     1      42.109 -15.630   5.136  1.00  0.00     0.031 A 
ENDBRANCH  17  20
ENDBRANCH  15  16
ENDBRANCH   1  15
TORSDOF 3
ENDMDL
MODEL 9
REMARK VINA RESULT:      -7.1      1.803      2.915
REMARK  3 active torsions:
REMARK  status: ('A' for Active; 'I' for Inactive)
REMARK    1  A    between atoms: C_2  and  N_3 
REMARK       I    between atoms: N_3  and  C_4 
REMARK    2  A    between atoms: C_4  and  C_5 
REMARK    3  A    between atoms: C_5  and  C_6 
ROOT
HETATM    1  C   UNL     1      40.909 -12.889   0.770  1.00  0.00     0.286 C 
HETATM    2  N   UNL     1      40.156 -14.122   0.253  1.00  0.00    -0.056 N 
HETATM    3  H   UNL     1      40.759 -14.958   0.340  1.00  0.00     0.278 HD
HETATM    4  H   UNL     1      39.357 -14.315   0.873  1.00  0.00     0.278 HD
HETATM    5  C   UNL     1      39.694 -13.911  -1.158  1.00  0.00     0.209 C 
HETATM    6  C   UNL     1      38.693 -12.734  -1.148  1.00  0.00     0.115 C 
HETATM    7  N   UNL     1      39.280 -11.537  -0.550  1.00  0.00    -0.353 N 
HETATM    8  C   UNL     1      40.114 -11.580   0.550  1.00  0.00     0.249 C 
HETATM    9  O   UNL     1      40.268 -10.585   1.247  1.00  0.00    -0.271 OA
HETATM   10  C   UNL     1      39.067 -15.182  -1.708  1.00  0.00     0.035 C 
HETATM   11  C   UNL     1      38.547 -14.929  -3.123  1.00  0.00     0.002 C 
HETATM   12  C   UNL     1      37.573 -13.751  -3.170  1.00  0.00     0.002 C 
HETATM   13  C   UNL     1      38.162 -12.477  -2.557  1.00  0.00     0.027 C 
HETATM   14  H   UNL     1      38.759 -10.662  -0.614  1.00  0.00     0.163 HD
ENDROOT
BRANCH   1  15
HETATM   15  C   UNL     1      41.264 -13.083   2.239  1.00  0.00     0.146 C 
BRANCH  15  16
HETATM   16  C   UNL     1      40.156 -13.869   2.874  1.00  0.00     0.224 C 
HETATM   17  N   UNL     1      40.269 -15.139   3.329  1.00  0.00    -0.327 N 
HETATM   18  H   UNL     1      39.354 -15.513   3.570  1.00  0.00     0.169 HD
HETATM   19  O   UNL     1      39.013 -13.404   2.766  1.00  0.00    -0.273 OA
BRANCH  17  20
HETATM   20  C   UNL     1      41.327 -16.058   3.451  1.00  0.00     0.034 A 
HETATM   21  C   UNL     1      41.872 -16.819   2.419  1.00  0.00     0.031 A 
HETATM   22  C   UNL     1      42.911 -17.725   2.679  1.00  0.00     0.026 A 
HETATM   23  C   UNL     1      43.416 -17.867   3.968  1.00  0.00     0.034 A 
HETATM   24  C   UNL     1      42.904 -17.092   5.000  1.00  0.00     0.026 A 
HETATM   25 CL   UNL     1      44.678 -18.989   4.279  1.00  0.00    -0.084 Cl
HETATM   26  C   UNL     1      41.874 -16.184   4.738  1.00  0.00     0.031 A 
ENDBRANCH  17  20
ENDBRANCH  15  16
ENDBRANCH   1  15
TORSDOF 3
ENDMDL
MODEL 10
REMARK VINA RESULT:      -7.1      2.718      6.150
REMARK  3 active torsions:
REMARK  status: ('A' for Active; 'I' for Inactive)
REMARK    1  A    between atoms: C_2  and  N_3 
REMARK       I    between atoms: N_3  and  C_4 
REMARK    2  A    between atoms: C_4  and  C_5 
REMARK    3  A    between atoms: C_5  and  C_6 
ROOT
HETATM    1  C   UNL     1      40.751 -14.987   3.915  1.00  0.00     0.286 C 
HETATM    2  N   UNL     1      41.729 -15.574   2.888  1.00  0.00    -0.056 N 
HETATM    3  H   UNL     1      41.265 -15.640   1.965  1.00  0.00     0.278 HD
HETATM    4  H   UNL     1      42.503 -14.911   2.740  1.00  0.00     0.278 HD
HETATM    5  C   UNL     1      42.249 -16.903   3.348  1.00  0.00     0.209 C 
HETATM    6  C   UNL     1      43.043 -16.666   4.651  1.00  0.00     0.115 C 
HETATM    7  N   UNL     1      42.229 -15.988   5.658  1.00  0.00    -0.353 N 
HETATM    8  C   UNL     1      41.337 -14.981   5.347  1.00  0.00     0.249 C 
HETATM    9  O   UNL     1      40.975 -14.189   6.209  1.00  0.00    -0.271 OA
HETATM   10  C   UNL     1      43.112 -17.539   2.268  1.00  0.00     0.035 C 
HETATM   11  C   UNL     1      43.682 -18.862   2.779  1.00  0.00     0.002 C 
HETATM   12  C   UNL     1      44.453 -18.683   4.087  1.00  0.00     0.002 C 
HETATM   13  C   UNL     1      43.624 -17.982   5.167  1.00  0.00     0.027 C 
HETATM   14  H   UNL     1      42.604 -15.903   6.603  1.00  0.00     0.163 HD
ENDROOT
BRANCH   1  15
HETATM   15  C   UNL     1      40.330 -13.589   3.480  1.00  0.00     0.146 C 
BRANCH  15  16
HETATM   16  C   UNL     1      41.463 -12.994   2.699  1.00  0.00     0.224 C 
HETATM   17  N   UNL     1      41.447 -12.763   1.365  1.00  0.00    -0.327 N 
HETATM   18  H   UNL     1      42.376 -12.506   1.038  1.00  0.00     0.169 HD
HETATM   19  O   UNL     1      42.559 -12.925   3.275  1.00  0.00    -0.273 OA
BRANCH  17  20
HETATM   20  C   UNL     1      40.483 -12.884   0.350  1.00  0.00     0.034 A 
HETATM   21  C   UNL     1      39.671 -11.859  -0.134  1.00  0.00     0.031 A 
HETATM   22  C   UNL     1      38.724 -12.117  -1.135  1.00  0.00     0.026 A 
HETATM   23  C   UNL     1      38.589 -13.397  -1.664  1.00  0.00     0.034 A 
HETATM   24  C   UNL     1      39.411 -14.421  -1.215  1.00  0.00     0.026 A 
HETATM   25 CL   UNL     1      37.416 -13.706  -2.880  1.00  0.00    -0.084 Cl
HETATM   26  C   UNL     1      40.361 -14.161  -0.222  1.00  0.00     0.031 A 
ENDBRANCH  17  20
ENDBRANCH  15  16
ENDBRANCH   1  15
TORSDOF 3
ENDMDL
