MODEL 1
REMARK VINA RESULT:      -9.3      0.000      0.000
REMARK  3 active torsions:
REMARK  status: ('A' for Active; 'I' for Inactive)
REMARK    1  A    between atoms: N_4  and  C_5 
REMARK    2  A    between atoms: C_16  and  C_17 
REMARK       I    between atoms: C_17  and  N_18 
REMARK    3  A    between atoms: N_18  and  C_19 
ROOT
HETATM    1  C   UNL     1      42.842 -10.826   3.423  1.00  0.00     0.073 C 
HETATM    2  C   UNL     1      43.037 -11.271   4.825  1.00  0.00     0.069 A 
HETATM    3  N   UNL     1      43.444 -10.402   5.763  1.00  0.00    -0.170 NA
HETATM    4  N   UNL     1      43.474 -11.115   6.930  1.00  0.00    -0.216 N 
HETATM    5  C   UNL     1      43.222 -12.454   6.679  1.00  0.00     0.145 A 
HETATM    6  C   UNL     1      42.893 -12.567   5.348  1.00  0.00     0.087 A 
HETATM    7  N   UNL     1      43.317 -13.530   7.498  1.00  0.00    -0.349 N 
HETATM    8  C   UNL     1      43.081 -14.784   6.957  1.00  0.00     0.111 A 
HETATM    9  C   UNL     1      42.709 -15.019   5.678  1.00  0.00     0.098 A 
HETATM   10  C   UNL     1      42.555 -13.843   4.753  1.00  0.00     0.205 A 
HETATM   11  O   UNL     1      42.186 -13.970   3.589  1.00  0.00    -0.286 OA
HETATM   12  H   UNL     1      43.793 -13.513   8.399  1.00  0.00     0.167 HD
ENDROOT
BRANCH   9  13
HETATM   13  C   UNL     1      42.512 -16.441   5.253  1.00  0.00     0.261 C 
HETATM   14  N   UNL     1      43.535 -16.958   4.487  1.00  0.00    -0.323 N 
HETATM   15  H   UNL     1      44.304 -16.327   4.258  1.00  0.00     0.169 HD
HETATM   16  O   UNL     1      41.495 -17.041   5.591  1.00  0.00    -0.267 OA
BRANCH  14  17
HETATM   17  C   UNL     1      43.664 -18.268   3.980  1.00  0.00     0.035 A 
HETATM   18  C   UNL     1      43.433 -18.621   2.650  1.00  0.00     0.029 A 
HETATM   19  C   UNL     1      43.568 -19.951   2.236  1.00  0.00     0.002 A 
HETATM   20  C   UNL     1      43.938 -20.937   3.148  1.00  0.00     0.000 A 
HETATM   21  C   UNL     1      44.172 -20.595   4.476  1.00  0.00     0.002 A 
HETATM   22  C   UNL     1      44.033 -19.268   4.890  1.00  0.00     0.029 A 
ENDBRANCH  14  17
ENDBRANCH   9  13
BRANCH   4  23
HETATM   23  C   UNL     1      43.728 -10.443   8.162  1.00  0.00     0.060 A 
HETATM   24  C   UNL     1      44.970 -10.528   8.806  1.00  0.00     0.034 A 
HETATM   25  C   UNL     1      45.178  -9.855  10.014  1.00  0.00     0.044 A 
HETATM   26  C   UNL     1      44.149  -9.111  10.579  1.00  0.00     0.116 A 
HETATM   27  F   UNL     1      44.357  -8.470  11.736  1.00  0.00    -0.206 F 
HETATM   28  C   UNL     1      42.905  -9.035   9.967  1.00  0.00     0.044 A 
HETATM   29  C   UNL     1      42.689  -9.709   8.763  1.00  0.00     0.034 A 
ENDBRANCH   4  23
TORSDOF 3
ENDMDL
MODEL 2
REMARK VINA RESULT:      -8.9      3.520      8.945
REMARK  3 active torsions:
REMARK  status: ('A' for Active; 'I' for Inactive)
REMARK    1  A    between atoms: N_4  and  C_5 
REMARK    2  A    between atoms: C_16  and  C_17 
REMARK       I    between atoms: C_17  and  N_18 
REMARK    3  A    between atoms: N_18  and  C_19 
ROOT
HETATM    1  C   UNL     1      39.589 -12.658   4.018  1.00  0.00     0.073 C 
HETATM    2  C   UNL     1      40.804 -13.434   4.364  1.00  0.00     0.069 A 
HETATM    3  N   UNL     1      40.957 -14.690   3.921  1.00  0.00    -0.170 NA
HETATM    4  N   UNL     1      42.185 -15.090   4.375  1.00  0.00    -0.216 N 
HETATM    5  C   UNL     1      42.719 -14.126   5.215  1.00  0.00     0.145 A 
HETATM    6  C   UNL     1      41.875 -13.040   5.184  1.00  0.00     0.087 A 
HETATM    7  N   UNL     1      43.818 -14.170   6.007  1.00  0.00    -0.349 N 
HETATM    8  C   UNL     1      44.081 -13.078   6.819  1.00  0.00     0.111 A 
HETATM    9  C   UNL     1      43.352 -11.939   6.846  1.00  0.00     0.098 A 
HETATM   10  C   UNL     1      42.150 -11.840   5.947  1.00  0.00     0.205 A 
HETATM   11  O   UNL     1      41.458 -10.827   5.886  1.00  0.00    -0.286 OA
HETATM   12  H   UNL     1      44.311 -15.031   6.242  1.00  0.00     0.167 HD
ENDROOT
BRANCH   9  13
HETATM   13  C   UNL     1      43.767 -10.860   7.798  1.00  0.00     0.261 C 
HETATM   14  N   UNL     1      42.783 -10.461   8.677  1.00  0.00    -0.323 N 
HETATM   15  H   UNL     1      41.869 -10.905   8.580  1.00  0.00     0.169 HD
HETATM   16  O   UNL     1      44.908 -10.408   7.744  1.00  0.00    -0.267 OA
BRANCH  14  17
HETATM   17  C   UNL     1      42.879  -9.510   9.714  1.00  0.00     0.035 A 
HETATM   18  C   UNL     1      42.710  -8.136   9.537  1.00  0.00     0.029 A 
HETATM   19  C   UNL     1      42.840  -7.261  10.621  1.00  0.00     0.002 A 
HETATM   20  C   UNL     1      43.136  -7.753  11.891  1.00  0.00     0.000 A 
HETATM   21  C   UNL     1      43.305  -9.121  12.077  1.00  0.00     0.002 A 
HETATM   22  C   UNL     1      43.180  -9.995  10.995  1.00  0.00     0.029 A 
ENDBRANCH  14  17
ENDBRANCH   9  13
BRANCH   4  23
HETATM   23  C   UNL     1      42.723 -16.339   3.950  1.00  0.00     0.060 A 
HETATM   24  C   UNL     1      43.584 -17.087   4.766  1.00  0.00     0.034 A 
HETATM   25  C   UNL     1      44.092 -18.308   4.312  1.00  0.00     0.044 A 
HETATM   26  C   UNL     1      43.750 -18.774   3.048  1.00  0.00     0.116 A 
HETATM   27  F   UNL     1      44.241 -19.944   2.621  1.00  0.00    -0.206 F 
HETATM   28  C   UNL     1      42.917 -18.036   2.218  1.00  0.00     0.044 A 
HETATM   29  C   UNL     1      42.410 -16.813   2.663  1.00  0.00     0.034 A 
ENDBRANCH   4  23
TORSDOF 3
ENDMDL
MODEL 3
REMARK VINA RESULT:      -8.5      4.178      5.911
REMARK  3 active torsions:
REMARK  status: ('A' for Active; 'I' for Inactive)
REMARK    1  A    between atoms: N_4  and  C_5 
REMARK    2  A    between atoms: C_16  and  C_17 
REMARK       I    between atoms: C_17  and  N_18 
REMARK    3  A    between atoms: N_18  and  C_19 
ROOT
HETATM    1  C   UNL     1      42.635 -15.785   4.993  1.00  0.00     0.073 C 
HETATM    2  C   UNL     1      42.884 -14.323   4.959  1.00  0.00     0.069 A 
HETATM    3  N   UNL     1      43.379 -13.693   6.035  1.00  0.00    -0.170 NA
HETATM    4  N   UNL     1      43.528 -12.387   5.655  1.00  0.00    -0.216 N 
HETATM    5  C   UNL     1      42.991 -12.192   4.393  1.00  0.00     0.145 A 
HETATM    6  C   UNL     1      42.617 -13.426   3.911  1.00  0.00     0.087 A 
HETATM    7  N   UNL     1      42.771 -11.046   3.704  1.00  0.00    -0.349 N 
HETATM    8  C   UNL     1      42.135 -11.135   2.476  1.00  0.00     0.111 A 
HETATM    9  C   UNL     1      41.759 -12.290   1.879  1.00  0.00     0.098 A 
HETATM   10  C   UNL     1      42.027 -13.584   2.598  1.00  0.00     0.205 A 
HETATM   11  O   UNL     1      41.750 -14.675   2.108  1.00  0.00    -0.286 OA
HETATM   12  H   UNL     1      42.800 -10.119   4.127  1.00  0.00     0.167 HD
ENDROOT
BRANCH   9  13
HETATM   13  C   UNL     1      41.066 -12.203   0.555  1.00  0.00     0.261 C 
HETATM   14  N   UNL     1      40.169 -13.221   0.310  1.00  0.00    -0.323 N 
HETATM   15  H   UNL     1      40.083 -13.943   1.026  1.00  0.00     0.169 HD
HETATM   16  O   UNL     1      41.325 -11.277  -0.208  1.00  0.00    -0.267 OA
BRANCH  14  17
HETATM   17  C   UNL     1      39.333 -13.391  -0.814  1.00  0.00     0.035 A 
HETATM   18  C   UNL     1      38.282 -12.534  -1.146  1.00  0.00     0.029 A 
HETATM   19  C   UNL     1      37.492 -12.788  -2.272  1.00  0.00     0.002 A 
HETATM   20  C   UNL     1      37.748 -13.897  -3.077  1.00  0.00     0.000 A 
HETATM   21  C   UNL     1      38.794 -14.755  -2.754  1.00  0.00     0.002 A 
HETATM   22  C   UNL     1      39.581 -14.505  -1.627  1.00  0.00     0.029 A 
ENDBRANCH  14  17
ENDBRANCH   9  13
BRANCH   4  23
HETATM   23  C   UNL     1      44.178 -11.467   6.529  1.00  0.00     0.060 A 
HETATM   24  C   UNL     1      43.459 -10.508   7.257  1.00  0.00     0.034 A 
HETATM   25  C   UNL     1      44.134  -9.622   8.102  1.00  0.00     0.044 A 
HETATM   26  C   UNL     1      45.518  -9.688   8.213  1.00  0.00     0.116 A 
HETATM   27  F   UNL     1      46.156  -8.836   9.025  1.00  0.00    -0.206 F 
HETATM   28  C   UNL     1      46.248 -10.616   7.482  1.00  0.00     0.044 A 
HETATM   29  C   UNL     1      45.581 -11.500   6.631  1.00  0.00     0.034 A 
ENDBRANCH   4  23
TORSDOF 3
ENDMDL
MODEL 4
REMARK VINA RESULT:      -8.5      5.559      6.888
REMARK  3 active torsions:
REMARK  status: ('A' for Active; 'I' for Inactive)
REMARK    1  A    between atoms: N_4  and  C_5 
REMARK    2  A    between atoms: C_16  and  C_17 
REMARK       I    between atoms: C_17  and  N_18 
REMARK    3  A    between atoms: N_18  and  C_19 
ROOT
HETATM    1  C   UNL     1      38.720 -14.254  -2.060  1.00  0.00     0.073 C 
HETATM    2  C   UNL     1      39.583 -13.418  -1.188  1.00  0.00     0.069 A 
HETATM    3  N   UNL     1      39.882 -12.158  -1.536  1.00  0.00    -0.170 NA
HETATM    4  N   UNL     1      40.641 -11.667  -0.509  1.00  0.00    -0.216 N 
HETATM    5  C   UNL     1      40.923 -12.675   0.400  1.00  0.00     0.145 A 
HETATM    6  C   UNL     1      40.216 -13.789   0.010  1.00  0.00     0.087 A 
HETATM    7  N   UNL     1      41.764 -12.683   1.463  1.00  0.00    -0.349 N 
HETATM    8  C   UNL     1      41.918 -13.869   2.163  1.00  0.00     0.111 A 
HETATM    9  C   UNL     1      41.249 -15.016   1.904  1.00  0.00     0.098 A 
HETATM   10  C   UNL     1      40.275 -15.028   0.757  1.00  0.00     0.205 A 
HETATM   11  O   UNL     1      39.602 -16.017   0.480  1.00  0.00    -0.286 OA
HETATM   12  H   UNL     1      42.477 -11.972   1.624  1.00  0.00     0.167 HD
ENDROOT
BRANCH   9  13
HETATM   13  C   UNL     1      41.549 -16.212   2.752  1.00  0.00     0.261 C 
HETATM   14  N   UNL     1      42.587 -16.995   2.293  1.00  0.00    -0.323 N 
HETATM   15  H   UNL     1      43.028 -16.710   1.417  1.00  0.00     0.169 HD
HETATM   16  O   UNL     1      40.882 -16.425   3.761  1.00  0.00    -0.267 OA
BRANCH  14  17
HETATM   17  C   UNL     1      43.134 -18.149   2.890  1.00  0.00     0.035 A 
HETATM   18  C   UNL     1      43.741 -18.170   4.147  1.00  0.00     0.029 A 
HETATM   19  C   UNL     1      44.274 -19.358   4.657  1.00  0.00     0.002 A 
HETATM   20  C   UNL     1      44.201 -20.536   3.917  1.00  0.00     0.000 A 
HETATM   21  C   UNL     1      43.597 -20.527   2.664  1.00  0.00     0.002 A 
HETATM   22  C   UNL     1      43.069 -19.339   2.152  1.00  0.00     0.029 A 
ENDBRANCH  14  17
ENDBRANCH   9  13
BRANCH   4  23
HETATM   23  C   UNL     1      41.005 -10.290  -0.495  1.00  0.00     0.060 A 
HETATM   24  C   UNL     1      42.000  -9.781  -1.343  1.00  0.00     0.034 A 
HETATM   25  C   UNL     1      42.330  -8.423  -1.298  1.00  0.00     0.044 A 
HETATM   26  C   UNL     1      41.677  -7.581  -0.405  1.00  0.00     0.116 A 
HETATM   27  F   UNL     1      42.000  -6.282  -0.368  1.00  0.00    -0.206 F 
HETATM   28  C   UNL     1      40.707  -8.072   0.458  1.00  0.00     0.044 A 
HETATM   29  C   UNL     1      40.376  -9.428   0.423  1.00  0.00     0.034 A 
ENDBRANCH   4  23
TORSDOF 3
ENDMDL
MODEL 5
REMARK VINA RESULT:      -8.3      5.162      8.529
REMARK  3 active torsions:
REMARK  status: ('A' for Active; 'I' for Inactive)
REMARK    1  A    between atoms: N_4  and  C_5 
REMARK    2  A    between atoms: C_16  and  C_17 
REMARK       I    between atoms: C_17  and  N_18 
REMARK    3  A    between atoms: N_18  and  C_19 
ROOT
HETATM    1  C   UNL     1      42.951 -12.669   5.607  1.00  0.00     0.073 C 
HETATM    2  C   UNL     1      42.829 -13.927   4.830  1.00  0.00     0.069 A 
HETATM    3  N   UNL     1      43.399 -15.057   5.273  1.00  0.00    -0.170 NA
HETATM    4  N   UNL     1      43.059 -16.019   4.361  1.00  0.00    -0.216 N 
HETATM    5  C   UNL     1      42.401 -15.445   3.285  1.00  0.00     0.145 A 
HETATM    6  C   UNL     1      42.202 -14.117   3.587  1.00  0.00     0.087 A 
HETATM    7  N   UNL     1      42.037 -15.982   2.095  1.00  0.00    -0.349 N 
HETATM    8  C   UNL     1      41.456 -15.147   1.154  1.00  0.00     0.111 A 
HETATM    9  C   UNL     1      41.169 -13.839   1.348  1.00  0.00     0.098 A 
HETATM   10  C   UNL     1      41.522 -13.222   2.674  1.00  0.00     0.205 A 
HETATM   11  O   UNL     1      41.262 -12.052   2.941  1.00  0.00    -0.286 OA
HETATM   12  H   UNL     1      42.389 -16.873   1.747  1.00  0.00     0.167 HD
ENDROOT
BRANCH   9  13
HETATM   13  C   UNL     1      40.554 -13.078   0.215  1.00  0.00     0.261 C 
HETATM   14  N   UNL     1      39.197 -13.273   0.064  1.00  0.00    -0.323 N 
HETATM   15  H   UNL     1      38.750 -13.929   0.706  1.00  0.00     0.169 HD
HETATM   16  O   UNL     1      41.258 -12.359  -0.488  1.00  0.00    -0.267 OA
BRANCH  14  17
HETATM   17  C   UNL     1      38.332 -12.666  -0.870  1.00  0.00     0.035 A 
HETATM   18  C   UNL     1      37.885 -13.281  -2.041  1.00  0.00     0.029 A 
HETATM   19  C   UNL     1      37.041 -12.598  -2.922  1.00  0.00     0.002 A 
HETATM   20  C   UNL     1      36.632 -11.296  -2.637  1.00  0.00     0.000 A 
HETATM   21  C   UNL     1      37.070 -10.676  -1.472  1.00  0.00     0.002 A 
HETATM   22  C   UNL     1      37.917 -11.356  -0.595  1.00  0.00     0.029 A 
ENDBRANCH  14  17
ENDBRANCH   9  13
BRANCH   4  23
HETATM   23  C   UNL     1      43.386 -17.382   4.616  1.00  0.00     0.060 A 
HETATM   24  C   UNL     1      43.760 -18.257   3.586  1.00  0.00     0.034 A 
HETATM   25  C   UNL     1      44.072 -19.588   3.877  1.00  0.00     0.044 A 
HETATM   26  C   UNL     1      44.001 -20.045   5.188  1.00  0.00     0.116 A 
HETATM   27  F   UNL     1      44.301 -21.322   5.458  1.00  0.00    -0.206 F 
HETATM   28  C   UNL     1      43.610 -19.200   6.217  1.00  0.00     0.044 A 
HETATM   29  C   UNL     1      43.292 -17.870   5.933  1.00  0.00     0.034 A 
ENDBRANCH   4  23
TORSDOF 3
ENDMDL
MODEL 6
REMARK VINA RESULT:      -8.1      5.062      9.306
REMARK  3 active torsions:
REMARK  status: ('A' for Active; 'I' for Inactive)
REMARK    1  A    between atoms: N_4  and  C_5 
REMARK    2  A    between atoms: C_16  and  C_17 
REMARK       I    between atoms: C_17  and  N_18 
REMARK    3  A    between atoms: N_18  and  C_19 
ROOT
HETATM    1  C   UNL     1      41.895 -16.758   3.008  1.00  0.00     0.073 C 
HETATM    2  C   UNL     1      41.538 -15.462   2.380  1.00  0.00     0.069 A 
HETATM    3  N   UNL     1      40.792 -15.429   1.266  1.00  0.00    -0.170 NA
HETATM    4  N   UNL     1      40.613 -14.102   0.987  1.00  0.00    -0.216 N 
HETATM    5  C   UNL     1      41.370 -13.326   1.850  1.00  0.00     0.145 A 
HETATM    6  C   UNL     1      41.930 -14.173   2.778  1.00  0.00     0.087 A 
HETATM    7  N   UNL     1      41.625 -11.995   1.833  1.00  0.00    -0.349 N 
HETATM    8  C   UNL     1      42.495 -11.486   2.784  1.00  0.00     0.111 A 
HETATM    9  C   UNL     1      43.074 -12.207   3.771  1.00  0.00     0.098 A 
HETATM   10  C   UNL     1      42.778 -13.680   3.845  1.00  0.00     0.205 A 
HETATM   11  O   UNL     1      43.234 -14.397   4.731  1.00  0.00    -0.286 OA
HETATM   12  H   UNL     1      41.437 -11.394   1.031  1.00  0.00     0.167 HD
ENDROOT
BRANCH   9  13
HETATM   13  C   UNL     1      44.004 -11.499   4.707  1.00  0.00     0.261 C 
HETATM   14  N   UNL     1      43.478 -11.248   5.957  1.00  0.00    -0.323 N 
HETATM   15  H   UNL     1      42.511 -11.533   6.117  1.00  0.00     0.169 HD
HETATM   16  O   UNL     1      45.130 -11.191   4.327  1.00  0.00    -0.267 OA
BRANCH  14  17
HETATM   17  C   UNL     1      44.116 -10.647   7.062  1.00  0.00     0.035 A 
HETATM   18  C   UNL     1      45.311 -11.103   7.621  1.00  0.00     0.029 A 
HETATM   19  C   UNL     1      45.866 -10.456   8.731  1.00  0.00     0.002 A 
HETATM   20  C   UNL     1      45.233  -9.346   9.287  1.00  0.00     0.000 A 
HETATM   21  C   UNL     1      44.043  -8.883   8.735  1.00  0.00     0.002 A 
HETATM   22  C   UNL     1      43.486  -9.532   7.631  1.00  0.00     0.029 A 
ENDBRANCH  14  17
ENDBRANCH   9  13
BRANCH   4  23
HETATM   23  C   UNL     1      39.731 -13.713  -0.064  1.00  0.00     0.060 A 
HETATM   24  C   UNL     1      39.008 -12.513  -0.014  1.00  0.00     0.034 A 
HETATM   25  C   UNL     1      38.152 -12.169  -1.065  1.00  0.00     0.044 A 
HETATM   26  C   UNL     1      38.013 -13.023  -2.153  1.00  0.00     0.116 A 
HETATM   27  F   UNL     1      37.190 -12.685  -3.154  1.00  0.00    -0.206 F 
HETATM   28  C   UNL     1      38.703 -14.226  -2.208  1.00  0.00     0.044 A 
HETATM   29  C   UNL     1      39.555 -14.579  -1.160  1.00  0.00     0.034 A 
ENDBRANCH   4  23
TORSDOF 3
ENDMDL
MODEL 7
REMARK VINA RESULT:      -7.7      4.754      9.109
REMARK  3 active torsions:
REMARK  status: ('A' for Active; 'I' for Inactive)
REMARK    1  A    between atoms: N_4  and  C_5 
REMARK    2  A    between atoms: C_16  and  C_17 
REMARK       I    between atoms: C_17  and  N_18 
REMARK    3  A    between atoms: N_18  and  C_19 
ROOT
HETATM    1  C   UNL     1      41.085 -16.159   4.785  1.00  0.00     0.073 C 
HETATM    2  C   UNL     1      40.881 -14.972   3.919  1.00  0.00     0.069 A 
HETATM    3  N   UNL     1      40.508 -15.122   2.639  1.00  0.00    -0.170 NA
HETATM    4  N   UNL     1      40.366 -13.852   2.150  1.00  0.00    -0.216 N 
HETATM    5  C   UNL     1      40.791 -12.928   3.092  1.00  0.00     0.145 A 
HETATM    6  C   UNL     1      41.079 -13.620   4.245  1.00  0.00     0.087 A 
HETATM    7  N   UNL     1      40.982 -11.591   2.980  1.00  0.00    -0.349 N 
HETATM    8  C   UNL     1      41.499 -10.913   4.072  1.00  0.00     0.111 A 
HETATM    9  C   UNL     1      41.781 -11.473   5.271  1.00  0.00     0.098 A 
HETATM   10  C   UNL     1      41.539 -12.948   5.443  1.00  0.00     0.205 A 
HETATM   11  O   UNL     1      41.735 -13.524   6.509  1.00  0.00    -0.286 OA
HETATM   12  H   UNL     1      41.022 -11.099   2.088  1.00  0.00     0.167 HD
ENDROOT
BRANCH   9  13
HETATM   13  C   UNL     1      42.351 -10.595   6.341  1.00  0.00     0.261 C 
HETATM   14  N   UNL     1      43.242 -11.224   7.185  1.00  0.00    -0.323 N 
HETATM   15  H   UNL     1      43.405 -12.219   7.025  1.00  0.00     0.169 HD
HETATM   16  O   UNL     1      42.007  -9.418   6.410  1.00  0.00    -0.267 OA
BRANCH  14  17
HETATM   17  C   UNL     1      43.976 -10.660   8.249  1.00  0.00     0.035 A 
HETATM   18  C   UNL     1      43.600 -10.740   9.591  1.00  0.00     0.029 A 
HETATM   19  C   UNL     1      44.380 -10.135  10.582  1.00  0.00     0.002 A 
HETATM   20  C   UNL     1      45.544  -9.450  10.241  1.00  0.00     0.000 A 
HETATM   21  C   UNL     1      45.929  -9.367   8.906  1.00  0.00     0.002 A 
HETATM   22  C   UNL     1      45.147  -9.966   7.916  1.00  0.00     0.029 A 
ENDBRANCH  14  17
ENDBRANCH   9  13
BRANCH   4  23
HETATM   23  C   UNL     1      39.831 -13.653   0.845  1.00  0.00     0.060 A 
HETATM   24  C   UNL     1      39.995 -14.602  -0.173  1.00  0.00     0.034 A 
HETATM   25  C   UNL     1      39.455 -14.369  -1.442  1.00  0.00     0.044 A 
HETATM   26  C   UNL     1      38.764 -13.189  -1.694  1.00  0.00     0.116 A 
HETATM   27  F   UNL     1      38.251 -12.973  -2.911  1.00  0.00    -0.206 F 
HETATM   28  C   UNL     1      38.611 -12.227  -0.704  1.00  0.00     0.044 A 
HETATM   29  C   UNL     1      39.153 -12.452   0.563  1.00  0.00     0.034 A 
ENDBRANCH   4  23
TORSDOF 3
ENDMDL
MODEL 8
REMARK VINA RESULT:      -7.5      4.057      8.927
REMARK  3 active torsions:
REMARK  status: ('A' for Active; 'I' for Inactive)
REMARK    1  A    between atoms: N_4  and  C_5 
REMARK    2  A    between atoms: C_16  and  C_17 
REMARK       I    between atoms: C_17  and  N_18 
REMARK    3  A    between atoms: N_18  and  C_19 
ROOT
HETATM    1  C   UNL     1      41.139  -9.885   1.430  1.00  0.00     0.073 C 
HETATM    2  C   UNL     1      41.531 -11.016   2.306  1.00  0.00     0.069 A 
HETATM    3  N   UNL     1      41.521 -12.272   1.838  1.00  0.00    -0.170 NA
HETATM    4  N   UNL     1      41.972 -13.049   2.870  1.00  0.00    -0.216 N 
HETATM    5  C   UNL     1      42.122 -12.282   4.014  1.00  0.00     0.145 A 
HETATM    6  C   UNL     1      41.891 -10.972   3.663  1.00  0.00     0.087 A 
HETATM    7  N   UNL     1      42.381 -12.657   5.291  1.00  0.00    -0.349 N 
HETATM    8  C   UNL     1      42.398 -11.675   6.268  1.00  0.00     0.111 A 
HETATM    9  C   UNL     1      42.228 -10.352   6.042  1.00  0.00     0.098 A 
HETATM   10  C   UNL     1      41.981  -9.897   4.630  1.00  0.00     0.205 A 
HETATM   11  O   UNL     1      41.854  -8.711   4.337  1.00  0.00    -0.286 OA
HETATM   12  H   UNL     1      42.306 -13.618   5.623  1.00  0.00     0.167 HD
ENDROOT
BRANCH   9  13
HETATM   13  C   UNL     1      42.260  -9.428   7.219  1.00  0.00     0.261 C 
HETATM   14  N   UNL     1      42.419 -10.055   8.437  1.00  0.00    -0.323 N 
HETATM   15  H   UNL     1      42.469 -11.074   8.428  1.00  0.00     0.169 HD
HETATM   16  O   UNL     1      42.143  -8.217   7.045  1.00  0.00    -0.267 OA
BRANCH  14  17
HETATM   17  C   UNL     1      42.534  -9.460   9.711  1.00  0.00     0.035 A 
HETATM   18  C   UNL     1      41.463  -8.921  10.425  1.00  0.00     0.029 A 
HETATM   19  C   UNL     1      41.671  -8.334  11.677  1.00  0.00     0.002 A 
HETATM   20  C   UNL     1      42.950  -8.285  12.228  1.00  0.00     0.000 A 
HETATM   21  C   UNL     1      44.023  -8.821  11.525  1.00  0.00     0.002 A 
HETATM   22  C   UNL     1      43.817  -9.403  10.272  1.00  0.00     0.029 A 
ENDBRANCH  14  17
ENDBRANCH   9  13
BRANCH   4  23
HETATM   23  C   UNL     1      42.224 -14.435   2.654  1.00  0.00     0.060 A 
HETATM   24  C   UNL     1      43.250 -14.875   1.805  1.00  0.00     0.034 A 
HETATM   25  C   UNL     1      43.464 -16.244   1.618  1.00  0.00     0.044 A 
HETATM   26  C   UNL     1      42.653 -17.167   2.269  1.00  0.00     0.116 A 
HETATM   27  F   UNL     1      42.865 -18.476   2.084  1.00  0.00    -0.206 F 
HETATM   28  C   UNL     1      41.618 -16.749   3.095  1.00  0.00     0.044 A 
HETATM   29  C   UNL     1      41.395 -15.384   3.281  1.00  0.00     0.034 A 
ENDBRANCH   4  23
TORSDOF 3
ENDMDL
MODEL 9
REMARK VINA RESULT:      -7.4      6.507      9.841
REMARK  3 active torsions:
REMARK  status: ('A' for Active; 'I' for Inactive)
REMARK    1  A    between atoms: N_4  and  C_5 
REMARK    2  A    between atoms: C_16  and  C_17 
REMARK       I    between atoms: C_17  and  N_18 
REMARK    3  A    between atoms: N_18  and  C_19 
ROOT
HETATM    1  C   UNL     1      39.084 -11.853   3.768  1.00  0.00     0.073 C 
HETATM    2  C   UNL     1      39.813 -12.887   2.994  1.00  0.00     0.069 A 
HETATM    3  N   UNL     1      40.691 -13.698   3.602  1.00  0.00    -0.170 NA
HETATM    4  N   UNL     1      41.139 -14.547   2.627  1.00  0.00    -0.216 N 
HETATM    5  C   UNL     1      40.641 -14.161   1.393  1.00  0.00     0.145 A 
HETATM    6  C   UNL     1      39.754 -13.133   1.612  1.00  0.00     0.087 A 
HETATM    7  N   UNL     1      40.949 -14.603   0.149  1.00  0.00    -0.349 N 
HETATM    8  C   UNL     1      40.350 -13.976  -0.932  1.00  0.00     0.111 A 
HETATM    9  C   UNL     1      39.432 -12.986  -0.844  1.00  0.00     0.098 A 
HETATM   10  C   UNL     1      39.036 -12.502   0.523  1.00  0.00     0.205 A 
HETATM   11  O   UNL     1      38.184 -11.633   0.689  1.00  0.00    -0.286 OA
HETATM   12  H   UNL     1      41.768 -15.172  -0.061  1.00  0.00     0.167 HD
ENDROOT
BRANCH   9  13
HETATM   13  C   UNL     1      38.897 -12.409  -2.117  1.00  0.00     0.261 C 
HETATM   14  N   UNL     1      38.849 -11.031  -2.147  1.00  0.00    -0.323 N 
HETATM   15  H   UNL     1      39.149 -10.541  -1.303  1.00  0.00     0.169 HD
HETATM   16  O   UNL     1      38.541 -13.158  -3.023  1.00  0.00    -0.267 OA
BRANCH  14  17
HETATM   17  C   UNL     1      38.445 -10.198  -3.211  1.00  0.00     0.035 A 
HETATM   18  C   UNL     1      39.326  -9.534  -4.066  1.00  0.00     0.029 A 
HETATM   19  C   UNL     1      38.837  -8.712  -5.087  1.00  0.00     0.002 A 
HETATM   20  C   UNL     1      37.464  -8.552  -5.265  1.00  0.00     0.000 A 
HETATM   21  C   UNL     1      36.578  -9.212  -4.419  1.00  0.00     0.002 A 
HETATM   22  C   UNL     1      37.066 -10.028  -3.396  1.00  0.00     0.029 A 
ENDBRANCH  14  17
ENDBRANCH   9  13
BRANCH   4  23
HETATM   23  C   UNL     1      41.984 -15.641   2.975  1.00  0.00     0.060 A 
HETATM   24  C   UNL     1      41.953 -16.851   2.269  1.00  0.00     0.034 A 
HETATM   25  C   UNL     1      42.796 -17.902   2.643  1.00  0.00     0.044 A 
HETATM   26  C   UNL     1      43.659 -17.746   3.722  1.00  0.00     0.116 A 
HETATM   27  F   UNL     1      44.463 -18.757   4.074  1.00  0.00    -0.206 F 
HETATM   28  C   UNL     1      43.687 -16.563   4.448  1.00  0.00     0.044 A 
HETATM   29  C   UNL     1      42.843 -15.512   4.083  1.00  0.00     0.034 A 
ENDBRANCH   4  23
TORSDOF 3
ENDMDL
MODEL 10
REMARK VINA RESULT:      -7.2     17.166     19.580
REMARK  3 active torsions:
REMARK  status: ('A' for Active; 'I' for Inactive)
REMARK    1  A    between atoms: N_4  and  C_5 
REMARK    2  A    between atoms: C_16  and  C_17 
REMARK       I    between atoms: C_17  and  N_18 
REMARK    3  A    between atoms: N_18  and  C_19 
ROOT
HETATM    1  C   UNL     1      44.490 -34.507   0.698  1.00  0.00     0.073 C 
HETATM    2  C   UNL     1      44.053 -33.103   0.497  1.00  0.00     0.069 A 
HETATM    3  N   UNL     1      44.697 -32.308  -0.370  1.00  0.00    -0.170 NA
HETATM    4  N   UNL     1      44.021 -31.120  -0.346  1.00  0.00    -0.216 N 
HETATM    5  C   UNL     1      43.048 -31.143   0.640  1.00  0.00     0.145 A 
HETATM    6  C   UNL     1      43.020 -32.417   1.159  1.00  0.00     0.087 A 
HETATM    7  N   UNL     1      42.267 -30.145   1.122  1.00  0.00    -0.349 N 
HETATM    8  C   UNL     1      41.424 -30.432   2.184  1.00  0.00     0.111 A 
HETATM    9  C   UNL     1      41.276 -31.653   2.749  1.00  0.00     0.098 A 
HETATM   10  C   UNL     1      42.097 -32.792   2.210  1.00  0.00     0.205 A 
HETATM   11  O   UNL     1      41.995 -33.936   2.644  1.00  0.00    -0.286 OA
HETATM   12  H   UNL     1      42.439 -29.157   0.941  1.00  0.00     0.167 HD
ENDROOT
BRANCH   9  13
HETATM   13  C   UNL     1      40.331 -31.783   3.902  1.00  0.00     0.261 C 
HETATM   14  N   UNL     1      39.519 -32.898   3.855  1.00  0.00    -0.323 N 
HETATM   15  H   UNL     1      39.613 -33.503   3.039  1.00  0.00     0.169 HD
HETATM   16  O   UNL     1      40.325 -30.929   4.785  1.00  0.00    -0.267 OA
BRANCH  14  17
HETATM   17  C   UNL     1      38.569 -33.321   4.808  1.00  0.00     0.035 A 
HETATM   18  C   UNL     1      38.876 -33.648   6.130  1.00  0.00     0.029 A 
HETATM   19  C   UNL     1      37.871 -34.076   7.004  1.00  0.00     0.002 A 
HETATM   20  C   UNL     1      36.552 -34.176   6.566  1.00  0.00     0.000 A 
HETATM   21  C   UNL     1      36.237 -33.850   5.251  1.00  0.00     0.002 A 
HETATM   22  C   UNL     1      37.240 -33.427   4.376  1.00  0.00     0.029 A 
ENDBRANCH  14  17
ENDBRANCH   9  13
BRANCH   4  23
HETATM   23  C   UNL     1      44.363 -30.093  -1.274  1.00  0.00     0.060 A 
HETATM   24  C   UNL     1      45.015 -28.920  -0.868  1.00  0.00     0.034 A 
HETATM   25  C   UNL     1      45.333 -27.935  -1.809  1.00  0.00     0.044 A 
HETATM   26  C   UNL     1      44.992 -28.118  -3.145  1.00  0.00     0.116 A 
HETATM   27  F   UNL     1      45.300 -27.170  -4.039  1.00  0.00    -0.206 F 
HETATM   28  C   UNL     1      44.325 -29.263  -3.560  1.00  0.00     0.044 A 
HETATM   29  C   UNL     1      44.001 -30.247  -2.625  1.00  0.00     0.034 A 
ENDBRANCH   4  23
TORSDOF 3
ENDMDL
