MODEL 1
REMARK VINA RESULT:      -8.0      0.000      0.000
REMARK  6 active torsions:
REMARK  status: ('A' for Active; 'I' for Inactive)
REMARK    1  A    between atoms: C_2  and  C_3 
REMARK    2  A    between atoms: C_2  and  C_18 
REMARK       I    between atoms: C_3  and  N_4 
REMARK    3  A    between atoms: N_4  and  C_5 
REMARK    4  A    between atoms: C_9  and  C_10 
REMARK    5  A    between atoms: C_18  and  C_19 
REMARK    6  A    between atoms: C_22  and  O_23 
ROOT
HETATM    1  C   UNL     1      42.645 -14.254   2.089  1.00  0.00     0.227 C 
HETATM    2  N   UNL     1      42.172 -13.551   3.188  1.00  0.00    -0.312 N 
HETATM    3  O   UNL     1      43.831 -14.323   1.772  1.00  0.00    -0.273 OA
HETATM    4  H   UNL     1      41.180 -13.545   3.395  1.00  0.00     0.170 HD
ENDROOT
BRANCH   2   5
HETATM    5  C   UNL     1      43.002 -12.777   3.971  1.00  0.00     0.126 A 
HETATM    6  N   UNL     1      43.915 -11.880   3.487  1.00  0.00    -0.262 N 
HETATM    7  H   UNL     1      44.108 -11.682   2.508  1.00  0.00     0.191 HD
HETATM    8  N   UNL     1      44.572 -11.210   4.448  1.00  0.00    -0.172 NA
HETATM    9  C   UNL     1      44.079 -11.695   5.601  1.00  0.00     0.092 A 
HETATM   10  C   UNL     1      43.100 -12.697   5.338  1.00  0.00     0.084 A 
BRANCH   9  11
HETATM   11  C   UNL     1      44.530 -11.187   6.897  1.00  0.00     0.012 A 
HETATM   12  C   UNL     1      43.807 -11.407   8.067  1.00  0.00     0.130 A 
HETATM   13  N   UNL     1      44.162 -10.943   9.294  1.00  0.00    -0.272 NA
HETATM   14  C   UNL     1      45.301 -10.222   9.360  1.00  0.00     0.116 A 
HETATM   15  C   UNL     1      46.099  -9.948   8.263  1.00  0.00     0.020 A 
HETATM   16  C   UNL     1      45.706 -10.439   7.018  1.00  0.00     0.017 A 
ENDBRANCH   9  11
ENDBRANCH   2   5
BRANCH   1  17
HETATM   17  C   UNL     1      41.532 -14.947   1.309  1.00  0.00     0.078 C 
HETATM   18  C   UNL     1      40.520 -13.904   0.828  1.00  0.00     0.020 C 
BRANCH  17  19
HETATM   19  C   UNL     1      40.872 -16.039   2.169  1.00  0.00     0.052 C 
BRANCH  19  20
HETATM   20  C   UNL     1      41.888 -16.952   2.814  1.00  0.00    -0.057 A 
HETATM   21  C   UNL     1      42.217 -16.792   4.166  1.00  0.00     0.010 A 
HETATM   22  C   UNL     1      43.178 -17.612   4.761  1.00  0.00     0.037 A 
HETATM   23  C   UNL     1      43.825 -18.604   4.021  1.00  0.00     0.068 A 
HETATM   24  C   UNL     1      43.496 -18.772   2.676  1.00  0.00     0.037 A 
HETATM   25  C   UNL     1      42.533 -17.951   2.077  1.00  0.00     0.010 A 
BRANCH  23  26
HETATM   26  O   UNL     1      44.746 -19.328   4.725  1.00  0.00    -0.356 OA
HETATM   27  C   UNL     1      44.332 -20.601   5.206  1.00  0.00     0.210 C 
ENDBRANCH  23  26
ENDBRANCH  19  20
ENDBRANCH  17  19
ENDBRANCH   1  17
TORSDOF 6
ENDMDL
MODEL 2
REMARK VINA RESULT:      -7.8      3.986      9.172
REMARK  6 active torsions:
REMARK  status: ('A' for Active; 'I' for Inactive)
REMARK    1  A    between atoms: C_2  and  C_3 
REMARK    2  A    between atoms: C_2  and  C_18 
REMARK       I    between atoms: C_3  and  N_4 
REMARK    3  A    between atoms: N_4  and  C_5 
REMARK    4  A    between atoms: C_9  and  C_10 
REMARK    5  A    between atoms: C_18  and  C_19 
REMARK    6  A    between atoms: C_22  and  O_23 
ROOT
HETATM    1  C   UNL     1      44.188 -10.081   7.901  1.00  0.00     0.227 C 
HETATM    2  N   UNL     1      44.468 -11.434   7.775  1.00  0.00    -0.312 N 
HETATM    3  O   UNL     1      43.189  -9.537   7.433  1.00  0.00    -0.273 OA
HETATM    4  H   UNL     1      45.307 -11.818   8.194  1.00  0.00     0.170 HD
ENDROOT
BRANCH   2   5
HETATM    5  C   UNL     1      43.682 -12.274   7.014  1.00  0.00     0.126 A 
HETATM    6  N   UNL     1      42.339 -12.111   6.811  1.00  0.00    -0.262 N 
HETATM    7  H   UNL     1      41.752 -11.376   7.198  1.00  0.00     0.191 HD
HETATM    8  N   UNL     1      41.804 -13.032   5.992  1.00  0.00    -0.172 NA
HETATM    9  C   UNL     1      42.832 -13.831   5.658  1.00  0.00     0.092 A 
HETATM   10  C   UNL     1      44.028 -13.393   6.298  1.00  0.00     0.084 A 
BRANCH   9  11
HETATM   11  C   UNL     1      42.657 -14.957   4.739  1.00  0.00     0.012 A 
HETATM   12  C   UNL     1      41.635 -14.986   3.794  1.00  0.00     0.130 A 
HETATM   13  N   UNL     1      41.408 -16.010   2.930  1.00  0.00    -0.272 NA
HETATM   14  C   UNL     1      42.248 -17.063   3.011  1.00  0.00     0.116 A 
HETATM   15  C   UNL     1      43.300 -17.138   3.908  1.00  0.00     0.020 A 
HETATM   16  C   UNL     1      43.504 -16.069   4.780  1.00  0.00     0.017 A 
ENDBRANCH   9  11
ENDBRANCH   2   5
BRANCH   1  17
HETATM   17  C   UNL     1      45.252  -9.330   8.694  1.00  0.00     0.078 C 
HETATM   18  C   UNL     1      46.539  -9.248   7.871  1.00  0.00     0.020 C 
BRANCH  17  19
HETATM   19  C   UNL     1      45.481 -10.004  10.058  1.00  0.00     0.052 C 
BRANCH  19  20
HETATM   20  C   UNL     1      44.320  -9.793  11.003  1.00  0.00    -0.057 A 
HETATM   21  C   UNL     1      43.753 -10.886  11.670  1.00  0.00     0.010 A 
HETATM   22  C   UNL     1      42.660 -10.704  12.521  1.00  0.00     0.037 A 
HETATM   23  C   UNL     1      42.117  -9.433  12.721  1.00  0.00     0.068 A 
HETATM   24  C   UNL     1      42.683  -8.341  12.065  1.00  0.00     0.037 A 
HETATM   25  C   UNL     1      43.778  -8.520  11.211  1.00  0.00     0.010 A 
BRANCH  23  26
HETATM   26  O   UNL     1      41.047  -9.400  13.572  1.00  0.00    -0.356 OA
HETATM   27  C   UNL     1      39.930 -10.211  13.233  1.00  0.00     0.210 C 
ENDBRANCH  23  26
ENDBRANCH  19  20
ENDBRANCH  17  19
ENDBRANCH   1  17
TORSDOF 6
ENDMDL
MODEL 3
REMARK VINA RESULT:      -7.7      3.968      9.246
REMARK  6 active torsions:
REMARK  status: ('A' for Active; 'I' for Inactive)
REMARK    1  A    between atoms: C_2  and  C_3 
REMARK    2  A    between atoms: C_2  and  C_18 
REMARK       I    between atoms: C_3  and  N_4 
REMARK    3  A    between atoms: N_4  and  C_5 
REMARK    4  A    between atoms: C_9  and  C_10 
REMARK    5  A    between atoms: C_18  and  C_19 
REMARK    6  A    between atoms: C_22  and  O_23 
ROOT
HETATM    1  C   UNL     1      44.754 -11.046   7.254  1.00  0.00     0.227 C 
HETATM    2  N   UNL     1      43.701 -11.860   7.646  1.00  0.00    -0.312 N 
HETATM    3  O   UNL     1      45.345 -11.150   6.180  1.00  0.00    -0.273 OA
HETATM    4  H   UNL     1      43.254 -11.712   8.543  1.00  0.00     0.170 HD
ENDROOT
BRANCH   2   5
HETATM    5  C   UNL     1      43.290 -12.936   6.888  1.00  0.00     0.126 A 
HETATM    6  N   UNL     1      42.037 -13.083   6.359  1.00  0.00    -0.262 N 
HETATM    7  H   UNL     1      41.255 -12.441   6.466  1.00  0.00     0.191 HD
HETATM    8  N   UNL     1      41.894 -14.194   5.617  1.00  0.00    -0.172 NA
HETATM    9  C   UNL     1      43.093 -14.799   5.672  1.00  0.00     0.092 A 
HETATM   10  C   UNL     1      43.993 -14.042   6.479  1.00  0.00     0.084 A 
BRANCH   9  11
HETATM   11  C   UNL     1      43.353 -16.046   4.952  1.00  0.00     0.012 A 
HETATM   12  C   UNL     1      44.090 -17.084   5.516  1.00  0.00     0.130 A 
HETATM   13  N   UNL     1      44.382 -18.254   4.890  1.00  0.00    -0.272 NA
HETATM   14  C   UNL     1      43.912 -18.401   3.634  1.00  0.00     0.116 A 
HETATM   15  C   UNL     1      43.164 -17.437   2.979  1.00  0.00     0.020 A 
HETATM   16  C   UNL     1      42.883 -16.248   3.650  1.00  0.00     0.017 A 
ENDBRANCH   9  11
ENDBRANCH   2   5
BRANCH   1  17
HETATM   17  C   UNL     1      45.105  -9.991   8.299  1.00  0.00     0.078 C 
HETATM   18  C   UNL     1      46.448  -9.350   7.946  1.00  0.00     0.020 C 
BRANCH  17  19
HETATM   19  C   UNL     1      45.113 -10.612   9.707  1.00  0.00     0.052 C 
BRANCH  19  20
HETATM   20  C   UNL     1      44.181  -9.895  10.655  1.00  0.00    -0.057 A 
HETATM   21  C   UNL     1      43.566 -10.597  11.700  1.00  0.00     0.010 A 
HETATM   22  C   UNL     1      42.680  -9.947  12.561  1.00  0.00     0.037 A 
HETATM   23  C   UNL     1      42.392  -8.591  12.398  1.00  0.00     0.068 A 
HETATM   24  C   UNL     1      43.007  -7.886  11.364  1.00  0.00     0.037 A 
HETATM   25  C   UNL     1      43.896  -8.534  10.498  1.00  0.00     0.010 A 
BRANCH  23  26
HETATM   26  O   UNL     1      41.503  -8.084  13.305  1.00  0.00    -0.356 OA
HETATM   27  C   UNL     1      40.991  -8.988  14.276  1.00  0.00     0.210 C 
ENDBRANCH  23  26
ENDBRANCH  19  20
ENDBRANCH  17  19
ENDBRANCH   1  17
TORSDOF 6
ENDMDL
MODEL 4
REMARK VINA RESULT:      -7.7      4.558      7.659
REMARK  6 active torsions:
REMARK  status: ('A' for Active; 'I' for Inactive)
REMARK    1  A    between atoms: C_2  and  C_3 
REMARK    2  A    between atoms: C_2  and  C_18 
REMARK       I    between atoms: C_3  and  N_4 
REMARK    3  A    between atoms: N_4  and  C_5 
REMARK    4  A    between atoms: C_9  and  C_10 
REMARK    5  A    between atoms: C_18  and  C_19 
REMARK    6  A    between atoms: C_22  and  O_23 
ROOT
HETATM    1  C   UNL     1      40.409 -14.938   0.395  1.00  0.00     0.227 C 
HETATM    2  N   UNL     1      41.151 -13.838  -0.010  1.00  0.00    -0.312 N 
HETATM    3  O   UNL     1      39.480 -15.420  -0.251  1.00  0.00    -0.273 OA
HETATM    4  H   UNL     1      41.910 -13.499   0.570  1.00  0.00     0.170 HD
ENDROOT
BRANCH   2   5
HETATM    5  C   UNL     1      40.833 -13.122  -1.145  1.00  0.00     0.126 A 
HETATM    6  N   UNL     1      40.582 -13.676  -2.370  1.00  0.00    -0.262 N 
HETATM    7  H   UNL     1      40.612 -14.666  -2.605  1.00  0.00     0.191 HD
HETATM    8  N   UNL     1      40.246 -12.776  -3.309  1.00  0.00    -0.172 NA
HETATM    9  C   UNL     1      40.291 -11.590  -2.677  1.00  0.00     0.092 A 
HETATM   10  C   UNL     1      40.675 -11.769  -1.315  1.00  0.00     0.084 A 
BRANCH   9  11
HETATM   11  C   UNL     1      39.954 -10.344  -3.366  1.00  0.00     0.012 A 
HETATM   12  C   UNL     1      38.638  -9.993  -3.654  1.00  0.00     0.130 A 
HETATM   13  N   UNL     1      38.265  -8.863  -4.310  1.00  0.00    -0.272 NA
HETATM   14  C   UNL     1      39.257  -8.035  -4.698  1.00  0.00     0.116 A 
HETATM   15  C   UNL     1      40.598  -8.282  -4.460  1.00  0.00     0.020 A 
HETATM   16  C   UNL     1      40.946  -9.451  -3.785  1.00  0.00     0.017 A 
ENDBRANCH   9  11
ENDBRANCH   2   5
BRANCH   1  17
HETATM   17  C   UNL     1      40.874 -15.502   1.734  1.00  0.00     0.078 C 
HETATM   18  C   UNL     1      40.139 -14.788   2.871  1.00  0.00     0.020 C 
BRANCH  17  19
HETATM   19  C   UNL     1      42.402 -15.380   1.868  1.00  0.00     0.052 C 
BRANCH  19  20
HETATM   20  C   UNL     1      42.995 -16.495   2.697  1.00  0.00    -0.057 A 
HETATM   21  C   UNL     1      43.104 -17.785   2.161  1.00  0.00     0.010 A 
HETATM   22  C   UNL     1      43.623 -18.828   2.931  1.00  0.00     0.037 A 
HETATM   23  C   UNL     1      44.042 -18.603   4.244  1.00  0.00     0.068 A 
HETATM   24  C   UNL     1      43.943 -17.319   4.779  1.00  0.00     0.037 A 
HETATM   25  C   UNL     1      43.423 -16.272   4.010  1.00  0.00     0.010 A 
BRANCH  23  26
HETATM   26  O   UNL     1      44.522 -19.712   4.885  1.00  0.00    -0.356 OA
HETATM   27  C   UNL     1      43.956 -20.963   4.516  1.00  0.00     0.210 C 
ENDBRANCH  23  26
ENDBRANCH  19  20
ENDBRANCH  17  19
ENDBRANCH   1  17
TORSDOF 6
ENDMDL
MODEL 5
REMARK VINA RESULT:      -7.7      4.159      7.803
REMARK  6 active torsions:
REMARK  status: ('A' for Active; 'I' for Inactive)
REMARK    1  A    between atoms: C_2  and  C_3 
REMARK    2  A    between atoms: C_2  and  C_18 
REMARK       I    between atoms: C_3  and  N_4 
REMARK    3  A    between atoms: N_4  and  C_5 
REMARK    4  A    between atoms: C_9  and  C_10 
REMARK    5  A    between atoms: C_18  and  C_19 
REMARK    6  A    between atoms: C_22  and  O_23 
ROOT
HETATM    1  C   UNL     1      40.977 -14.231   1.594  1.00  0.00     0.227 C 
HETATM    2  N   UNL     1      41.214 -14.004   0.246  1.00  0.00    -0.312 N 
HETATM    3  O   UNL     1      39.869 -14.153   2.123  1.00  0.00    -0.273 OA
HETATM    4  H   UNL     1      42.153 -14.094  -0.124  1.00  0.00     0.170 HD
ENDROOT
BRANCH   2   5
HETATM    5  C   UNL     1      40.221 -13.566  -0.605  1.00  0.00     0.126 A 
HETATM    6  N   UNL     1      39.172 -14.331  -1.034  1.00  0.00    -0.262 N 
HETATM    7  H   UNL     1      38.996 -15.305  -0.800  1.00  0.00     0.191 HD
HETATM    8  N   UNL     1      38.309 -13.666  -1.820  1.00  0.00    -0.172 NA
HETATM    9  C   UNL     1      38.820 -12.426  -1.917  1.00  0.00     0.092 A 
HETATM   10  C   UNL     1      40.035 -12.333  -1.177  1.00  0.00     0.084 A 
BRANCH   9  11
HETATM   11  C   UNL     1      38.141 -11.378  -2.680  1.00  0.00     0.012 A 
HETATM   12  C   UNL     1      38.844 -10.415  -3.399  1.00  0.00     0.130 A 
HETATM   13  N   UNL     1      38.271  -9.406  -4.106  1.00  0.00    -0.272 NA
HETATM   14  C   UNL     1      36.923  -9.354  -4.099  1.00  0.00     0.116 A 
HETATM   15  C   UNL     1      36.125 -10.262  -3.423  1.00  0.00     0.020 A 
HETATM   16  C   UNL     1      36.745 -11.285  -2.707  1.00  0.00     0.017 A 
ENDBRANCH   9  11
ENDBRANCH   2   5
BRANCH   1  17
HETATM   17  C   UNL     1      42.243 -14.599   2.362  1.00  0.00     0.078 C 
HETATM   18  C   UNL     1      43.119 -13.355   2.528  1.00  0.00     0.020 C 
BRANCH  17  19
HETATM   19  C   UNL     1      42.990 -15.740   1.651  1.00  0.00     0.052 C 
BRANCH  19  20
HETATM   20  C   UNL     1      43.329 -16.875   2.589  1.00  0.00    -0.057 A 
HETATM   21  C   UNL     1      43.599 -16.612   3.938  1.00  0.00     0.010 A 
HETATM   22  C   UNL     1      43.943 -17.652   4.805  1.00  0.00     0.037 A 
HETATM   23  C   UNL     1      44.023 -18.967   4.343  1.00  0.00     0.068 A 
HETATM   24  C   UNL     1      43.748 -19.235   3.002  1.00  0.00     0.037 A 
HETATM   25  C   UNL     1      43.403 -18.195   2.131  1.00  0.00     0.010 A 
BRANCH  23  26
HETATM   26  O   UNL     1      44.376 -19.883   5.295  1.00  0.00    -0.356 OA
HETATM   27  C   UNL     1      43.845 -21.195   5.153  1.00  0.00     0.210 C 
ENDBRANCH  23  26
ENDBRANCH  19  20
ENDBRANCH  17  19
ENDBRANCH   1  17
TORSDOF 6
ENDMDL
MODEL 6
REMARK VINA RESULT:      -7.6      3.905      6.192
REMARK  6 active torsions:
REMARK  status: ('A' for Active; 'I' for Inactive)
REMARK    1  A    between atoms: C_2  and  C_3 
REMARK    2  A    between atoms: C_2  and  C_18 
REMARK       I    between atoms: C_3  and  N_4 
REMARK    3  A    between atoms: N_4  and  C_5 
REMARK    4  A    between atoms: C_9  and  C_10 
REMARK    5  A    between atoms: C_18  and  C_19 
REMARK    6  A    between atoms: C_22  and  O_23 
ROOT
HETATM    1  C   UNL     1      44.710 -10.819   8.012  1.00  0.00     0.227 C 
HETATM    2  N   UNL     1      43.661 -10.957   8.910  1.00  0.00    -0.312 N 
HETATM    3  O   UNL     1      45.523  -9.896   8.037  1.00  0.00    -0.273 OA
HETATM    4  H   UNL     1      43.033 -11.749   8.835  1.00  0.00     0.170 HD
ENDROOT
BRANCH   2   5
HETATM    5  C   UNL     1      43.383  -9.997   9.860  1.00  0.00     0.126 A 
HETATM    6  N   UNL     1      43.212  -8.667   9.595  1.00  0.00    -0.262 N 
HETATM    7  H   UNL     1      43.282  -8.216   8.685  1.00  0.00     0.191 HD
HETATM    8  N   UNL     1      42.901  -7.938  10.680  1.00  0.00    -0.172 NA
HETATM    9  C   UNL     1      42.879  -8.823  11.691  1.00  0.00     0.092 A 
HETATM   10  C   UNL     1      43.196 -10.129  11.213  1.00  0.00     0.084 A 
BRANCH   9  11
HETATM   11  C   UNL     1      42.544  -8.415  13.056  1.00  0.00     0.012 A 
HETATM   12  C   UNL     1      41.508  -9.011  13.771  1.00  0.00     0.130 A 
HETATM   13  N   UNL     1      41.136  -8.661  15.030  1.00  0.00    -0.272 NA
HETATM   14  C   UNL     1      41.836  -7.664  15.611  1.00  0.00     0.116 A 
HETATM   15  C   UNL     1      42.887  -7.006  14.995  1.00  0.00     0.020 A 
HETATM   16  C   UNL     1      43.243  -7.390  13.703  1.00  0.00     0.017 A 
ENDBRANCH   9  11
ENDBRANCH   2   5
BRANCH   1  17
HETATM   17  C   UNL     1      44.758 -11.944   6.983  1.00  0.00     0.078 C 
HETATM   18  C   UNL     1      45.500 -11.462   5.734  1.00  0.00     0.020 C 
BRANCH  17  19
HETATM   19  C   UNL     1      43.336 -12.435   6.656  1.00  0.00     0.052 C 
BRANCH  19  20
HETATM   20  C   UNL     1      43.341 -13.758   5.927  1.00  0.00    -0.057 A 
HETATM   21  C   UNL     1      43.837 -14.905   6.559  1.00  0.00     0.010 A 
HETATM   22  C   UNL     1      43.873 -16.125   5.881  1.00  0.00     0.037 A 
HETATM   23  C   UNL     1      43.416 -16.223   4.565  1.00  0.00     0.068 A 
HETATM   24  C   UNL     1      42.914 -15.085   3.934  1.00  0.00     0.037 A 
HETATM   25  C   UNL     1      42.877 -13.860   4.611  1.00  0.00     0.010 A 
BRANCH  23  26
HETATM   26  O   UNL     1      43.515 -17.473   4.020  1.00  0.00    -0.356 OA
HETATM   27  C   UNL     1      43.232 -17.592   2.631  1.00  0.00     0.210 C 
ENDBRANCH  23  26
ENDBRANCH  19  20
ENDBRANCH  17  19
ENDBRANCH   1  17
TORSDOF 6
ENDMDL
MODEL 7
REMARK VINA RESULT:      -7.6      4.982      8.526
REMARK  6 active torsions:
REMARK  status: ('A' for Active; 'I' for Inactive)
REMARK    1  A    between atoms: C_2  and  C_3 
REMARK    2  A    between atoms: C_2  and  C_18 
REMARK       I    between atoms: C_3  and  N_4 
REMARK    3  A    between atoms: N_4  and  C_5 
REMARK    4  A    between atoms: C_9  and  C_10 
REMARK    5  A    between atoms: C_18  and  C_19 
REMARK    6  A    between atoms: C_22  and  O_23 
ROOT
HETATM    1  C   UNL     1      39.288 -14.030  -0.927  1.00  0.00     0.227 C 
HETATM    2  N   UNL     1      39.702 -13.642   0.339  1.00  0.00    -0.312 N 
HETATM    3  O   UNL     1      39.214 -15.199  -1.301  1.00  0.00    -0.273 OA
HETATM    4  H   UNL     1      39.731 -12.658   0.582  1.00  0.00     0.170 HD
ENDROOT
BRANCH   2   5
HETATM    5  C   UNL     1      40.169 -14.552   1.264  1.00  0.00     0.126 A 
HETATM    6  N   UNL     1      39.425 -15.076   2.285  1.00  0.00    -0.262 N 
HETATM    7  H   UNL     1      38.455 -14.856   2.502  1.00  0.00     0.191 HD
HETATM    8  N   UNL     1      40.088 -15.980   3.024  1.00  0.00    -0.172 NA
HETATM    9  C   UNL     1      41.313 -16.041   2.474  1.00  0.00     0.092 A 
HETATM   10  C   UNL     1      41.405 -15.140   1.372  1.00  0.00     0.084 A 
BRANCH   9  11
HETATM   11  C   UNL     1      42.337 -16.951   2.987  1.00  0.00     0.012 A 
HETATM   12  C   UNL     1      42.966 -16.739   4.211  1.00  0.00     0.130 A 
HETATM   13  N   UNL     1      43.938 -17.535   4.729  1.00  0.00    -0.272 NA
HETATM   14  C   UNL     1      44.301 -18.603   3.990  1.00  0.00     0.116 A 
HETATM   15  C   UNL     1      43.739 -18.913   2.763  1.00  0.00     0.020 A 
HETATM   16  C   UNL     1      42.744 -18.075   2.260  1.00  0.00     0.017 A 
ENDBRANCH   9  11
ENDBRANCH   2   5
BRANCH   1  17
HETATM   17  C   UNL     1      38.921 -12.846  -1.816  1.00  0.00     0.078 C 
HETATM   18  C   UNL     1      37.568 -13.107  -2.481  1.00  0.00     0.020 C 
BRANCH  17  19
HETATM   19  C   UNL     1      40.031 -12.585  -2.849  1.00  0.00     0.052 C 
BRANCH  19  20
HETATM   20  C   UNL     1      40.602 -11.191  -2.738  1.00  0.00    -0.057 A 
HETATM   21  C   UNL     1      41.318 -10.815  -1.594  1.00  0.00     0.010 A 
HETATM   22  C   UNL     1      41.822  -9.519  -1.470  1.00  0.00     0.037 A 
HETATM   23  C   UNL     1      41.622  -8.577  -2.481  1.00  0.00     0.068 A 
HETATM   24  C   UNL     1      40.916  -8.948  -3.625  1.00  0.00     0.037 A 
HETATM   25  C   UNL     1      40.410 -10.247  -3.753  1.00  0.00     0.010 A 
BRANCH  23  26
HETATM   26  O   UNL     1      42.162  -7.347  -2.227  1.00  0.00    -0.356 OA
HETATM   27  C   UNL     1      43.085  -7.260  -1.150  1.00  0.00     0.210 C 
ENDBRANCH  23  26
ENDBRANCH  19  20
ENDBRANCH  17  19
ENDBRANCH   1  17
TORSDOF 6
ENDMDL
MODEL 8
REMARK VINA RESULT:      -7.6      3.941      7.586
REMARK  6 active torsions:
REMARK  status: ('A' for Active; 'I' for Inactive)
REMARK    1  A    between atoms: C_2  and  C_3 
REMARK    2  A    between atoms: C_2  and  C_18 
REMARK       I    between atoms: C_3  and  N_4 
REMARK    3  A    between atoms: N_4  and  C_5 
REMARK    4  A    between atoms: C_9  and  C_10 
REMARK    5  A    between atoms: C_18  and  C_19 
REMARK    6  A    between atoms: C_22  and  O_23 
ROOT
HETATM    1  C   UNL     1      41.374 -12.739   2.999  1.00  0.00     0.227 C 
HETATM    2  N   UNL     1      42.394 -13.503   2.449  1.00  0.00    -0.312 N 
HETATM    3  O   UNL     1      40.801 -13.010   4.054  1.00  0.00    -0.273 OA
HETATM    4  H   UNL     1      42.828 -13.214   1.580  1.00  0.00     0.170 HD
ENDROOT
BRANCH   2   5
HETATM    5  C   UNL     1      42.785 -14.704   3.002  1.00  0.00     0.126 A 
HETATM    6  N   UNL     1      43.127 -14.882   4.314  1.00  0.00    -0.262 N 
HETATM    7  H   UNL     1      43.154 -14.166   5.036  1.00  0.00     0.191 HD
HETATM    8  N   UNL     1      43.426 -16.155   4.623  1.00  0.00    -0.172 NA
HETATM    9  C   UNL     1      43.284 -16.830   3.469  1.00  0.00     0.092 A 
HETATM   10  C   UNL     1      42.898 -15.943   2.421  1.00  0.00     0.084 A 
BRANCH   9  11
HETATM   11  C   UNL     1      43.496 -18.276   3.399  1.00  0.00     0.012 A 
HETATM   12  C   UNL     1      44.008 -19.000   4.472  1.00  0.00     0.130 A 
HETATM   13  N   UNL     1      44.247 -20.337   4.460  1.00  0.00    -0.272 NA
HETATM   14  C   UNL     1      43.957 -20.991   3.316  1.00  0.00     0.116 A 
HETATM   15  C   UNL     1      43.440 -20.374   2.190  1.00  0.00     0.020 A 
HETATM   16  C   UNL     1      43.207 -19.000   2.237  1.00  0.00     0.017 A 
ENDBRANCH   9  11
ENDBRANCH   2   5
BRANCH   1  17
HETATM   17  C   UNL     1      41.037 -11.511   2.159  1.00  0.00     0.078 C 
HETATM   18  C   UNL     1      41.225 -10.249   3.003  1.00  0.00     0.020 C 
BRANCH  17  19
HETATM   19  C   UNL     1      39.609 -11.622   1.595  1.00  0.00     0.052 C 
BRANCH  19  20
HETATM   20  C   UNL     1      39.570 -12.360   0.277  1.00  0.00    -0.057 A 
HETATM   21  C   UNL     1      39.328 -11.660  -0.912  1.00  0.00     0.010 A 
HETATM   22  C   UNL     1      39.260 -12.340  -2.130  1.00  0.00     0.037 A 
HETATM   23  C   UNL     1      39.433 -13.724  -2.184  1.00  0.00     0.068 A 
HETATM   24  C   UNL     1      39.682 -14.425  -1.004  1.00  0.00     0.037 A 
HETATM   25  C   UNL     1      39.751 -13.746   0.219  1.00  0.00     0.010 A 
BRANCH  23  26
HETATM   26  O   UNL     1      39.335 -14.261  -3.437  1.00  0.00    -0.356 OA
HETATM   27  C   UNL     1      38.061 -14.761  -3.824  1.00  0.00     0.210 C 
ENDBRANCH  23  26
ENDBRANCH  19  20
ENDBRANCH  17  19
ENDBRANCH   1  17
TORSDOF 6
ENDMDL
MODEL 9
REMARK VINA RESULT:      -7.3      4.771      9.998
REMARK  6 active torsions:
REMARK  status: ('A' for Active; 'I' for Inactive)
REMARK    1  A    between atoms: C_2  and  C_3 
REMARK    2  A    between atoms: C_2  and  C_18 
REMARK       I    between atoms: C_3  and  N_4 
REMARK    3  A    between atoms: N_4  and  C_5 
REMARK    4  A    between atoms: C_9  and  C_10 
REMARK    5  A    between atoms: C_18  and  C_19 
REMARK    6  A    between atoms: C_22  and  O_23 
ROOT
HETATM    1  C   UNL     1      43.385 -10.290   8.410  1.00  0.00     0.227 C 
HETATM    2  N   UNL     1      43.882 -11.556   8.134  1.00  0.00    -0.312 N 
HETATM    3  O   UNL     1      42.568  -9.700   7.704  1.00  0.00    -0.273 OA
HETATM    4  H   UNL     1      44.548 -11.986   8.766  1.00  0.00     0.170 HD
ENDROOT
BRANCH   2   5
HETATM    5  C   UNL     1      43.569 -12.225   6.970  1.00  0.00     0.126 A 
HETATM    6  N   UNL     1      43.319 -11.621   5.769  1.00  0.00    -0.262 N 
HETATM    7  H   UNL     1      43.315 -10.620   5.582  1.00  0.00     0.191 HD
HETATM    8  N   UNL     1      43.084 -12.488   4.770  1.00  0.00    -0.172 NA
HETATM    9  C   UNL     1      43.173 -13.701   5.342  1.00  0.00     0.092 A 
HETATM   10  C   UNL     1      43.460 -13.572   6.733  1.00  0.00     0.084 A 
BRANCH   9  11
HETATM   11  C   UNL     1      43.006 -14.927   4.562  1.00  0.00     0.012 A 
HETATM   12  C   UNL     1      43.435 -16.166   5.032  1.00  0.00     0.130 A 
HETATM   13  N   UNL     1      43.328 -17.333   4.345  1.00  0.00    -0.272 NA
HETATM   14  C   UNL     1      42.759 -17.265   3.124  1.00  0.00     0.116 A 
HETATM   15  C   UNL     1      42.292 -16.090   2.561  1.00  0.00     0.020 A 
HETATM   16  C   UNL     1      42.417 -14.909   3.293  1.00  0.00     0.017 A 
ENDBRANCH   9  11
ENDBRANCH   2   5
BRANCH   1  17
HETATM   17  C   UNL     1      43.954  -9.700   9.697  1.00  0.00     0.078 C 
HETATM   18  C   UNL     1      45.480  -9.639   9.599  1.00  0.00     0.020 C 
BRANCH  17  19
HETATM   19  C   UNL     1      43.485 -10.515  10.915  1.00  0.00     0.052 C 
BRANCH  19  20
HETATM   20  C   UNL     1      43.000  -9.633  12.042  1.00  0.00    -0.057 A 
HETATM   21  C   UNL     1      43.626  -8.404  12.289  1.00  0.00     0.010 A 
HETATM   22  C   UNL     1      43.204  -7.598  13.348  1.00  0.00     0.037 A 
HETATM   23  C   UNL     1      42.154  -8.000  14.175  1.00  0.00     0.068 A 
HETATM   24  C   UNL     1      41.522  -9.218  13.928  1.00  0.00     0.037 A 
HETATM   25  C   UNL     1      41.943 -10.030  12.868  1.00  0.00     0.010 A 
BRANCH  23  26
HETATM   26  O   UNL     1      41.848  -7.119  15.176  1.00  0.00    -0.356 OA
HETATM   27  C   UNL     1      40.479  -7.013  15.542  1.00  0.00     0.210 C 
ENDBRANCH  23  26
ENDBRANCH  19  20
ENDBRANCH  17  19
ENDBRANCH   1  17
TORSDOF 6
ENDMDL
MODEL 10
REMARK VINA RESULT:      -7.2      8.752     12.979
REMARK  6 active torsions:
REMARK  status: ('A' for Active; 'I' for Inactive)
REMARK    1  A    between atoms: C_2  and  C_3 
REMARK    2  A    between atoms: C_2  and  C_18 
REMARK       I    between atoms: C_3  and  N_4 
REMARK    3  A    between atoms: N_4  and  C_5 
REMARK    4  A    between atoms: C_9  and  C_10 
REMARK    5  A    between atoms: C_18  and  C_19 
REMARK    6  A    between atoms: C_22  and  O_23 
ROOT
HETATM    1  C   UNL     1      42.567  -6.747  13.726  1.00  0.00     0.227 C 
HETATM    2  N   UNL     1      41.396  -6.504  14.430  1.00  0.00    -0.312 N 
HETATM    3  O   UNL     1      43.636  -7.055  14.250  1.00  0.00    -0.273 OA
HETATM    4  H   UNL     1      40.547  -6.263  13.931  1.00  0.00     0.170 HD
ENDROOT
BRANCH   2   5
HETATM    5  C   UNL     1      41.364  -6.491  15.809  1.00  0.00     0.126 A 
HETATM    6  N   UNL     1      42.107  -5.657  16.597  1.00  0.00    -0.262 N 
HETATM    7  H   UNL     1      42.779  -4.961  16.279  1.00  0.00     0.191 HD
HETATM    8  N   UNL     1      41.865  -5.800  17.910  1.00  0.00    -0.172 NA
HETATM    9  C   UNL     1      40.939  -6.772  17.983  1.00  0.00     0.092 A 
HETATM   10  C   UNL     1      40.612  -7.243  16.677  1.00  0.00     0.084 A 
BRANCH   9  11
HETATM   11  C   UNL     1      40.384  -7.204  19.266  1.00  0.00     0.012 A 
HETATM   12  C   UNL     1      39.553  -8.316  19.375  1.00  0.00     0.130 A 
HETATM   13  N   UNL     1      38.991  -8.752  20.532  1.00  0.00    -0.272 NA
HETATM   14  C   UNL     1      39.275  -8.043  21.645  1.00  0.00     0.116 A 
HETATM   15  C   UNL     1      40.091  -6.925  21.654  1.00  0.00     0.020 A 
HETATM   16  C   UNL     1      40.651  -6.505  20.448  1.00  0.00     0.017 A 
ENDBRANCH   9  11
ENDBRANCH   2   5
BRANCH   1  17
HETATM   17  C   UNL     1      42.390  -6.600  12.218  1.00  0.00     0.078 C 
HETATM   18  C   UNL     1      41.221  -5.656  11.931  1.00  0.00     0.020 C 
BRANCH  17  19
HETATM   19  C   UNL     1      42.192  -7.979  11.564  1.00  0.00     0.052 C 
BRANCH  19  20
HETATM   20  C   UNL     1      43.353  -8.362  10.675  1.00  0.00    -0.057 A 
HETATM   21  C   UNL     1      43.532  -7.723   9.442  1.00  0.00     0.010 A 
HETATM   22  C   UNL     1      44.585  -8.094   8.602  1.00  0.00     0.037 A 
HETATM   23  C   UNL     1      45.474  -9.103   8.975  1.00  0.00     0.068 A 
HETATM   24  C   UNL     1      45.303  -9.737  10.206  1.00  0.00     0.037 A 
HETATM   25  C   UNL     1      44.249  -9.369  11.051  1.00  0.00     0.010 A 
BRANCH  23  26
HETATM   26  O   UNL     1      46.451  -9.369   8.057  1.00  0.00    -0.356 OA
HETATM   27  C   UNL     1      46.435 -10.658   7.457  1.00  0.00     0.210 C 
ENDBRANCH  23  26
ENDBRANCH  19  20
ENDBRANCH  17  19
ENDBRANCH   1  17
TORSDOF 6
ENDMDL
