MODEL 1
REMARK VINA RESULT:      -9.1      0.000      0.000
REMARK  10 active torsions:
REMARK  status: ('A' for Active; 'I' for Inactive)
REMARK    1  A    between atoms: C_2  and  C_3 
REMARK    2  A    between atoms: C_3  and  O_4 
REMARK    3  A    between atoms: O_4  and  C_5 
REMARK    4  A    between atoms: C_8  and  C_9 
REMARK       I    between atoms: C_9  and  N_10 
REMARK    5  A    between atoms: N_10  and  C_11 
REMARK    6  A    between atoms: C_11  and  N_12 
REMARK    7  A    between atoms: N_12  and  C_13 
REMARK    8  A    between atoms: C_16  and  N_17 
REMARK    9  A    between atoms: N_20  and  C_22 
REMARK   10  A    between atoms: C_22  and  C_23 
ROOT
HETATM    1  C   UNL     1      42.861 -10.299   7.232  1.00  0.00     0.034 A 
HETATM    2  C   UNL     1      43.705 -11.406   7.142  1.00  0.00     0.032 A 
HETATM    3  C   UNL     1      43.276 -12.586   6.517  1.00  0.00     0.031 A 
HETATM    4  C   UNL     1      41.984 -12.713   5.988  1.00  0.00     0.030 A 
HETATM    5  C   UNL     1      41.147 -11.598   6.103  1.00  0.00     0.031 A 
HETATM    6  C   UNL     1      41.579 -10.405   6.705  1.00  0.00     0.032 A 
ENDROOT
BRANCH   1   7
HETATM    7  N   UNL     1      43.334  -9.191   7.960  1.00  0.00    -0.333 N 
HETATM    8  H   UNL     1      42.797  -8.331   7.827  1.00  0.00     0.168 HD
BRANCH   7   9
HETATM    9  C   UNL     1      44.434  -9.021   8.766  1.00  0.00     0.179 C 
HETATM   10  S   UNL     1      46.049  -9.014   8.333  1.00  0.00    -0.040 SA
BRANCH   9  11
HETATM   11  N   UNL     1      44.146  -8.835  10.109  1.00  0.00    -0.299 N 
HETATM   12  C   UNL     1      43.679  -9.787  11.003  1.00  0.00     0.257 C 
HETATM   13  O   UNL     1      43.769 -10.998  10.828  1.00  0.00    -0.267 OA
HETATM   14  H   UNL     1      44.064  -7.860  10.362  1.00  0.00     0.171 HD
BRANCH  12  15
HETATM   15  C   UNL     1      43.011  -9.256  12.215  1.00  0.00     0.032 A 
HETATM   16  C   UNL     1      41.887  -9.938  12.691  1.00  0.00     0.020 A 
HETATM   17  C   UNL     1      41.178  -9.447  13.791  1.00  0.00     0.038 A 
HETATM   18  C   UNL     1      41.600  -8.279  14.428  1.00  0.00     0.068 A 
HETATM   19  C   UNL     1      42.745  -7.621  13.967  1.00  0.00     0.038 A 
HETATM   20  C   UNL     1      43.453  -8.100  12.862  1.00  0.00     0.020 A 
BRANCH  18  21
HETATM   21  O   UNL     1      40.994  -7.691  15.503  1.00  0.00    -0.351 OA
BRANCH  21  22
HETATM   22  C   UNL     1      41.845  -7.052  16.457  1.00  0.00     0.175 C 
BRANCH  22  23
HETATM   23  C   UNL     1      41.000  -6.688  17.674  1.00  0.00     0.022 C 
HETATM   24  C   UNL     1      40.237  -7.887  18.207  1.00  0.00     0.007 C 
ENDBRANCH  22  23
ENDBRANCH  21  22
ENDBRANCH  18  21
ENDBRANCH  12  15
ENDBRANCH   9  11
ENDBRANCH   7   9
ENDBRANCH   1   7
BRANCH   4  25
HETATM   25  N   UNL     1      41.577 -13.926   5.438  1.00  0.00    -0.378 N 
HETATM   26  C   UNL     1      41.277 -15.024   6.376  1.00  0.00     0.150 C 
HETATM   27  C   UNL     1      42.487 -15.974   6.511  1.00  0.00     0.255 C 
HETATM   28  N   UNL     1      42.930 -16.472   5.130  1.00  0.00    -0.064 N 
HETATM   29  H   UNL     1      42.126 -16.966   4.726  1.00  0.00     0.280 HD
HETATM   30  C   UNL     1      43.255 -15.298   4.211  1.00  0.00     0.255 C 
HETATM   31  C   UNL     1      42.050 -14.342   4.110  1.00  0.00     0.150 C 
BRANCH  28  32
HETATM   32  C   UNL     1      44.070 -17.457   5.195  1.00  0.00     0.273 C 
BRANCH  32  33
HETATM   33  C   UNL     1      43.902 -18.606   4.240  1.00  0.00    -0.033 A 
HETATM   34  C   UNL     1      43.499 -18.378   2.915  1.00  0.00     0.009 A 
HETATM   35  C   UNL     1      43.320 -19.447   2.036  1.00  0.00     0.001 A 
HETATM   36  C   UNL     1      43.545 -20.752   2.471  1.00  0.00     0.000 A 
HETATM   37  C   UNL     1      43.952 -20.990   3.782  1.00  0.00     0.001 A 
HETATM   38  C   UNL     1      44.131 -19.924   4.663  1.00  0.00     0.009 A 
ENDBRANCH  32  33
ENDBRANCH  28  32
ENDBRANCH   4  25
TORSDOF 10
ENDMDL
MODEL 2
REMARK VINA RESULT:      -8.9      1.477      2.252
REMARK  10 active torsions:
REMARK  status: ('A' for Active; 'I' for Inactive)
REMARK    1  A    between atoms: C_2  and  C_3 
REMARK    2  A    between atoms: C_3  and  O_4 
REMARK    3  A    between atoms: O_4  and  C_5 
REMARK    4  A    between atoms: C_8  and  C_9 
REMARK       I    between atoms: C_9  and  N_10 
REMARK    5  A    between atoms: N_10  and  C_11 
REMARK    6  A    between atoms: C_11  and  N_12 
REMARK    7  A    between atoms: N_12  and  C_13 
REMARK    8  A    between atoms: C_16  and  N_17 
REMARK    9  A    between atoms: N_20  and  C_22 
REMARK   10  A    between atoms: C_22  and  C_23 
ROOT
HETATM    1  C   UNL     1      43.437 -11.201   7.125  1.00  0.00     0.034 A 
HETATM    2  C   UNL     1      43.743 -12.427   6.535  1.00  0.00     0.032 A 
HETATM    3  C   UNL     1      43.214 -12.772   5.283  1.00  0.00     0.031 A 
HETATM    4  C   UNL     1      42.339 -11.922   4.592  1.00  0.00     0.030 A 
HETATM    5  C   UNL     1      42.030 -10.705   5.209  1.00  0.00     0.031 A 
HETATM    6  C   UNL     1      42.577 -10.342   6.450  1.00  0.00     0.032 A 
ENDROOT
BRANCH   1   7
HETATM    7  N   UNL     1      43.931 -10.975   8.424  1.00  0.00    -0.333 N 
HETATM    8  H   UNL     1      43.610 -11.644   9.127  1.00  0.00     0.168 HD
BRANCH   7   9
HETATM    9  C   UNL     1      44.711  -9.973   8.950  1.00  0.00     0.179 C 
HETATM   10  S   UNL     1      46.067  -9.254   8.286  1.00  0.00    -0.040 SA
BRANCH   9  11
HETATM   11  N   UNL     1      44.307  -9.515  10.194  1.00  0.00    -0.299 N 
HETATM   12  C   UNL     1      43.757 -10.265  11.223  1.00  0.00     0.257 C 
HETATM   13  O   UNL     1      43.856 -11.485  11.315  1.00  0.00    -0.267 OA
HETATM   14  H   UNL     1      44.208  -8.509  10.229  1.00  0.00     0.171 HD
BRANCH  12  15
HETATM   15  C   UNL     1      42.987  -9.501  12.233  1.00  0.00     0.032 A 
HETATM   16  C   UNL     1      43.466  -8.240  12.602  1.00  0.00     0.020 A 
HETATM   17  C   UNL     1      42.816  -7.503  13.596  1.00  0.00     0.038 A 
HETATM   18  C   UNL     1      41.676  -8.018  14.215  1.00  0.00     0.068 A 
HETATM   19  C   UNL     1      41.183  -9.265  13.816  1.00  0.00     0.038 A 
HETATM   20  C   UNL     1      41.832 -10.013  12.830  1.00  0.00     0.020 A 
BRANCH  18  21
HETATM   21  O   UNL     1      40.955  -7.405  15.202  1.00  0.00    -0.351 OA
BRANCH  21  22
HETATM   22  C   UNL     1      41.211  -7.822  16.544  1.00  0.00     0.175 C 
BRANCH  22  23
HETATM   23  C   UNL     1      42.059  -6.748  17.218  1.00  0.00     0.022 C 
HETATM   24  C   UNL     1      41.476  -5.361  17.016  1.00  0.00     0.007 C 
ENDBRANCH  22  23
ENDBRANCH  21  22
ENDBRANCH  18  21
ENDBRANCH  12  15
ENDBRANCH   9  11
ENDBRANCH   7   9
ENDBRANCH   1   7
BRANCH   4  25
HETATM   25  N   UNL     1      41.782 -12.334   3.384  1.00  0.00    -0.378 N 
HETATM   26  C   UNL     1      40.391 -12.826   3.417  1.00  0.00     0.150 C 
HETATM   27  C   UNL     1      40.358 -14.369   3.474  1.00  0.00     0.255 C 
HETATM   28  N   UNL     1      41.175 -14.963   2.321  1.00  0.00    -0.064 N 
HETATM   29  H   UNL     1      40.744 -14.624   1.453  1.00  0.00     0.280 HD
HETATM   30  C   UNL     1      42.610 -14.444   2.352  1.00  0.00     0.255 C 
HETATM   31  C   UNL     1      42.628 -12.904   2.326  1.00  0.00     0.150 C 
BRANCH  28  32
HETATM   32  C   UNL     1      41.131 -16.469   2.280  1.00  0.00     0.273 C 
BRANCH  32  33
HETATM   33  C   UNL     1      42.274 -17.107   3.020  1.00  0.00    -0.033 A 
HETATM   34  C   UNL     1      43.114 -18.030   2.376  1.00  0.00     0.009 A 
HETATM   35  C   UNL     1      44.159 -18.639   3.071  1.00  0.00     0.001 A 
HETATM   36  C   UNL     1      44.378 -18.330   4.413  1.00  0.00     0.000 A 
HETATM   37  C   UNL     1      43.557 -17.410   5.059  1.00  0.00     0.001 A 
HETATM   38  C   UNL     1      42.510 -16.800   4.369  1.00  0.00     0.009 A 
ENDBRANCH  32  33
ENDBRANCH  28  32
ENDBRANCH   4  25
TORSDOF 10
ENDMDL
MODEL 3
REMARK VINA RESULT:      -8.5      3.231     11.818
REMARK  10 active torsions:
REMARK  status: ('A' for Active; 'I' for Inactive)
REMARK    1  A    between atoms: C_2  and  C_3 
REMARK    2  A    between atoms: C_3  and  O_4 
REMARK    3  A    between atoms: O_4  and  C_5 
REMARK    4  A    between atoms: C_8  and  C_9 
REMARK       I    between atoms: C_9  and  N_10 
REMARK    5  A    between atoms: N_10  and  C_11 
REMARK    6  A    between atoms: C_11  and  N_12 
REMARK    7  A    between atoms: N_12  and  C_13 
REMARK    8  A    between atoms: C_16  and  N_17 
REMARK    9  A    between atoms: N_20  and  C_22 
REMARK   10  A    between atoms: C_22  and  C_23 
ROOT
HETATM    1  C   UNL     1      41.761 -10.524   4.575  1.00  0.00     0.034 A 
HETATM    2  C   UNL     1      42.848 -11.102   5.230  1.00  0.00     0.032 A 
HETATM    3  C   UNL     1      43.355 -10.540   6.411  1.00  0.00     0.031 A 
HETATM    4  C   UNL     1      42.817  -9.368   6.961  1.00  0.00     0.030 A 
HETATM    5  C   UNL     1      41.738  -8.794   6.279  1.00  0.00     0.031 A 
HETATM    6  C   UNL     1      41.209  -9.367   5.111  1.00  0.00     0.032 A 
ENDROOT
BRANCH   1   7
HETATM    7  N   UNL     1      41.378 -11.095   3.346  1.00  0.00    -0.333 N 
HETATM    8  H   UNL     1      41.887 -10.742   2.533  1.00  0.00     0.168 HD
BRANCH   7   9
HETATM    9  C   UNL     1      40.389 -11.990   3.016  1.00  0.00     0.179 C 
HETATM   10  S   UNL     1      38.810 -11.676   2.565  1.00  0.00    -0.040 SA
BRANCH   9  11
HETATM   11  N   UNL     1      40.769 -13.322   3.073  1.00  0.00    -0.299 N 
HETATM   12  C   UNL     1      40.966 -14.086   4.214  1.00  0.00     0.257 C 
HETATM   13  O   UNL     1      40.515 -13.803   5.319  1.00  0.00    -0.267 OA
HETATM   14  H   UNL     1      41.146 -13.661   2.199  1.00  0.00     0.171 HD
BRANCH  12  15
HETATM   15  C   UNL     1      41.808 -15.294   4.039  1.00  0.00     0.032 A 
HETATM   16  C   UNL     1      42.850 -15.500   4.949  1.00  0.00     0.020 A 
HETATM   17  C   UNL     1      43.715 -16.587   4.794  1.00  0.00     0.038 A 
HETATM   18  C   UNL     1      43.532 -17.480   3.738  1.00  0.00     0.068 A 
HETATM   19  C   UNL     1      42.467 -17.288   2.852  1.00  0.00     0.038 A 
HETATM   20  C   UNL     1      41.604 -16.197   2.994  1.00  0.00     0.020 A 
BRANCH  18  21
HETATM   21  O   UNL     1      44.309 -18.574   3.471  1.00  0.00    -0.351 OA
BRANCH  21  22
HETATM   22  C   UNL     1      43.964 -19.791   4.136  1.00  0.00     0.175 C 
BRANCH  22  23
HETATM   23  C   UNL     1      44.008 -20.917   3.108  1.00  0.00     0.022 C 
HETATM   24  C   UNL     1      43.459 -20.474   1.764  1.00  0.00     0.007 C 
ENDBRANCH  22  23
ENDBRANCH  21  22
ENDBRANCH  18  21
ENDBRANCH  12  15
ENDBRANCH   9  11
ENDBRANCH   7   9
ENDBRANCH   1   7
BRANCH   4  25
HETATM   25  N   UNL     1      43.395  -8.806   8.095  1.00  0.00    -0.378 N 
HETATM   26  C   UNL     1      44.320  -9.654   8.871  1.00  0.00     0.150 C 
HETATM   27  C   UNL     1      43.595 -10.296  10.074  1.00  0.00     0.255 C 
HETATM   28  N   UNL     1      42.918  -9.216  10.926  1.00  0.00    -0.064 N 
HETATM   29  H   UNL     1      43.663  -8.587  11.247  1.00  0.00     0.280 HD
HETATM   30  C   UNL     1      41.953  -8.388  10.082  1.00  0.00     0.255 C 
HETATM   31  C   UNL     1      42.682  -7.780   8.869  1.00  0.00     0.150 C 
BRANCH  28  32
HETATM   32  C   UNL     1      42.244  -9.770  12.156  1.00  0.00     0.273 C 
BRANCH  32  33
HETATM   33  C   UNL     1      42.303  -8.828  13.326  1.00  0.00    -0.033 A 
HETATM   34  C   UNL     1      41.418  -8.977  14.406  1.00  0.00     0.009 A 
HETATM   35  C   UNL     1      41.458  -8.088  15.481  1.00  0.00     0.001 A 
HETATM   36  C   UNL     1      42.381  -7.044  15.488  1.00  0.00     0.000 A 
HETATM   37  C   UNL     1      43.268  -6.890  14.425  1.00  0.00     0.001 A 
HETATM   38  C   UNL     1      43.232  -7.776  13.349  1.00  0.00     0.009 A 
ENDBRANCH  32  33
ENDBRANCH  28  32
ENDBRANCH   4  25
TORSDOF 10
ENDMDL
MODEL 4
REMARK VINA RESULT:      -8.2      4.785     12.514
REMARK  10 active torsions:
REMARK  status: ('A' for Active; 'I' for Inactive)
REMARK    1  A    between atoms: C_2  and  C_3 
REMARK    2  A    between atoms: C_3  and  O_4 
REMARK    3  A    between atoms: O_4  and  C_5 
REMARK    4  A    between atoms: C_8  and  C_9 
REMARK       I    between atoms: C_9  and  N_10 
REMARK    5  A    between atoms: N_10  and  C_11 
REMARK    6  A    between atoms: C_11  and  N_12 
REMARK    7  A    between atoms: N_12  and  C_13 
REMARK    8  A    between atoms: C_16  and  N_17 
REMARK    9  A    between atoms: N_20  and  C_22 
REMARK   10  A    between atoms: C_22  and  C_23 
ROOT
HETATM    1  C   UNL     1      43.135 -13.041   5.514  1.00  0.00     0.034 A 
HETATM    2  C   UNL     1      42.201 -12.010   5.594  1.00  0.00     0.032 A 
HETATM    3  C   UNL     1      42.387 -10.941   6.482  1.00  0.00     0.031 A 
HETATM    4  C   UNL     1      43.494 -10.879   7.341  1.00  0.00     0.030 A 
HETATM    5  C   UNL     1      44.412 -11.932   7.257  1.00  0.00     0.031 A 
HETATM    6  C   UNL     1      44.244 -12.992   6.351  1.00  0.00     0.032 A 
ENDROOT
BRANCH   1   7
HETATM    7  N   UNL     1      42.824 -14.123   4.668  1.00  0.00    -0.333 N 
HETATM    8  H   UNL     1      43.556 -14.368   3.999  1.00  0.00     0.168 HD
BRANCH   7   9
HETATM    9  C   UNL     1      41.683 -14.875   4.518  1.00  0.00     0.179 C 
HETATM   10  S   UNL     1      41.002 -15.958   5.595  1.00  0.00    -0.040 SA
BRANCH   9  11
HETATM   11  N   UNL     1      41.027 -14.700   3.310  1.00  0.00    -0.299 N 
HETATM   12  C   UNL     1      41.569 -14.827   2.039  1.00  0.00     0.257 C 
HETATM   13  O   UNL     1      42.606 -15.434   1.790  1.00  0.00    -0.267 OA
HETATM   14  H   UNL     1      40.144 -14.217   3.408  1.00  0.00     0.171 HD
BRANCH  12  15
HETATM   15  C   UNL     1      40.826 -14.143   0.954  1.00  0.00     0.032 A 
HETATM   16  C   UNL     1      40.116 -14.938   0.049  1.00  0.00     0.020 A 
HETATM   17  C   UNL     1      39.450 -14.352  -1.032  1.00  0.00     0.038 A 
HETATM   18  C   UNL     1      39.481 -12.967  -1.203  1.00  0.00     0.068 A 
HETATM   19  C   UNL     1      40.164 -12.175  -0.274  1.00  0.00     0.038 A 
HETATM   20  C   UNL     1      40.841 -12.755   0.803  1.00  0.00     0.020 A 
BRANCH  18  21
HETATM   21  O   UNL     1      38.881 -12.273  -2.217  1.00  0.00    -0.351 OA
BRANCH  21  22
HETATM   22  C   UNL     1      37.545 -11.821  -1.991  1.00  0.00     0.175 C 
BRANCH  22  23
HETATM   23  C   UNL     1      37.254 -10.697  -2.980  1.00  0.00     0.022 C 
HETATM   24  C   UNL     1      38.521  -9.970  -3.394  1.00  0.00     0.007 C 
ENDBRANCH  22  23
ENDBRANCH  21  22
ENDBRANCH  18  21
ENDBRANCH  12  15
ENDBRANCH   9  11
ENDBRANCH   7   9
ENDBRANCH   1   7
BRANCH   4  25
HETATM   25  N   UNL     1      43.605  -9.835   8.255  1.00  0.00    -0.378 N 
HETATM   26  C   UNL     1      44.580 -10.000   9.350  1.00  0.00     0.150 C 
HETATM   27  C   UNL     1      43.881 -10.492  10.636  1.00  0.00     0.255 C 
HETATM   28  N   UNL     1      42.721  -9.559  11.004  1.00  0.00    -0.064 N 
HETATM   29  H   UNL     1      43.131  -8.628  11.149  1.00  0.00     0.280 HD
HETATM   30  C   UNL     1      41.730  -9.448   9.849  1.00  0.00     0.255 C 
HETATM   31  C   UNL     1      42.446  -8.986   8.565  1.00  0.00     0.150 C 
BRANCH  28  32
HETATM   32  C   UNL     1      42.035  -9.947  12.289  1.00  0.00     0.273 C 
BRANCH  32  33
HETATM   33  C   UNL     1      42.167  -8.900  13.359  1.00  0.00    -0.033 A 
HETATM   34  C   UNL     1      43.113  -7.870  13.236  1.00  0.00     0.009 A 
HETATM   35  C   UNL     1      43.252  -6.913  14.242  1.00  0.00     0.001 A 
HETATM   36  C   UNL     1      42.446  -6.974  15.378  1.00  0.00     0.000 A 
HETATM   37  C   UNL     1      41.500  -7.988  15.508  1.00  0.00     0.001 A 
HETATM   38  C   UNL     1      41.359  -8.947  14.505  1.00  0.00     0.009 A 
ENDBRANCH  32  33
ENDBRANCH  28  32
ENDBRANCH   4  25
TORSDOF 10
ENDMDL
MODEL 5
REMARK VINA RESULT:      -8.2      5.069     10.916
REMARK  10 active torsions:
REMARK  status: ('A' for Active; 'I' for Inactive)
REMARK    1  A    between atoms: C_2  and  C_3 
REMARK    2  A    between atoms: C_3  and  O_4 
REMARK    3  A    between atoms: O_4  and  C_5 
REMARK    4  A    between atoms: C_8  and  C_9 
REMARK       I    between atoms: C_9  and  N_10 
REMARK    5  A    between atoms: N_10  and  C_11 
REMARK    6  A    between atoms: C_11  and  N_12 
REMARK    7  A    between atoms: N_12  and  C_13 
REMARK    8  A    between atoms: C_16  and  N_17 
REMARK    9  A    between atoms: N_20  and  C_22 
REMARK   10  A    between atoms: C_22  and  C_23 
ROOT
HETATM    1  C   UNL     1      40.087 -10.907   1.030  1.00  0.00     0.034 A 
HETATM    2  C   UNL     1      39.075 -11.486   1.796  1.00  0.00     0.032 A 
HETATM    3  C   UNL     1      39.034 -11.304   3.185  1.00  0.00     0.031 A 
HETATM    4  C   UNL     1      40.015 -10.566   3.862  1.00  0.00     0.030 A 
HETATM    5  C   UNL     1      41.032 -10.009   3.079  1.00  0.00     0.031 A 
HETATM    6  C   UNL     1      41.064 -10.165   1.684  1.00  0.00     0.032 A 
ENDROOT
BRANCH   1   7
HETATM    7  N   UNL     1      40.110 -11.220  -0.342  1.00  0.00    -0.333 N 
HETATM    8  H   UNL     1      39.533 -10.613  -0.929  1.00  0.00     0.168 HD
BRANCH   7   9
HETATM    9  C   UNL     1      40.707 -12.239  -1.044  1.00  0.00     0.179 C 
HETATM   10  S   UNL     1      40.901 -12.389  -2.698  1.00  0.00    -0.040 SA
BRANCH   9  11
HETATM   11  N   UNL     1      41.204 -13.269  -0.262  1.00  0.00    -0.299 N 
HETATM   12  C   UNL     1      40.558 -14.451   0.074  1.00  0.00     0.257 C 
HETATM   13  O   UNL     1      39.597 -14.907  -0.538  1.00  0.00    -0.267 OA
HETATM   14  H   UNL     1      42.015 -12.998   0.278  1.00  0.00     0.171 HD
BRANCH  12  15
HETATM   15  C   UNL     1      41.082 -15.150   1.271  1.00  0.00     0.032 A 
HETATM   16  C   UNL     1      42.454 -15.413   1.325  1.00  0.00     0.020 A 
HETATM   17  C   UNL     1      42.994 -16.126   2.399  1.00  0.00     0.038 A 
HETATM   18  C   UNL     1      42.164 -16.567   3.431  1.00  0.00     0.068 A 
HETATM   19  C   UNL     1      40.798 -16.271   3.388  1.00  0.00     0.038 A 
HETATM   20  C   UNL     1      40.249 -15.567   2.312  1.00  0.00     0.020 A 
BRANCH  18  21
HETATM   21  O   UNL     1      42.562 -17.278   4.529  1.00  0.00    -0.351 OA
BRANCH  21  22
HETATM   22  C   UNL     1      42.227 -16.737   5.808  1.00  0.00     0.175 C 
BRANCH  22  23
HETATM   23  C   UNL     1      43.349 -17.092   6.779  1.00  0.00     0.022 C 
HETATM   24  C   UNL     1      44.647 -16.392   6.419  1.00  0.00     0.007 C 
ENDBRANCH  22  23
ENDBRANCH  21  22
ENDBRANCH  18  21
ENDBRANCH  12  15
ENDBRANCH   9  11
ENDBRANCH   7   9
ENDBRANCH   1   7
BRANCH   4  25
HETATM   25  N   UNL     1      39.975 -10.469   5.251  1.00  0.00    -0.378 N 
HETATM   26  C   UNL     1      39.413  -9.230   5.823  1.00  0.00     0.150 C 
HETATM   27  C   UNL     1      40.540  -8.247   6.209  1.00  0.00     0.255 C 
HETATM   28  N   UNL     1      41.550  -8.931   7.138  1.00  0.00    -0.064 N 
HETATM   29  H   UNL     1      41.027  -9.225   7.971  1.00  0.00     0.280 HD
HETATM   30  C   UNL     1      42.119 -10.188   6.486  1.00  0.00     0.255 C 
HETATM   31  C   UNL     1      40.983 -11.146   6.078  1.00  0.00     0.150 C 
BRANCH  28  32
HETATM   32  C   UNL     1      42.644  -8.005   7.605  1.00  0.00     0.273 C 
BRANCH  32  33
HETATM   33  C   UNL     1      43.563  -8.647   8.606  1.00  0.00    -0.033 A 
HETATM   34  C   UNL     1      43.066  -9.119   9.831  1.00  0.00     0.009 A 
HETATM   35  C   UNL     1      43.924  -9.693  10.770  1.00  0.00     0.001 A 
HETATM   36  C   UNL     1      45.286  -9.803  10.493  1.00  0.00     0.000 A 
HETATM   37  C   UNL     1      45.790  -9.345   9.278  1.00  0.00     0.001 A 
HETATM   38  C   UNL     1      44.935  -8.770   8.338  1.00  0.00     0.009 A 
ENDBRANCH  32  33
ENDBRANCH  28  32
ENDBRANCH   4  25
TORSDOF 10
ENDMDL
MODEL 6
REMARK VINA RESULT:      -8.2      1.989      2.723
REMARK  10 active torsions:
REMARK  status: ('A' for Active; 'I' for Inactive)
REMARK    1  A    between atoms: C_2  and  C_3 
REMARK    2  A    between atoms: C_3  and  O_4 
REMARK    3  A    between atoms: O_4  and  C_5 
REMARK    4  A    between atoms: C_8  and  C_9 
REMARK       I    between atoms: C_9  and  N_10 
REMARK    5  A    between atoms: N_10  and  C_11 
REMARK    6  A    between atoms: C_11  and  N_12 
REMARK    7  A    between atoms: N_12  and  C_13 
REMARK    8  A    between atoms: C_16  and  N_17 
REMARK    9  A    between atoms: N_20  and  C_22 
REMARK   10  A    between atoms: C_22  and  C_23 
ROOT
HETATM    1  C   UNL     1      42.185  -9.902   6.311  1.00  0.00     0.034 A 
HETATM    2  C   UNL     1      40.909 -10.335   5.951  1.00  0.00     0.032 A 
HETATM    3  C   UNL     1      40.623 -11.702   5.827  1.00  0.00     0.031 A 
HETATM    4  C   UNL     1      41.605 -12.682   6.028  1.00  0.00     0.030 A 
HETATM    5  C   UNL     1      42.883 -12.228   6.372  1.00  0.00     0.031 A 
HETATM    6  C   UNL     1      43.169 -10.861   6.523  1.00  0.00     0.032 A 
ENDROOT
BRANCH   1   7
HETATM    7  N   UNL     1      42.412  -8.513   6.318  1.00  0.00    -0.333 N 
HETATM    8  H   UNL     1      43.324  -8.227   5.954  1.00  0.00     0.168 HD
BRANCH   7   9
HETATM    9  C   UNL     1      41.666  -7.461   6.792  1.00  0.00     0.179 C 
HETATM   10  S   UNL     1      40.524  -6.547   5.982  1.00  0.00    -0.040 SA
BRANCH   9  11
HETATM   11  N   UNL     1      41.907  -7.128   8.116  1.00  0.00    -0.299 N 
HETATM   12  C   UNL     1      43.114  -7.222   8.794  1.00  0.00     0.257 C 
HETATM   13  O   UNL     1      44.209  -7.292   8.245  1.00  0.00    -0.267 OA
HETATM   14  H   UNL     1      41.060  -7.031   8.658  1.00  0.00     0.171 HD
BRANCH  12  15
HETATM   15  C   UNL     1      43.016  -7.267  10.273  1.00  0.00     0.032 A 
HETATM   16  C   UNL     1      43.472  -8.420  10.921  1.00  0.00     0.020 A 
HETATM   17  C   UNL     1      43.345  -8.545  12.307  1.00  0.00     0.038 A 
HETATM   18  C   UNL     1      42.776  -7.511  13.052  1.00  0.00     0.068 A 
HETATM   19  C   UNL     1      42.355  -6.347  12.401  1.00  0.00     0.038 A 
HETATM   20  C   UNL     1      42.468  -6.219  11.014  1.00  0.00     0.020 A 
BRANCH  18  21
HETATM   21  O   UNL     1      42.588  -7.511  14.406  1.00  0.00    -0.351 OA
BRANCH  21  22
HETATM   22  C   UNL     1      41.785  -8.561  14.949  1.00  0.00     0.175 C 
BRANCH  22  23
HETATM   23  C   UNL     1      40.457  -8.574  14.199  1.00  0.00     0.022 C 
HETATM   24  C   UNL     1      40.210  -9.909  13.518  1.00  0.00     0.007 C 
ENDBRANCH  22  23
ENDBRANCH  21  22
ENDBRANCH  18  21
ENDBRANCH  12  15
ENDBRANCH   9  11
ENDBRANCH   7   9
ENDBRANCH   1   7
BRANCH   4  25
HETATM   25  N   UNL     1      41.296 -14.024   5.827  1.00  0.00    -0.378 N 
HETATM   26  C   UNL     1      42.197 -15.021   6.435  1.00  0.00     0.150 C 
HETATM   27  C   UNL     1      43.219 -15.538   5.401  1.00  0.00     0.255 C 
HETATM   28  N   UNL     1      42.498 -16.066   4.155  1.00  0.00    -0.064 N 
HETATM   29  H   UNL     1      41.889 -16.829   4.472  1.00  0.00     0.280 HD
HETATM   30  C   UNL     1      41.604 -14.987   3.550  1.00  0.00     0.255 C 
HETATM   31  C   UNL     1      40.609 -14.459   4.602  1.00  0.00     0.150 C 
BRANCH  28  32
HETATM   32  C   UNL     1      43.438 -16.646   3.129  1.00  0.00     0.273 C 
BRANCH  32  33
HETATM   33  C   UNL     1      43.559 -18.141   3.229  1.00  0.00    -0.033 A 
HETATM   34  C   UNL     1      44.042 -18.740   4.403  1.00  0.00     0.009 A 
HETATM   35  C   UNL     1      44.177 -20.127   4.486  1.00  0.00     0.001 A 
HETATM   36  C   UNL     1      43.829 -20.927   3.399  1.00  0.00     0.000 A 
HETATM   37  C   UNL     1      43.342 -20.344   2.231  1.00  0.00     0.001 A 
HETATM   38  C   UNL     1      43.207 -18.959   2.144  1.00  0.00     0.009 A 
ENDBRANCH  32  33
ENDBRANCH  28  32
ENDBRANCH   4  25
TORSDOF 10
ENDMDL
MODEL 7
REMARK VINA RESULT:      -8.1      1.707      1.922
REMARK  10 active torsions:
REMARK  status: ('A' for Active; 'I' for Inactive)
REMARK    1  A    between atoms: C_2  and  C_3 
REMARK    2  A    between atoms: C_3  and  O_4 
REMARK    3  A    between atoms: O_4  and  C_5 
REMARK    4  A    between atoms: C_8  and  C_9 
REMARK       I    between atoms: C_9  and  N_10 
REMARK    5  A    between atoms: N_10  and  C_11 
REMARK    6  A    between atoms: C_11  and  N_12 
REMARK    7  A    between atoms: N_12  and  C_13 
REMARK    8  A    between atoms: C_16  and  N_17 
REMARK    9  A    between atoms: N_20  and  C_22 
REMARK   10  A    between atoms: C_22  and  C_23 
ROOT
HETATM    1  C   UNL     1      41.406 -10.014   6.931  1.00  0.00     0.034 A 
HETATM    2  C   UNL     1      42.487 -10.814   6.561  1.00  0.00     0.032 A 
HETATM    3  C   UNL     1      42.281 -12.055   5.941  1.00  0.00     0.031 A 
HETATM    4  C   UNL     1      40.994 -12.553   5.695  1.00  0.00     0.030 A 
HETATM    5  C   UNL     1      39.923 -11.743   6.089  1.00  0.00     0.031 A 
HETATM    6  C   UNL     1      40.122 -10.488   6.687  1.00  0.00     0.032 A 
ENDROOT
BRANCH   1   7
HETATM    7  N   UNL     1      41.698  -8.830   7.635  1.00  0.00    -0.333 N 
HETATM    8  H   UNL     1      42.684  -8.563   7.634  1.00  0.00     0.168 HD
BRANCH   7   9
HETATM    9  C   UNL     1      40.914  -7.994   8.394  1.00  0.00     0.179 C 
HETATM   10  S   UNL     1      39.472  -7.257   7.975  1.00  0.00    -0.040 SA
BRANCH   9  11
HETATM   11  N   UNL     1      41.398  -7.741   9.667  1.00  0.00    -0.299 N 
HETATM   12  C   UNL     1      41.945  -8.659  10.552  1.00  0.00     0.257 C 
HETATM   13  O   UNL     1      42.386  -9.755  10.221  1.00  0.00    -0.267 OA
HETATM   14  H   UNL     1      41.100  -6.845  10.031  1.00  0.00     0.171 HD
BRANCH  12  15
HETATM   15  C   UNL     1      41.943  -8.255  11.978  1.00  0.00     0.032 A 
HETATM   16  C   UNL     1      43.160  -7.864  12.546  1.00  0.00     0.020 A 
HETATM   17  C   UNL     1      43.231  -7.535  13.902  1.00  0.00     0.038 A 
HETATM   18  C   UNL     1      42.082  -7.582  14.693  1.00  0.00     0.068 A 
HETATM   19  C   UNL     1      40.862  -7.940  14.110  1.00  0.00     0.038 A 
HETATM   20  C   UNL     1      40.785  -8.281  12.757  1.00  0.00     0.020 A 
BRANCH  18  21
HETATM   21  O   UNL     1      42.017  -7.293  16.028  1.00  0.00    -0.351 OA
BRANCH  21  22
HETATM   22  C   UNL     1      41.578  -5.982  16.387  1.00  0.00     0.175 C 
BRANCH  22  23
HETATM   23  C   UNL     1      41.700  -5.841  17.901  1.00  0.00     0.022 C 
HETATM   24  C   UNL     1      40.934  -6.929  18.631  1.00  0.00     0.007 C 
ENDBRANCH  22  23
ENDBRANCH  21  22
ENDBRANCH  18  21
ENDBRANCH  12  15
ENDBRANCH   9  11
ENDBRANCH   7   9
ENDBRANCH   1   7
BRANCH   4  25
HETATM   25  N   UNL     1      40.835 -13.820   5.141  1.00  0.00    -0.378 N 
HETATM   26  C   UNL     1      40.704 -14.953   6.076  1.00  0.00     0.150 C 
HETATM   27  C   UNL     1      42.060 -15.667   6.263  1.00  0.00     0.255 C 
HETATM   28  N   UNL     1      42.639 -16.077   4.904  1.00  0.00    -0.064 N 
HETATM   29  H   UNL     1      41.954 -16.710   4.474  1.00  0.00     0.280 HD
HETATM   30  C   UNL     1      42.780 -14.865   3.988  1.00  0.00     0.255 C 
HETATM   31  C   UNL     1      41.426 -14.144   3.834  1.00  0.00     0.150 C 
BRANCH  28  32
HETATM   32  C   UNL     1      43.935 -16.839   5.019  1.00  0.00     0.273 C 
BRANCH  32  33
HETATM   33  C   UNL     1      43.881 -18.185   4.353  1.00  0.00    -0.033 A 
HETATM   34  C   UNL     1      43.564 -18.294   2.989  1.00  0.00     0.009 A 
HETATM   35  C   UNL     1      43.490 -19.546   2.378  1.00  0.00     0.001 A 
HETATM   36  C   UNL     1      43.735 -20.700   3.121  1.00  0.00     0.000 A 
HETATM   37  C   UNL     1      44.058 -20.604   4.472  1.00  0.00     0.001 A 
HETATM   38  C   UNL     1      44.132 -19.355   5.087  1.00  0.00     0.009 A 
ENDBRANCH  32  33
ENDBRANCH  28  32
ENDBRANCH   4  25
TORSDOF 10
ENDMDL
MODEL 8
REMARK VINA RESULT:      -8.0      3.136      4.085
REMARK  10 active torsions:
REMARK  status: ('A' for Active; 'I' for Inactive)
REMARK    1  A    between atoms: C_2  and  C_3 
REMARK    2  A    between atoms: C_3  and  O_4 
REMARK    3  A    between atoms: O_4  and  C_5 
REMARK    4  A    between atoms: C_8  and  C_9 
REMARK       I    between atoms: C_9  and  N_10 
REMARK    5  A    between atoms: N_10  and  C_11 
REMARK    6  A    between atoms: C_11  and  N_12 
REMARK    7  A    between atoms: N_12  and  C_13 
REMARK    8  A    between atoms: C_16  and  N_17 
REMARK    9  A    between atoms: N_20  and  C_22 
REMARK   10  A    between atoms: C_22  and  C_23 
ROOT
HETATM    1  C   UNL     1      39.613 -10.398   3.942  1.00  0.00     0.034 A 
HETATM    2  C   UNL     1      40.793 -11.051   4.297  1.00  0.00     0.032 A 
HETATM    3  C   UNL     1      41.162 -12.252   3.676  1.00  0.00     0.031 A 
HETATM    4  C   UNL     1      40.355 -12.859   2.703  1.00  0.00     0.030 A 
HETATM    5  C   UNL     1      39.167 -12.197   2.373  1.00  0.00     0.031 A 
HETATM    6  C   UNL     1      38.804 -10.980   2.973  1.00  0.00     0.032 A 
ENDROOT
BRANCH   1   7
HETATM    7  N   UNL     1      39.268  -9.251   4.682  1.00  0.00    -0.333 N 
HETATM    8  H   UNL     1      38.338  -8.876   4.483  1.00  0.00     0.168 HD
BRANCH   7   9
HETATM    9  C   UNL     1      39.977  -8.486   5.577  1.00  0.00     0.179 C 
HETATM   10  S   UNL     1      41.111  -7.299   5.261  1.00  0.00    -0.040 SA
BRANCH   9  11
HETATM   11  N   UNL     1      39.705  -8.750   6.910  1.00  0.00    -0.299 N 
HETATM   12  C   UNL     1      38.917  -7.995   7.767  1.00  0.00     0.257 C 
HETATM   13  O   UNL     1      38.081  -7.178   7.394  1.00  0.00    -0.267 OA
HETATM   14  H   UNL     1      40.335  -9.430   7.314  1.00  0.00     0.171 HD
BRANCH  12  15
HETATM   15  C   UNL     1      39.160  -8.206   9.214  1.00  0.00     0.032 A 
HETATM   16  C   UNL     1      38.729  -7.211  10.099  1.00  0.00     0.020 A 
HETATM   17  C   UNL     1      38.989  -7.326  11.467  1.00  0.00     0.038 A 
HETATM   18  C   UNL     1      39.667  -8.442  11.959  1.00  0.00     0.068 A 
HETATM   19  C   UNL     1      40.064  -9.449  11.072  1.00  0.00     0.038 A 
HETATM   20  C   UNL     1      39.818  -9.337   9.701  1.00  0.00     0.020 A 
BRANCH  18  21
HETATM   21  O   UNL     1      39.990  -8.670  13.267  1.00  0.00    -0.351 OA
BRANCH  21  22
HETATM   22  C   UNL     1      41.167  -9.441  13.520  1.00  0.00     0.175 C 
BRANCH  22  23
HETATM   23  C   UNL     1      42.115  -8.592  14.361  1.00  0.00     0.022 C 
HETATM   24  C   UNL     1      43.066  -7.786  13.495  1.00  0.00     0.007 C 
ENDBRANCH  22  23
ENDBRANCH  21  22
ENDBRANCH  18  21
ENDBRANCH  12  15
ENDBRANCH   9  11
ENDBRANCH   7   9
ENDBRANCH   1   7
BRANCH   4  25
HETATM   25  N   UNL     1      40.726 -14.087   2.162  1.00  0.00    -0.378 N 
HETATM   26  C   UNL     1      40.204 -15.298   2.821  1.00  0.00     0.150 C 
HETATM   27  C   UNL     1      41.250 -15.887   3.792  1.00  0.00     0.255 C 
HETATM   28  N   UNL     1      42.578 -16.128   3.063  1.00  0.00    -0.064 N 
HETATM   29  H   UNL     1      42.377 -16.789   2.304  1.00  0.00     0.280 HD
HETATM   30  C   UNL     1      43.086 -14.838   2.425  1.00  0.00     0.255 C 
HETATM   31  C   UNL     1      42.020 -14.246   1.483  1.00  0.00     0.150 C 
BRANCH  28  32
HETATM   32  C   UNL     1      43.627 -16.763   3.940  1.00  0.00     0.273 C 
BRANCH  32  33
HETATM   33  C   UNL     1      43.694 -18.256   3.779  1.00  0.00    -0.033 A 
HETATM   34  C   UNL     1      44.082 -19.072   4.854  1.00  0.00     0.009 A 
HETATM   35  C   UNL     1      44.168 -20.456   4.697  1.00  0.00     0.001 A 
HETATM   36  C   UNL     1      43.864 -21.038   3.467  1.00  0.00     0.000 A 
HETATM   37  C   UNL     1      43.472 -20.239   2.395  1.00  0.00     0.001 A 
HETATM   38  C   UNL     1      43.386 -18.855   2.548  1.00  0.00     0.009 A 
ENDBRANCH  32  33
ENDBRANCH  28  32
ENDBRANCH   4  25
TORSDOF 10
ENDMDL
MODEL 9
REMARK VINA RESULT:      -8.0      4.298     10.900
REMARK  10 active torsions:
REMARK  status: ('A' for Active; 'I' for Inactive)
REMARK    1  A    between atoms: C_2  and  C_3 
REMARK    2  A    between atoms: C_3  and  O_4 
REMARK    3  A    between atoms: O_4  and  C_5 
REMARK    4  A    between atoms: C_8  and  C_9 
REMARK       I    between atoms: C_9  and  N_10 
REMARK    5  A    between atoms: N_10  and  C_11 
REMARK    6  A    between atoms: C_11  and  N_12 
REMARK    7  A    between atoms: N_12  and  C_13 
REMARK    8  A    between atoms: C_16  and  N_17 
REMARK    9  A    between atoms: N_20  and  C_22 
REMARK   10  A    between atoms: C_22  and  C_23 
ROOT
HETATM    1  C   UNL     1      39.229 -11.816   4.356  1.00  0.00     0.034 A 
HETATM    2  C   UNL     1      39.300 -12.047   5.730  1.00  0.00     0.032 A 
HETATM    3  C   UNL     1      39.433 -10.981   6.631  1.00  0.00     0.031 A 
HETATM    4  C   UNL     1      39.530  -9.653   6.193  1.00  0.00     0.030 A 
HETATM    5  C   UNL     1      39.474  -9.443   4.810  1.00  0.00     0.031 A 
HETATM    6  C   UNL     1      39.314 -10.504   3.904  1.00  0.00     0.032 A 
ENDROOT
BRANCH   1   7
HETATM    7  N   UNL     1      39.194 -12.947   3.518  1.00  0.00    -0.333 N 
HETATM    8  H   UNL     1      38.298 -13.437   3.497  1.00  0.00     0.168 HD
BRANCH   7   9
HETATM    9  C   UNL     1      40.165 -13.567   2.769  1.00  0.00     0.179 C 
HETATM   10  S   UNL     1      40.703 -13.178   1.234  1.00  0.00    -0.040 SA
BRANCH   9  11
HETATM   11  N   UNL     1      40.764 -14.656   3.383  1.00  0.00    -0.299 N 
HETATM   12  C   UNL     1      41.825 -14.632   4.277  1.00  0.00     0.257 C 
HETATM   13  O   UNL     1      42.168 -13.640   4.912  1.00  0.00    -0.267 OA
HETATM   14  H   UNL     1      40.531 -15.534   2.940  1.00  0.00     0.171 HD
BRANCH  12  15
HETATM   15  C   UNL     1      42.575 -15.903   4.416  1.00  0.00     0.032 A 
HETATM   16  C   UNL     1      43.185 -16.428   3.272  1.00  0.00     0.020 A 
HETATM   17  C   UNL     1      43.851 -17.655   3.329  1.00  0.00     0.038 A 
HETATM   18  C   UNL     1      43.923 -18.355   4.534  1.00  0.00     0.068 A 
HETATM   19  C   UNL     1      43.341 -17.807   5.682  1.00  0.00     0.038 A 
HETATM   20  C   UNL     1      42.664 -16.586   5.631  1.00  0.00     0.020 A 
BRANCH  18  21
HETATM   21  O   UNL     1      44.535 -19.563   4.722  1.00  0.00    -0.351 OA
BRANCH  21  22
HETATM   22  C   UNL     1      43.849 -20.719   4.237  1.00  0.00     0.175 C 
BRANCH  22  23
HETATM   23  C   UNL     1      44.280 -20.952   2.793  1.00  0.00     0.022 C 
HETATM   24  C   UNL     1      43.211 -20.512   1.809  1.00  0.00     0.007 C 
ENDBRANCH  22  23
ENDBRANCH  21  22
ENDBRANCH  18  21
ENDBRANCH  12  15
ENDBRANCH   9  11
ENDBRANCH   7   9
ENDBRANCH   1   7
BRANCH   4  25
HETATM   25  N   UNL     1      39.731  -8.631   7.117  1.00  0.00    -0.378 N 
HETATM   26  C   UNL     1      40.770  -7.633   6.801  1.00  0.00     0.150 C 
HETATM   27  C   UNL     1      42.092  -7.972   7.523  1.00  0.00     0.255 C 
HETATM   28  N   UNL     1      41.853  -8.131   9.029  1.00  0.00    -0.064 N 
HETATM   29  H   UNL     1      41.480  -7.233   9.361  1.00  0.00     0.280 HD
HETATM   30  C   UNL     1      40.792  -9.194   9.299  1.00  0.00     0.255 C 
HETATM   31  C   UNL     1      39.488  -8.859   8.549  1.00  0.00     0.150 C 
BRANCH  28  32
HETATM   32  C   UNL     1      43.118  -8.400   9.803  1.00  0.00     0.273 C 
BRANCH  32  33
HETATM   33  C   UNL     1      44.136  -9.168   9.007  1.00  0.00    -0.033 A 
HETATM   34  C   UNL     1      43.882 -10.491   8.613  1.00  0.00     0.009 A 
HETATM   35  C   UNL     1      44.838 -11.211   7.895  1.00  0.00     0.001 A 
HETATM   36  C   UNL     1      46.054 -10.616   7.563  1.00  0.00     0.000 A 
HETATM   37  C   UNL     1      46.315  -9.302   7.944  1.00  0.00     0.001 A 
HETATM   38  C   UNL     1      45.362  -8.579   8.662  1.00  0.00     0.009 A 
ENDBRANCH  32  33
ENDBRANCH  28  32
ENDBRANCH   4  25
TORSDOF 10
ENDMDL
MODEL 10
REMARK VINA RESULT:      -8.0      4.041     11.190
REMARK  10 active torsions:
REMARK  status: ('A' for Active; 'I' for Inactive)
REMARK    1  A    between atoms: C_2  and  C_3 
REMARK    2  A    between atoms: C_3  and  O_4 
REMARK    3  A    between atoms: O_4  and  C_5 
REMARK    4  A    between atoms: C_8  and  C_9 
REMARK       I    between atoms: C_9  and  N_10 
REMARK    5  A    between atoms: N_10  and  C_11 
REMARK    6  A    between atoms: C_11  and  N_12 
REMARK    7  A    between atoms: N_12  and  C_13 
REMARK    8  A    between atoms: C_16  and  N_17 
REMARK    9  A    between atoms: N_20  and  C_22 
REMARK   10  A    between atoms: C_22  and  C_23 
ROOT
HETATM    1  C   UNL     1      39.587 -10.466   4.704  1.00  0.00     0.034 A 
HETATM    2  C   UNL     1      39.530  -9.085   4.888  1.00  0.00     0.032 A 
HETATM    3  C   UNL     1      39.403  -8.537   6.173  1.00  0.00     0.031 A 
HETATM    4  C   UNL     1      39.300  -9.346   7.313  1.00  0.00     0.030 A 
HETATM    5  C   UNL     1      39.342 -10.729   7.106  1.00  0.00     0.031 A 
HETATM    6  C   UNL     1      39.495 -11.284   5.824  1.00  0.00     0.032 A 
ENDROOT
BRANCH   1   7
HETATM    7  N   UNL     1      39.616 -10.934   3.376  1.00  0.00    -0.333 N 
HETATM    8  H   UNL     1      38.704 -10.973   2.917  1.00  0.00     0.168 HD
BRANCH   7   9
HETATM    9  C   UNL     1      40.635 -11.424   2.596  1.00  0.00     0.179 C 
HETATM   10  S   UNL     1      41.511 -10.632   1.412  1.00  0.00    -0.040 SA
BRANCH   9  11
HETATM   11  N   UNL     1      40.964 -12.749   2.834  1.00  0.00    -0.299 N 
HETATM   12  C   UNL     1      42.034 -13.223   3.580  1.00  0.00     0.257 C 
HETATM   13  O   UNL     1      42.645 -12.555   4.408  1.00  0.00    -0.267 OA
HETATM   14  H   UNL     1      40.497 -13.390   2.207  1.00  0.00     0.171 HD
BRANCH  12  15
HETATM   15  C   UNL     1      42.443 -14.620   3.298  1.00  0.00     0.032 A 
HETATM   16  C   UNL     1      42.507 -15.510   4.375  1.00  0.00     0.020 A 
HETATM   17  C   UNL     1      42.949 -16.821   4.179  1.00  0.00     0.038 A 
HETATM   18  C   UNL     1      43.314 -17.252   2.903  1.00  0.00     0.068 A 
HETATM   19  C   UNL     1      43.214 -16.366   1.824  1.00  0.00     0.038 A 
HETATM   20  C   UNL     1      42.784 -15.050   2.014  1.00  0.00     0.020 A 
BRANCH  18  21
HETATM   21  O   UNL     1      43.768 -18.500   2.579  1.00  0.00    -0.351 OA
BRANCH  21  22
HETATM   22  C   UNL     1      44.588 -19.162   3.544  1.00  0.00     0.175 C 
BRANCH  22  23
HETATM   23  C   UNL     1      43.963 -20.521   3.842  1.00  0.00     0.022 C 
HETATM   24  C   UNL     1      43.833 -20.765   5.334  1.00  0.00     0.007 C 
ENDBRANCH  22  23
ENDBRANCH  21  22
ENDBRANCH  18  21
ENDBRANCH  12  15
ENDBRANCH   9  11
ENDBRANCH   7   9
ENDBRANCH   1   7
BRANCH   4  25
HETATM   25  N   UNL     1      39.106  -8.762   8.562  1.00  0.00    -0.378 N 
HETATM   26  C   UNL     1      39.294  -7.303   8.659  1.00  0.00     0.150 C 
HETATM   27  C   UNL     1      40.705  -6.968   9.191  1.00  0.00     0.255 C 
HETATM   28  N   UNL     1      40.962  -7.693  10.516  1.00  0.00    -0.064 N 
HETATM   29  H   UNL     1      40.242  -7.367  11.172  1.00  0.00     0.280 HD
HETATM   30  C   UNL     1      40.781  -9.200  10.352  1.00  0.00     0.255 C 
HETATM   31  C   UNL     1      39.381  -9.518   9.792  1.00  0.00     0.150 C 
BRANCH  28  32
HETATM   32  C   UNL     1      42.300  -7.358  11.124  1.00  0.00     0.273 C 
BRANCH  32  33
HETATM   33  C   UNL     1      43.439  -8.082  10.462  1.00  0.00    -0.033 A 
HETATM   34  C   UNL     1      44.065  -9.164  11.102  1.00  0.00     0.009 A 
HETATM   35  C   UNL     1      45.138  -9.820  10.496  1.00  0.00     0.001 A 
HETATM   36  C   UNL     1      45.593  -9.403   9.247  1.00  0.00     0.000 A 
HETATM   37  C   UNL     1      44.976  -8.336   8.599  1.00  0.00     0.001 A 
HETATM   38  C   UNL     1      43.904  -7.677   9.201  1.00  0.00     0.009 A 
ENDBRANCH  32  33
ENDBRANCH  28  32
ENDBRANCH   4  25
TORSDOF 10
ENDMDL
