MODEL 1
REMARK VINA RESULT:      -8.6      0.000      0.000
REMARK  7 active torsions:
REMARK  status: ('A' for Active; 'I' for Inactive)
REMARK    1  A    between atoms: C_2  and  O_3 
REMARK    2  A    between atoms: O_3  and  C_4 
REMARK    3  A    between atoms: C_5  and  N_6 
REMARK       I    between atoms: N_6  and  C_7 
REMARK    4  A    between atoms: C_7  and  C_8 
REMARK    5  A    between atoms: C_8  and  S_9 
REMARK    6  A    between atoms: S_9  and  C_10 
REMARK    7  A    between atoms: N_11  and  C_12 
ROOT
HETATM    1  C   UNL     1      41.796 -13.713   5.290  1.00  0.00     0.177 A 
HETATM    2  N   UNL     1      42.240 -12.418   4.942  1.00  0.00    -0.276 N 
HETATM    3  C   UNL     1      41.840 -11.895   3.657  1.00  0.00     0.124 A 
HETATM    4  N   UNL     1      42.257 -10.736   3.186  1.00  0.00    -0.384 N 
HETATM    5  H   UNL     1      41.975 -10.413   2.273  1.00  0.00     0.157 HD
HETATM    6  H   UNL     1      42.889 -10.164   3.731  1.00  0.00     0.157 HD
HETATM    7  C   UNL     1      40.986 -12.728   2.873  1.00  0.00     0.081 A 
HETATM    8  C   UNL     1      40.645 -13.983   3.364  1.00  0.00     0.187 A 
HETATM    9  N   UNL     1      39.855 -14.654   2.537  1.00  0.00    -0.153 NA
HETATM   10  N   UNL     1      39.684 -13.803   1.509  1.00  0.00    -0.280 N 
HETATM   11  H   UNL     1      39.092 -14.102   0.739  1.00  0.00     0.189 HD
HETATM   12  C   UNL     1      40.366 -12.613   1.649  1.00  0.00     0.042 A 
HETATM   13  C   UNL     1      40.319 -11.563   0.608  1.00  0.00     0.071 C 
HETATM   14  N   UNL     1      41.066 -14.519   4.574  1.00  0.00    -0.202 NA
ENDROOT
BRANCH   1  15
HETATM   15  S   UNL     1      42.287 -14.409   6.861  1.00  0.00    -0.082 SA
BRANCH  15  16
HETATM   16  C   UNL     1      43.750 -15.346   6.337  1.00  0.00     0.185 C 
BRANCH  16  17
HETATM   17  C   UNL     1      43.365 -16.764   5.945  1.00  0.00     0.232 C 
HETATM   18  N   UNL     1      44.372 -17.426   5.254  1.00  0.00    -0.324 N 
HETATM   19  H   UNL     1      45.317 -17.253   5.571  1.00  0.00     0.169 HD
HETATM   20  O   UNL     1      42.295 -17.274   6.278  1.00  0.00    -0.272 OA
BRANCH  18  21
HETATM   21  C   UNL     1      44.146 -18.614   4.529  1.00  0.00     0.068 A 
HETATM   22  C   UNL     1      43.869 -18.619   3.151  1.00  0.00     0.095 A 
HETATM   23  C   UNL     1      43.676 -19.829   2.479  1.00  0.00     0.039 A 
HETATM   24  C   UNL     1      43.746 -21.035   3.179  1.00  0.00     0.003 A 
HETATM   25  C   UNL     1      44.052 -21.037   4.539  1.00  0.00     0.002 A 
HETATM   26  C   UNL     1      44.272 -19.831   5.209  1.00  0.00     0.032 A 
BRANCH  22  27
HETATM   27  O   UNL     1      44.019 -17.460   2.427  1.00  0.00    -0.349 OA
BRANCH  27  28
HETATM   28  C   UNL     1      42.781 -16.804   2.141  1.00  0.00     0.171 C 
HETATM   29  C   UNL     1      43.039 -15.577   1.288  1.00  0.00     0.034 C 
ENDBRANCH  27  28
ENDBRANCH  22  27
ENDBRANCH  18  21
ENDBRANCH  16  17
ENDBRANCH  15  16
ENDBRANCH   1  15
BRANCH   2  30
HETATM   30  C   UNL     1      43.046 -11.629   5.816  1.00  0.00     0.043 A 
HETATM   31  C   UNL     1      42.460 -10.778   6.766  1.00  0.00     0.031 A 
HETATM   32  C   UNL     1      43.257 -10.068   7.668  1.00  0.00     0.021 A 
HETATM   33  C   UNL     1      44.642 -10.217   7.633  1.00  0.00     0.011 A 
HETATM   34 BR   UNL     1      45.718  -9.269   8.864  1.00  0.00    -0.051 Br
HETATM   35  C   UNL     1      45.239 -11.064   6.702  1.00  0.00     0.021 A 
HETATM   36  C   UNL     1      44.442 -11.768   5.795  1.00  0.00     0.031 A 
ENDBRANCH   2  30
TORSDOF 7
ENDMDL
MODEL 2
REMARK VINA RESULT:      -8.4      3.606      8.087
REMARK  7 active torsions:
REMARK  status: ('A' for Active; 'I' for Inactive)
REMARK    1  A    between atoms: C_2  and  O_3 
REMARK    2  A    between atoms: O_3  and  C_4 
REMARK    3  A    between atoms: C_5  and  N_6 
REMARK       I    between atoms: N_6  and  C_7 
REMARK    4  A    between atoms: C_7  and  C_8 
REMARK    5  A    between atoms: C_8  and  S_9 
REMARK    6  A    between atoms: S_9  and  C_10 
REMARK    7  A    between atoms: N_11  and  C_12 
ROOT
HETATM    1  C   UNL     1      41.061 -14.300   4.836  1.00  0.00     0.177 A 
HETATM    2  N   UNL     1      41.405 -15.113   3.734  1.00  0.00    -0.276 N 
HETATM    3  C   UNL     1      42.185 -16.300   3.995  1.00  0.00     0.124 A 
HETATM    4  N   UNL     1      42.636 -17.092   3.041  1.00  0.00    -0.384 N 
HETATM    5  H   UNL     1      43.199 -17.901   3.260  1.00  0.00     0.157 HD
HETATM    6  H   UNL     1      42.441 -16.882   2.072  1.00  0.00     0.157 HD
HETATM    7  C   UNL     1      42.497 -16.565   5.362  1.00  0.00     0.081 A 
HETATM    8  C   UNL     1      42.083 -15.655   6.329  1.00  0.00     0.187 A 
HETATM    9  N   UNL     1      42.442 -16.017   7.553  1.00  0.00    -0.153 NA
HETATM   10  N   UNL     1      43.085 -17.182   7.359  1.00  0.00    -0.280 N 
HETATM   11  H   UNL     1      43.450 -17.665   8.175  1.00  0.00     0.189 HD
HETATM   12  C   UNL     1      43.166 -17.563   6.035  1.00  0.00     0.042 A 
HETATM   13  C   UNL     1      43.858 -18.804   5.624  1.00  0.00     0.071 C 
HETATM   14  N   UNL     1      41.379 -14.483   6.086  1.00  0.00    -0.202 NA
ENDROOT
BRANCH   1  15
HETATM   15  S   UNL     1      40.116 -12.809   4.557  1.00  0.00    -0.082 SA
BRANCH  15  16
HETATM   16  C   UNL     1      40.495 -11.915   6.090  1.00  0.00     0.185 C 
BRANCH  16  17
HETATM   17  C   UNL     1      41.882 -11.294   6.020  1.00  0.00     0.232 C 
HETATM   18  N   UNL     1      42.650 -11.560   7.145  1.00  0.00    -0.324 N 
HETATM   19  H   UNL     1      42.557 -12.488   7.539  1.00  0.00     0.169 HD
HETATM   20  O   UNL     1      42.282 -10.684   5.029  1.00  0.00    -0.272 OA
BRANCH  18  21
HETATM   21  C   UNL     1      43.832 -10.852   7.448  1.00  0.00     0.068 A 
HETATM   22  C   UNL     1      43.830  -9.667   8.204  1.00  0.00     0.095 A 
HETATM   23  C   UNL     1      45.034  -9.018   8.494  1.00  0.00     0.039 A 
HETATM   24  C   UNL     1      46.240  -9.540   8.019  1.00  0.00     0.003 A 
HETATM   25  C   UNL     1      46.248 -10.732   7.296  1.00  0.00     0.002 A 
HETATM   26  C   UNL     1      45.049 -11.397   7.028  1.00  0.00     0.032 A 
BRANCH  22  27
HETATM   27  O   UNL     1      42.681  -9.279   8.852  1.00  0.00    -0.349 OA
BRANCH  27  28
HETATM   28  C   UNL     1      42.911  -8.809  10.183  1.00  0.00     0.171 C 
HETATM   29  C   UNL     1      42.677  -9.936  11.170  1.00  0.00     0.034 C 
ENDBRANCH  27  28
ENDBRANCH  22  27
ENDBRANCH  18  21
ENDBRANCH  16  17
ENDBRANCH  15  16
ENDBRANCH   1  15
BRANCH   2  30
HETATM   30  C   UNL     1      40.999 -14.802   2.403  1.00  0.00     0.043 A 
HETATM   31  C   UNL     1      41.605 -13.757   1.689  1.00  0.00     0.031 A 
HETATM   32  C   UNL     1      41.253 -13.509   0.359  1.00  0.00     0.021 A 
HETATM   33  C   UNL     1      40.302 -14.315  -0.267  1.00  0.00     0.011 A 
HETATM   34 BR   UNL     1      39.838 -13.990  -2.069  1.00  0.00    -0.051 Br
HETATM   35  C   UNL     1      39.698 -15.362   0.426  1.00  0.00     0.021 A 
HETATM   36  C   UNL     1      40.044 -15.604   1.757  1.00  0.00     0.031 A 
ENDBRANCH   2  30
TORSDOF 7
ENDMDL
MODEL 3
REMARK VINA RESULT:      -8.4      2.796      4.822
REMARK  7 active torsions:
REMARK  status: ('A' for Active; 'I' for Inactive)
REMARK    1  A    between atoms: C_2  and  O_3 
REMARK    2  A    between atoms: O_3  and  C_4 
REMARK    3  A    between atoms: C_5  and  N_6 
REMARK       I    between atoms: N_6  and  C_7 
REMARK    4  A    between atoms: C_7  and  C_8 
REMARK    5  A    between atoms: C_8  and  S_9 
REMARK    6  A    between atoms: S_9  and  C_10 
REMARK    7  A    between atoms: N_11  and  C_12 
ROOT
HETATM    1  C   UNL     1      39.927 -13.827  -0.011  1.00  0.00     0.177 A 
HETATM    2  N   UNL     1      39.743 -12.524   0.504  1.00  0.00    -0.276 N 
HETATM    3  C   UNL     1      38.849 -11.643  -0.209  1.00  0.00     0.124 A 
HETATM    4  N   UNL     1      38.659 -10.381   0.126  1.00  0.00    -0.384 N 
HETATM    5  H   UNL     1      38.044  -9.787  -0.410  1.00  0.00     0.157 HD
HETATM    6  H   UNL     1      39.150  -9.986   0.917  1.00  0.00     0.157 HD
HETATM    7  C   UNL     1      38.195 -12.192  -1.353  1.00  0.00     0.081 A 
HETATM    8  C   UNL     1      38.495 -13.498  -1.728  1.00  0.00     0.187 A 
HETATM    9  N   UNL     1      37.825 -13.881  -2.806  1.00  0.00    -0.153 NA
HETATM   10  N   UNL     1      37.081 -12.803  -3.112  1.00  0.00    -0.280 N 
HETATM   11  H   UNL     1      36.463 -12.866  -3.916  1.00  0.00     0.189 HD
HETATM   12  C   UNL     1      37.276 -11.731  -2.267  1.00  0.00     0.042 A 
HETATM   13  C   UNL     1      36.563 -10.449  -2.460  1.00  0.00     0.071 C 
HETATM   14  N   UNL     1      39.392 -14.338  -1.082  1.00  0.00    -0.202 NA
ENDROOT
BRANCH   1  15
HETATM   15  S   UNL     1      41.043 -14.944   0.826  1.00  0.00    -0.082 SA
BRANCH  15  16
HETATM   16  C   UNL     1      39.896 -15.680   2.026  1.00  0.00     0.185 C 
BRANCH  16  17
HETATM   17  C   UNL     1      40.585 -15.890   3.365  1.00  0.00     0.232 C 
HETATM   18  N   UNL     1      41.872 -15.371   3.398  1.00  0.00    -0.324 N 
HETATM   19  H   UNL     1      42.009 -14.490   2.919  1.00  0.00     0.169 HD
HETATM   20  O   UNL     1      40.015 -16.407   4.326  1.00  0.00    -0.272 OA
BRANCH  18  21
HETATM   21  C   UNL     1      42.805 -15.706   4.401  1.00  0.00     0.068 A 
HETATM   22  C   UNL     1      43.569 -16.887   4.359  1.00  0.00     0.095 A 
HETATM   23  C   UNL     1      44.496 -17.157   5.368  1.00  0.00     0.039 A 
HETATM   24  C   UNL     1      44.656 -16.262   6.428  1.00  0.00     0.003 A 
HETATM   25  C   UNL     1      43.924 -15.076   6.457  1.00  0.00     0.002 A 
HETATM   26  C   UNL     1      43.015 -14.789   5.435  1.00  0.00     0.032 A 
BRANCH  22  27
HETATM   27  O   UNL     1      43.572 -17.650   3.216  1.00  0.00    -0.349 OA
BRANCH  27  28
HETATM   28  C   UNL     1      43.997 -18.998   3.433  1.00  0.00     0.171 C 
HETATM   29  C   UNL     1      43.548 -19.868   2.275  1.00  0.00     0.034 C 
ENDBRANCH  27  28
ENDBRANCH  22  27
ENDBRANCH  18  21
ENDBRANCH  16  17
ENDBRANCH  15  16
ENDBRANCH   1  15
BRANCH   2  30
HETATM   30  C   UNL     1      40.394 -12.077   1.691  1.00  0.00     0.043 A 
HETATM   31  C   UNL     1      39.781 -12.213   2.946  1.00  0.00     0.031 A 
HETATM   32  C   UNL     1      40.458 -11.841   4.111  1.00  0.00     0.021 A 
HETATM   33  C   UNL     1      41.758 -11.345   4.026  1.00  0.00     0.011 A 
HETATM   34 BR   UNL     1      42.680 -10.857   5.601  1.00  0.00    -0.051 Br
HETATM   35  C   UNL     1      42.384 -11.211   2.789  1.00  0.00     0.021 A 
HETATM   36  C   UNL     1      41.703 -11.575   1.624  1.00  0.00     0.031 A 
ENDBRANCH   2  30
TORSDOF 7
ENDMDL
MODEL 4
REMARK VINA RESULT:      -8.2      3.497      6.273
REMARK  7 active torsions:
REMARK  status: ('A' for Active; 'I' for Inactive)
REMARK    1  A    between atoms: C_2  and  O_3 
REMARK    2  A    between atoms: O_3  and  C_4 
REMARK    3  A    between atoms: C_5  and  N_6 
REMARK       I    between atoms: N_6  and  C_7 
REMARK    4  A    between atoms: C_7  and  C_8 
REMARK    5  A    between atoms: C_8  and  S_9 
REMARK    6  A    between atoms: S_9  and  C_10 
REMARK    7  A    between atoms: N_11  and  C_12 
ROOT
HETATM    1  C   UNL     1      39.782 -12.269   0.899  1.00  0.00     0.177 A 
HETATM    2  N   UNL     1      40.030 -13.621   0.571  1.00  0.00    -0.276 N 
HETATM    3  C   UNL     1      39.462 -14.127  -0.656  1.00  0.00     0.124 A 
HETATM    4  N   UNL     1      39.553 -15.389  -1.028  1.00  0.00    -0.384 N 
HETATM    5  H   UNL     1      39.123 -15.712  -1.881  1.00  0.00     0.157 HD
HETATM    6  H   UNL     1      40.040 -16.056  -0.445  1.00  0.00     0.157 HD
HETATM    7  C   UNL     1      38.735 -13.191  -1.452  1.00  0.00     0.081 A 
HETATM    8  C   UNL     1      38.581 -11.892  -0.978  1.00  0.00     0.187 A 
HETATM    9  N   UNL     1      37.883 -11.129  -1.808  1.00  0.00    -0.153 NA
HETATM   10  N   UNL     1      37.600 -11.957  -2.831  1.00  0.00    -0.280 N 
HETATM   11  H   UNL     1      37.068 -11.582  -3.611  1.00  0.00     0.189 HD
HETATM   12  C   UNL     1      38.081 -13.238  -2.662  1.00  0.00     0.042 A 
HETATM   13  C   UNL     1      37.848 -14.296  -3.670  1.00  0.00     0.071 C 
HETATM   14  N   UNL     1      39.077 -11.406   0.225  1.00  0.00    -0.202 NA
ENDROOT
BRANCH   1  15
HETATM   15  S   UNL     1      40.446 -11.606   2.420  1.00  0.00    -0.082 SA
BRANCH  15  16
HETATM   16  C   UNL     1      39.116 -12.072   3.563  1.00  0.00     0.185 C 
BRANCH  16  17
HETATM   17  C   UNL     1      39.691 -12.642   4.850  1.00  0.00     0.232 C 
HETATM   18  N   UNL     1      40.994 -13.101   4.703  1.00  0.00    -0.324 N 
HETATM   19  H   UNL     1      41.597 -12.545   4.110  1.00  0.00     0.169 HD
HETATM   20  O   UNL     1      39.073 -12.623   5.915  1.00  0.00    -0.272 OA
BRANCH  18  21
HETATM   21  C   UNL     1      41.620 -13.936   5.651  1.00  0.00     0.068 A 
HETATM   22  C   UNL     1      42.866 -13.627   6.225  1.00  0.00     0.095 A 
HETATM   23  C   UNL     1      43.430 -14.482   7.176  1.00  0.00     0.039 A 
HETATM   24  C   UNL     1      42.763 -15.651   7.548  1.00  0.00     0.003 A 
HETATM   25  C   UNL     1      41.513 -15.945   7.004  1.00  0.00     0.002 A 
HETATM   26  C   UNL     1      40.934 -15.080   6.073  1.00  0.00     0.032 A 
BRANCH  22  27
HETATM   27  O   UNL     1      43.411 -12.381   6.027  1.00  0.00    -0.349 OA
BRANCH  27  28
HETATM   28  C   UNL     1      44.049 -11.850   7.192  1.00  0.00     0.171 C 
HETATM   29  C   UNL     1      45.464 -11.424   6.849  1.00  0.00     0.034 C 
ENDBRANCH  27  28
ENDBRANCH  22  27
ENDBRANCH  18  21
ENDBRANCH  16  17
ENDBRANCH  15  16
ENDBRANCH   1  15
BRANCH   2  30
HETATM   30  C   UNL     1      40.820 -14.472   1.399  1.00  0.00     0.043 A 
HETATM   31  C   UNL     1      40.226 -15.486   2.166  1.00  0.00     0.031 A 
HETATM   32  C   UNL     1      41.016 -16.363   2.914  1.00  0.00     0.021 A 
HETATM   33  C   UNL     1      42.404 -16.238   2.887  1.00  0.00     0.011 A 
HETATM   34 BR   UNL     1      43.473 -17.433   3.886  1.00  0.00    -0.051 Br
HETATM   35  C   UNL     1      43.009 -15.241   2.125  1.00  0.00     0.021 A 
HETATM   36  C   UNL     1      42.219 -14.360   1.383  1.00  0.00     0.031 A 
ENDBRANCH   2  30
TORSDOF 7
ENDMDL
MODEL 5
REMARK VINA RESULT:      -8.1      2.958      5.183
REMARK  7 active torsions:
REMARK  status: ('A' for Active; 'I' for Inactive)
REMARK    1  A    between atoms: C_2  and  O_3 
REMARK    2  A    between atoms: O_3  and  C_4 
REMARK    3  A    between atoms: C_5  and  N_6 
REMARK       I    between atoms: N_6  and  C_7 
REMARK    4  A    between atoms: C_7  and  C_8 
REMARK    5  A    between atoms: C_8  and  S_9 
REMARK    6  A    between atoms: S_9  and  C_10 
REMARK    7  A    between atoms: N_11  and  C_12 
ROOT
HETATM    1  C   UNL     1      43.519 -11.945   6.675  1.00  0.00     0.177 A 
HETATM    2  N   UNL     1      42.558 -10.939   6.427  1.00  0.00    -0.276 N 
HETATM    3  C   UNL     1      42.586  -9.765   7.266  1.00  0.00     0.124 A 
HETATM    4  N   UNL     1      41.692  -8.798   7.186  1.00  0.00    -0.384 N 
HETATM    5  H   UNL     1      41.730  -8.002   7.805  1.00  0.00     0.157 HD
HETATM    6  H   UNL     1      40.940  -8.857   6.512  1.00  0.00     0.157 HD
HETATM    7  C   UNL     1      43.623  -9.711   8.246  1.00  0.00     0.081 A 
HETATM    8  C   UNL     1      44.488 -10.793   8.362  1.00  0.00     0.187 A 
HETATM    9  N   UNL     1      45.397 -10.617   9.311  1.00  0.00    -0.153 NA
HETATM   10  N   UNL     1      45.108  -9.396   9.797  1.00  0.00    -0.280 N 
HETATM   11  H   UNL     1      45.692  -9.033  10.546  1.00  0.00     0.189 HD
HETATM   12  C   UNL     1      44.021  -8.797   9.196  1.00  0.00     0.042 A 
HETATM   13  C   UNL     1      43.538  -7.463   9.615  1.00  0.00     0.071 C 
HETATM   14  N   UNL     1      44.439 -11.951   7.597  1.00  0.00    -0.202 NA
ENDROOT
BRANCH   1  15
HETATM   15  S   UNL     1      43.507 -13.427   5.677  1.00  0.00    -0.082 SA
BRANCH  15  16
HETATM   16  C   UNL     1      42.748 -14.582   6.853  1.00  0.00     0.185 C 
BRANCH  16  17
HETATM   17  C   UNL     1      42.659 -15.976   6.252  1.00  0.00     0.232 C 
HETATM   18  N   UNL     1      43.667 -16.234   5.333  1.00  0.00    -0.324 N 
HETATM   19  H   UNL     1      44.582 -15.865   5.560  1.00  0.00     0.169 HD
HETATM   20  O   UNL     1      41.814 -16.797   6.610  1.00  0.00    -0.272 OA
BRANCH  18  21
HETATM   21  C   UNL     1      43.620 -17.317   4.431  1.00  0.00     0.068 A 
HETATM   22  C   UNL     1      43.072 -17.204   3.141  1.00  0.00     0.095 A 
HETATM   23  C   UNL     1      43.072 -18.305   2.281  1.00  0.00     0.039 A 
HETATM   24  C   UNL     1      43.606 -19.524   2.706  1.00  0.00     0.003 A 
HETATM   25  C   UNL     1      44.179 -19.631   3.973  1.00  0.00     0.002 A 
HETATM   26  C   UNL     1      44.205 -18.525   4.826  1.00  0.00     0.032 A 
BRANCH  22  27
HETATM   27  O   UNL     1      42.753 -15.962   2.648  1.00  0.00    -0.349 OA
BRANCH  27  28
HETATM   28  C   UNL     1      41.413 -15.871   2.158  1.00  0.00     0.171 C 
HETATM   29  C   UNL     1      40.475 -15.522   3.298  1.00  0.00     0.034 C 
ENDBRANCH  27  28
ENDBRANCH  22  27
ENDBRANCH  18  21
ENDBRANCH  16  17
ENDBRANCH  15  16
ENDBRANCH   1  15
BRANCH   2  30
HETATM   30  C   UNL     1      41.593 -11.051   5.384  1.00  0.00     0.043 A 
HETATM   31  C   UNL     1      41.863 -10.565   4.095  1.00  0.00     0.031 A 
HETATM   32  C   UNL     1      40.941 -10.747   3.061  1.00  0.00     0.021 A 
HETATM   33  C   UNL     1      39.751 -11.430   3.307  1.00  0.00     0.011 A 
HETATM   34 BR   UNL     1      38.512 -11.690   1.905  1.00  0.00    -0.051 Br
HETATM   35  C   UNL     1      39.471 -11.926   4.579  1.00  0.00     0.021 A 
HETATM   36  C   UNL     1      40.389 -11.736   5.614  1.00  0.00     0.031 A 
ENDBRANCH   2  30
TORSDOF 7
ENDMDL
MODEL 6
REMARK VINA RESULT:      -8.0      3.211      7.703
REMARK  7 active torsions:
REMARK  status: ('A' for Active; 'I' for Inactive)
REMARK    1  A    between atoms: C_2  and  O_3 
REMARK    2  A    between atoms: O_3  and  C_4 
REMARK    3  A    between atoms: C_5  and  N_6 
REMARK       I    between atoms: N_6  and  C_7 
REMARK    4  A    between atoms: C_7  and  C_8 
REMARK    5  A    between atoms: C_8  and  S_9 
REMARK    6  A    between atoms: S_9  and  C_10 
REMARK    7  A    between atoms: N_11  and  C_12 
ROOT
HETATM    1  C   UNL     1      43.020 -14.515   5.449  1.00  0.00     0.177 A 
HETATM    2  N   UNL     1      42.613 -14.429   4.099  1.00  0.00    -0.276 N 
HETATM    3  C   UNL     1      42.782 -15.601   3.273  1.00  0.00     0.124 A 
HETATM    4  N   UNL     1      42.517 -15.619   1.981  1.00  0.00    -0.384 N 
HETATM    5  H   UNL     1      42.670 -16.451   1.430  1.00  0.00     0.157 HD
HETATM    6  H   UNL     1      42.177 -14.785   1.521  1.00  0.00     0.157 HD
HETATM    7  C   UNL     1      43.307 -16.761   3.919  1.00  0.00     0.081 A 
HETATM    8  C   UNL     1      43.662 -16.674   5.261  1.00  0.00     0.187 A 
HETATM    9  N   UNL     1      44.140 -17.816   5.734  1.00  0.00    -0.153 NA
HETATM   10  N   UNL     1      44.075 -18.645   4.676  1.00  0.00    -0.280 N 
HETATM   11  H   UNL     1      44.385 -19.604   4.805  1.00  0.00     0.189 HD
HETATM   12  C   UNL     1      43.589 -18.051   3.530  1.00  0.00     0.042 A 
HETATM   13  C   UNL     1      43.468 -18.798   2.259  1.00  0.00     0.071 C 
HETATM   14  N   UNL     1      43.554 -15.538   6.052  1.00  0.00    -0.202 NA
ENDROOT
BRANCH   1  15
HETATM   15  S   UNL     1      42.851 -13.081   6.502  1.00  0.00    -0.082 SA
BRANCH  15  16
HETATM   16  C   UNL     1      44.564 -12.481   6.479  1.00  0.00     0.185 C 
BRANCH  16  17
HETATM   17  C   UNL     1      44.730 -11.301   7.424  1.00  0.00     0.232 C 
HETATM   18  N   UNL     1      43.843 -11.334   8.492  1.00  0.00    -0.324 N 
HETATM   19  H   UNL     1      43.658 -12.247   8.888  1.00  0.00     0.169 HD
HETATM   20  O   UNL     1      45.613 -10.456   7.275  1.00  0.00    -0.272 OA
BRANCH  18  21
HETATM   21  C   UNL     1      43.597 -10.217   9.315  1.00  0.00     0.068 A 
HETATM   22  C   UNL     1      42.599  -9.270   9.026  1.00  0.00     0.095 A 
HETATM   23  C   UNL     1      42.383  -8.193   9.891  1.00  0.00     0.039 A 
HETATM   24  C   UNL     1      43.169  -8.049  11.037  1.00  0.00     0.003 A 
HETATM   25  C   UNL     1      44.138  -9.003  11.343  1.00  0.00     0.002 A 
HETATM   26  C   UNL     1      44.339 -10.095  10.495  1.00  0.00     0.032 A 
BRANCH  22  27
HETATM   27  O   UNL     1      41.688  -9.529   8.031  1.00  0.00    -0.349 OA
BRANCH  27  28
HETATM   28  C   UNL     1      41.830  -8.674   6.893  1.00  0.00     0.171 C 
HETATM   29  C   UNL     1      41.861  -9.510   5.627  1.00  0.00     0.034 C 
ENDBRANCH  27  28
ENDBRANCH  22  27
ENDBRANCH  18  21
ENDBRANCH  16  17
ENDBRANCH  15  16
ENDBRANCH   1  15
BRANCH   2  30
HETATM   30  C   UNL     1      42.042 -13.243   3.551  1.00  0.00     0.043 A 
HETATM   31  C   UNL     1      42.845 -12.279   2.923  1.00  0.00     0.031 A 
HETATM   32  C   UNL     1      42.267 -11.157   2.322  1.00  0.00     0.021 A 
HETATM   33  C   UNL     1      40.881 -11.003   2.334  1.00  0.00     0.011 A 
HETATM   34 BR   UNL     1      40.099  -9.495   1.508  1.00  0.00    -0.051 Br
HETATM   35  C   UNL     1      40.070 -11.955   2.946  1.00  0.00     0.021 A 
HETATM   36  C   UNL     1      40.649 -13.072   3.553  1.00  0.00     0.031 A 
ENDBRANCH   2  30
TORSDOF 7
ENDMDL
MODEL 7
REMARK VINA RESULT:      -8.0      2.908      7.614
REMARK  7 active torsions:
REMARK  status: ('A' for Active; 'I' for Inactive)
REMARK    1  A    between atoms: C_2  and  O_3 
REMARK    2  A    between atoms: O_3  and  C_4 
REMARK    3  A    between atoms: C_5  and  N_6 
REMARK       I    between atoms: N_6  and  C_7 
REMARK    4  A    between atoms: C_7  and  C_8 
REMARK    5  A    between atoms: C_8  and  S_9 
REMARK    6  A    between atoms: S_9  and  C_10 
REMARK    7  A    between atoms: N_11  and  C_12 
ROOT
HETATM    1  C   UNL     1      42.831 -15.810   5.363  1.00  0.00     0.177 A 
HETATM    2  N   UNL     1      42.685 -15.612   3.972  1.00  0.00    -0.276 N 
HETATM    3  C   UNL     1      43.023 -16.712   3.100  1.00  0.00     0.124 A 
HETATM    4  N   UNL     1      43.006 -16.623   1.784  1.00  0.00    -0.384 N 
HETATM    5  H   UNL     1      43.271 -17.407   1.207  1.00  0.00     0.157 HD
HETATM    6  H   UNL     1      42.748 -15.753   1.337  1.00  0.00     0.157 HD
HETATM    7  C   UNL     1      43.431 -17.923   3.737  1.00  0.00     0.081 A 
HETATM    8  C   UNL     1      43.526 -17.947   5.124  1.00  0.00     0.187 A 
HETATM    9  N   UNL     1      43.921 -19.126   5.585  1.00  0.00    -0.153 NA
HETATM   10  N   UNL     1      44.068 -19.864   4.470  1.00  0.00    -0.280 N 
HETATM   11  H   UNL     1      44.361 -20.831   4.577  1.00  0.00     0.189 HD
HETATM   12  C   UNL     1      43.798 -19.177   3.305  1.00  0.00     0.042 A 
HETATM   13  C   UNL     1      43.929 -19.817   1.977  1.00  0.00     0.071 C 
HETATM   14  N   UNL     1      43.256 -16.880   5.971  1.00  0.00    -0.202 NA
ENDROOT
BRANCH   1  15
HETATM   15  S   UNL     1      42.448 -14.467   6.478  1.00  0.00    -0.082 SA
BRANCH  15  16
HETATM   16  C   UNL     1      44.107 -13.760   6.688  1.00  0.00     0.185 C 
BRANCH  16  17
HETATM   17  C   UNL     1      44.061 -12.244   6.576  1.00  0.00     0.232 C 
HETATM   18  N   UNL     1      42.924 -11.694   7.153  1.00  0.00    -0.324 N 
HETATM   19  H   UNL     1      42.609 -12.124   8.014  1.00  0.00     0.169 HD
HETATM   20  O   UNL     1      44.980 -11.590   6.084  1.00  0.00    -0.272 OA
BRANCH  18  21
HETATM   21  C   UNL     1      42.509 -10.368   6.911  1.00  0.00     0.068 A 
HETATM   22  C   UNL     1      42.825  -9.307   7.777  1.00  0.00     0.095 A 
HETATM   23  C   UNL     1      42.407  -8.008   7.475  1.00  0.00     0.039 A 
HETATM   24  C   UNL     1      41.663  -7.765   6.319  1.00  0.00     0.003 A 
HETATM   25  C   UNL     1      41.374  -8.809   5.442  1.00  0.00     0.002 A 
HETATM   26  C   UNL     1      41.814 -10.104   5.726  1.00  0.00     0.032 A 
BRANCH  22  27
HETATM   27  O   UNL     1      43.736  -9.506   8.787  1.00  0.00    -0.349 OA
BRANCH  27  28
HETATM   28  C   UNL     1      44.797  -8.547   8.792  1.00  0.00     0.171 C 
HETATM   29  C   UNL     1      46.039  -9.156   8.170  1.00  0.00     0.034 C 
ENDBRANCH  27  28
ENDBRANCH  22  27
ENDBRANCH  18  21
ENDBRANCH  16  17
ENDBRANCH  15  16
ENDBRANCH   1  15
BRANCH   2  30
HETATM   30  C   UNL     1      42.212 -14.383   3.423  1.00  0.00     0.043 A 
HETATM   31  C   UNL     1      40.839 -14.150   3.255  1.00  0.00     0.031 A 
HETATM   32  C   UNL     1      40.381 -12.914   2.789  1.00  0.00     0.021 A 
HETATM   33  C   UNL     1      41.296 -11.902   2.502  1.00  0.00     0.011 A 
HETATM   34 BR   UNL     1      40.676 -10.227   1.887  1.00  0.00    -0.051 Br
HETATM   35  C   UNL     1      42.662 -12.115   2.671  1.00  0.00     0.021 A 
HETATM   36  C   UNL     1      43.119 -13.353   3.130  1.00  0.00     0.031 A 
ENDBRANCH   2  30
TORSDOF 7
ENDMDL
MODEL 8
REMARK VINA RESULT:      -7.9      2.626      5.990
REMARK  7 active torsions:
REMARK  status: ('A' for Active; 'I' for Inactive)
REMARK    1  A    between atoms: C_2  and  O_3 
REMARK    2  A    between atoms: O_3  and  C_4 
REMARK    3  A    between atoms: C_5  and  N_6 
REMARK       I    between atoms: N_6  and  C_7 
REMARK    4  A    between atoms: C_7  and  C_8 
REMARK    5  A    between atoms: C_8  and  S_9 
REMARK    6  A    between atoms: S_9  and  C_10 
REMARK    7  A    between atoms: N_11  and  C_12 
ROOT
HETATM    1  C   UNL     1      43.188 -13.124   4.020  1.00  0.00     0.177 A 
HETATM    2  N   UNL     1      43.345 -13.247   5.419  1.00  0.00    -0.276 N 
HETATM    3  C   UNL     1      43.339 -14.577   5.978  1.00  0.00     0.124 A 
HETATM    4  N   UNL     1      43.395 -14.817   7.275  1.00  0.00    -0.384 N 
HETATM    5  H   UNL     1      43.365 -15.760   7.631  1.00  0.00     0.157 HD
HETATM    6  H   UNL     1      43.447 -14.049   7.931  1.00  0.00     0.157 HD
HETATM    7  C   UNL     1      43.219 -15.655   5.050  1.00  0.00     0.081 A 
HETATM    8  C   UNL     1      43.067 -15.358   3.700  1.00  0.00     0.187 A 
HETATM    9  N   UNL     1      42.960 -16.446   2.949  1.00  0.00    -0.153 NA
HETATM   10  N   UNL     1      43.058 -17.450   3.839  1.00  0.00    -0.280 N 
HETATM   11  H   UNL     1      43.014 -18.402   3.487  1.00  0.00     0.189 HD
HETATM   12  C   UNL     1      43.201 -17.028   5.145  1.00  0.00     0.042 A 
HETATM   13  C   UNL     1      43.300 -17.989   6.266  1.00  0.00     0.071 C 
HETATM   14  N   UNL     1      43.018 -14.081   3.154  1.00  0.00    -0.202 NA
ENDROOT
BRANCH   1  15
HETATM   15  S   UNL     1      43.166 -11.494   3.286  1.00  0.00    -0.082 SA
BRANCH  15  16
HETATM   16  C   UNL     1      41.376 -11.270   3.091  1.00  0.00     0.185 C 
BRANCH  16  17
HETATM   17  C   UNL     1      40.973 -11.428   1.633  1.00  0.00     0.232 C 
HETATM   18  N   UNL     1      39.794 -12.144   1.473  1.00  0.00    -0.324 N 
HETATM   19  H   UNL     1      39.069 -11.966   2.157  1.00  0.00     0.169 HD
HETATM   20  O   UNL     1      41.604 -10.908   0.713  1.00  0.00    -0.272 OA
BRANCH  18  21
HETATM   21  C   UNL     1      39.387 -12.678   0.233  1.00  0.00     0.068 A 
HETATM   22  C   UNL     1      39.897 -13.886  -0.274  1.00  0.00     0.095 A 
HETATM   23  C   UNL     1      39.441 -14.381  -1.499  1.00  0.00     0.039 A 
HETATM   24  C   UNL     1      38.487 -13.668  -2.228  1.00  0.00     0.003 A 
HETATM   25  C   UNL     1      37.955 -12.486  -1.714  1.00  0.00     0.002 A 
HETATM   26  C   UNL     1      38.389 -12.002  -0.477  1.00  0.00     0.032 A 
BRANCH  22  27
HETATM   27  O   UNL     1      40.661 -14.691   0.537  1.00  0.00    -0.349 OA
BRANCH  27  28
HETATM   28  C   UNL     1      39.950 -15.822   1.048  1.00  0.00     0.171 C 
HETATM   29  C   UNL     1      39.626 -15.601   2.513  1.00  0.00     0.034 C 
ENDBRANCH  27  28
ENDBRANCH  22  27
ENDBRANCH  18  21
ENDBRANCH  16  17
ENDBRANCH  15  16
ENDBRANCH   1  15
BRANCH   2  30
HETATM   30  C   UNL     1      43.519 -12.114   6.267  1.00  0.00     0.043 A 
HETATM   31  C   UNL     1      44.797 -11.721   6.694  1.00  0.00     0.031 A 
HETATM   32  C   UNL     1      44.964 -10.566   7.462  1.00  0.00     0.021 A 
HETATM   33  C   UNL     1      43.855  -9.790   7.795  1.00  0.00     0.011 A 
HETATM   34 BR   UNL     1      44.082  -8.220   8.820  1.00  0.00    -0.051 Br
HETATM   35  C   UNL     1      42.580 -10.162   7.373  1.00  0.00     0.021 A 
HETATM   36  C   UNL     1      42.413 -11.321   6.611  1.00  0.00     0.031 A 
ENDBRANCH   2  30
TORSDOF 7
ENDMDL
MODEL 9
REMARK VINA RESULT:      -7.8      3.610      6.893
REMARK  7 active torsions:
REMARK  status: ('A' for Active; 'I' for Inactive)
REMARK    1  A    between atoms: C_2  and  O_3 
REMARK    2  A    between atoms: O_3  and  C_4 
REMARK    3  A    between atoms: C_5  and  N_6 
REMARK       I    between atoms: N_6  and  C_7 
REMARK    4  A    between atoms: C_7  and  C_8 
REMARK    5  A    between atoms: C_8  and  S_9 
REMARK    6  A    between atoms: S_9  and  C_10 
REMARK    7  A    between atoms: N_11  and  C_12 
ROOT
HETATM    1  C   UNL     1      39.644 -12.761   3.613  1.00  0.00     0.177 A 
HETATM    2  N   UNL     1      40.476 -13.808   3.159  1.00  0.00    -0.276 N 
HETATM    3  C   UNL     1      40.530 -14.053   1.738  1.00  0.00     0.124 A 
HETATM    4  N   UNL     1      41.205 -15.051   1.201  1.00  0.00    -0.384 N 
HETATM    5  H   UNL     1      41.200 -15.205   0.204  1.00  0.00     0.157 HD
HETATM    6  H   UNL     1      41.718 -15.692   1.791  1.00  0.00     0.157 HD
HETATM    7  C   UNL     1      39.764 -13.173   0.914  1.00  0.00     0.081 A 
HETATM    8  C   UNL     1      38.992 -12.191   1.525  1.00  0.00     0.187 A 
HETATM    9  N   UNL     1      38.328 -11.450   0.649  1.00  0.00    -0.153 NA
HETATM   10  N   UNL     1      38.696 -11.964  -0.538  1.00  0.00    -0.280 N 
HETATM   11  H   UNL     1      38.313 -11.540  -1.378  1.00  0.00     0.189 HD
HETATM   12  C   UNL     1      39.562 -13.033  -0.441  1.00  0.00     0.042 A 
HETATM   13  C   UNL     1      40.057 -13.745  -1.639  1.00  0.00     0.071 C 
HETATM   14  N   UNL     1      38.890 -11.980   2.894  1.00  0.00    -0.202 NA
ENDROOT
BRANCH   1  15
HETATM   15  S   UNL     1      39.528 -12.438   5.367  1.00  0.00    -0.082 SA
BRANCH  15  16
HETATM   16  C   UNL     1      40.117 -10.722   5.402  1.00  0.00     0.185 C 
BRANCH  16  17
HETATM   17  C   UNL     1      41.637 -10.677   5.419  1.00  0.00     0.232 C 
HETATM   18  N   UNL     1      42.178 -11.137   6.612  1.00  0.00    -0.324 N 
HETATM   19  H   UNL     1      41.715 -11.932   7.033  1.00  0.00     0.169 HD
HETATM   20  O   UNL     1      42.298 -10.331   4.439  1.00  0.00    -0.272 OA
BRANCH  18  21
HETATM   21  C   UNL     1      43.520 -10.909   6.980  1.00  0.00     0.068 A 
HETATM   22  C   UNL     1      43.878 -10.075   8.054  1.00  0.00     0.095 A 
HETATM   23  C   UNL     1      45.223  -9.903   8.389  1.00  0.00     0.039 A 
HETATM   24  C   UNL     1      46.216 -10.549   7.648  1.00  0.00     0.003 A 
HETATM   25  C   UNL     1      45.863 -11.401   6.603  1.00  0.00     0.002 A 
HETATM   26  C   UNL     1      44.518 -11.597   6.282  1.00  0.00     0.032 A 
BRANCH  22  27
HETATM   27  O   UNL     1      42.905  -9.621   8.912  1.00  0.00    -0.349 OA
BRANCH  27  28
HETATM   28  C   UNL     1      43.165  -9.934  10.283  1.00  0.00     0.171 C 
HETATM   29  C   UNL     1      43.061  -8.674  11.122  1.00  0.00     0.034 C 
ENDBRANCH  27  28
ENDBRANCH  22  27
ENDBRANCH  18  21
ENDBRANCH  16  17
ENDBRANCH  15  16
ENDBRANCH   1  15
BRANCH   2  30
HETATM   30  C   UNL     1      41.255 -14.602   4.052  1.00  0.00     0.043 A 
HETATM   31  C   UNL     1      42.542 -14.200   4.440  1.00  0.00     0.031 A 
HETATM   32  C   UNL     1      43.267 -14.945   5.374  1.00  0.00     0.021 A 
HETATM   33  C   UNL     1      42.701 -16.089   5.935  1.00  0.00     0.011 A 
HETATM   34 BR   UNL     1      43.674 -17.087   7.210  1.00  0.00    -0.051 Br
HETATM   35  C   UNL     1      41.421 -16.497   5.567  1.00  0.00     0.021 A 
HETATM   36  C   UNL     1      40.700 -15.756   4.627  1.00  0.00     0.031 A 
ENDBRANCH   2  30
TORSDOF 7
ENDMDL
MODEL 10
REMARK VINA RESULT:      -7.8      3.067      4.940
REMARK  7 active torsions:
REMARK  status: ('A' for Active; 'I' for Inactive)
REMARK    1  A    between atoms: C_2  and  O_3 
REMARK    2  A    between atoms: O_3  and  C_4 
REMARK    3  A    between atoms: C_5  and  N_6 
REMARK       I    between atoms: N_6  and  C_7 
REMARK    4  A    between atoms: C_7  and  C_8 
REMARK    5  A    between atoms: C_8  and  S_9 
REMARK    6  A    between atoms: S_9  and  C_10 
REMARK    7  A    between atoms: N_11  and  C_12 
ROOT
HETATM    1  C   UNL     1      39.718 -13.511  -0.287  1.00  0.00     0.177 A 
HETATM    2  N   UNL     1      39.409 -12.231   0.224  1.00  0.00    -0.276 N 
HETATM    3  C   UNL     1      38.420 -11.450  -0.480  1.00  0.00     0.124 A 
HETATM    4  N   UNL     1      38.107 -10.212  -0.149  1.00  0.00    -0.384 N 
HETATM    5  H   UNL     1      37.427  -9.688  -0.679  1.00  0.00     0.157 HD
HETATM    6  H   UNL     1      38.567  -9.764   0.632  1.00  0.00     0.157 HD
HETATM    7  C   UNL     1      37.809 -12.072  -1.611  1.00  0.00     0.081 A 
HETATM    8  C   UNL     1      38.235 -13.342  -1.983  1.00  0.00     0.187 A 
HETATM    9  N   UNL     1      37.592 -13.800  -3.049  1.00  0.00    -0.153 NA
HETATM   10  N   UNL     1      36.737 -12.806  -3.349  1.00  0.00    -0.280 N 
HETATM   11  H   UNL     1      36.116 -12.937  -4.143  1.00  0.00     0.189 HD
HETATM   12  C   UNL     1      36.834 -11.713  -2.514  1.00  0.00     0.042 A 
HETATM   13  C   UNL     1      35.991 -10.512  -2.703  1.00  0.00     0.071 C 
HETATM   14  N   UNL     1      39.222 -14.083  -1.347  1.00  0.00    -0.202 NA
ENDROOT
BRANCH   1  15
HETATM   15  S   UNL     1      40.954 -14.503   0.539  1.00  0.00    -0.082 SA
BRANCH  15  16
HETATM   16  C   UNL     1      39.889 -15.439   1.672  1.00  0.00     0.185 C 
BRANCH  16  17
HETATM   17  C   UNL     1      40.716 -16.092   2.768  1.00  0.00     0.232 C 
HETATM   18  N   UNL     1      42.043 -16.280   2.404  1.00  0.00    -0.324 N 
HETATM   19  H   UNL     1      42.464 -15.538   1.860  1.00  0.00     0.169 HD
HETATM   20  O   UNL     1      40.252 -16.355   3.878  1.00  0.00    -0.272 OA
BRANCH  18  21
HETATM   21  C   UNL     1      42.917 -17.129   3.114  1.00  0.00     0.068 A 
HETATM   22  C   UNL     1      43.587 -16.720   4.281  1.00  0.00     0.095 A 
HETATM   23  C   UNL     1      44.424 -17.611   4.957  1.00  0.00     0.039 A 
HETATM   24  C   UNL     1      44.607 -18.906   4.467  1.00  0.00     0.003 A 
HETATM   25  C   UNL     1      43.920 -19.325   3.328  1.00  0.00     0.002 A 
HETATM   26  C   UNL     1      43.061 -18.446   2.665  1.00  0.00     0.032 A 
BRANCH  22  27
HETATM   27  O   UNL     1      43.238 -15.533   4.880  1.00  0.00    -0.349 OA
BRANCH  27  28
HETATM   28  C   UNL     1      43.695 -15.423   6.230  1.00  0.00     0.171 C 
HETATM   29  C   UNL     1      43.720 -13.963   6.643  1.00  0.00     0.034 C 
ENDBRANCH  27  28
ENDBRANCH  22  27
ENDBRANCH  18  21
ENDBRANCH  16  17
ENDBRANCH  15  16
ENDBRANCH   1  15
BRANCH   2  30
HETATM   30  C   UNL     1      40.029 -11.711   1.398  1.00  0.00     0.043 A 
HETATM   31  C   UNL     1      39.452 -11.901   2.663  1.00  0.00     0.031 A 
HETATM   32  C   UNL     1      40.106 -11.454   3.815  1.00  0.00     0.021 A 
HETATM   33  C   UNL     1      41.346 -10.827   3.707  1.00  0.00     0.011 A 
HETATM   34 BR   UNL     1      42.236 -10.237   5.265  1.00  0.00    -0.051 Br
HETATM   35  C   UNL     1      41.935 -10.637   2.460  1.00  0.00     0.021 A 
HETATM   36  C   UNL     1      41.278 -11.077   1.308  1.00  0.00     0.031 A 
ENDBRANCH   2  30
TORSDOF 7
ENDMDL
