MODEL 1
REMARK VINA RESULT:      -9.7      0.000      0.000
REMARK  13 active torsions:
REMARK  status: ('A' for Active; 'I' for Inactive)
REMARK    1  A    between atoms: C_2  and  O_3 
REMARK    2  A    between atoms: O_3  and  C_4 
REMARK    3  A    between atoms: C_5  and  O_6 
REMARK    4  A    between atoms: C_9  and  C_10 
REMARK    5  A    between atoms: N_11  and  C_12 
REMARK    6  A    between atoms: C_12  and  C_13 
REMARK    7  A    between atoms: C_13  and  N_14 
REMARK    8  A    between atoms: C_23  and  O_24 
REMARK    9  A    between atoms: C_25  and  C_26 
REMARK   10  A    between atoms: C_26  and  C_27 
REMARK   11  A    between atoms: C_31  and  O_32 
REMARK   12  A    between atoms: O_32  and  C_33 
REMARK   13  A    between atoms: C_33  and  C_34 
ROOT
HETATM    1  C   UNL     1      42.568 -14.056   4.401  1.00  0.00     0.161 A 
HETATM    2  N   UNL     1      42.208 -15.286   5.093  1.00  0.00    -0.332 N 
HETATM    3  C   UNL     1      42.521 -15.189   6.441  1.00  0.00     0.278 A 
HETATM    4  O   UNL     1      42.424 -16.072   7.273  1.00  0.00    -0.265 OA
HETATM    5  C   UNL     1      43.078 -13.845   6.688  1.00  0.00     0.146 A 
HETATM    6  C   UNL     1      43.142 -13.224   5.504  1.00  0.00     0.059 A 
ENDROOT
BRANCH   6   7
HETATM    7  C   UNL     1      43.708 -11.867   5.303  1.00  0.00     0.194 C 
HETATM    8  O   UNL     1      44.286 -11.543   4.275  1.00  0.00    -0.287 OA
BRANCH   7   9
HETATM    9  C   UNL     1      43.616 -10.909   6.435  1.00  0.00     0.021 A 
HETATM   10  C   UNL     1      44.750 -10.595   7.206  1.00  0.00    -0.045 A 
HETATM   11  C   UNL     1      46.125 -11.089   6.853  1.00  0.00     0.049 C 
HETATM   12  C   UNL     1      44.587  -9.763   8.324  1.00  0.00     0.044 A 
HETATM   13  C   UNL     1      43.331  -9.267   8.683  1.00  0.00     0.069 A 
HETATM   14  C   UNL     1      42.229  -9.520   7.871  1.00  0.00     0.038 A 
HETATM   15  C   UNL     1      42.373 -10.332   6.743  1.00  0.00     0.019 A 
BRANCH  13  16
HETATM   16  O   UNL     1      43.308  -8.514   9.821  1.00  0.00    -0.347 OA
BRANCH  16  17
HETATM   17  C   UNL     1      43.953  -9.081  10.964  1.00  0.00     0.214 C 
BRANCH  17  18
HETATM   18  C   UNL     1      43.149  -8.814  12.217  1.00  0.00    -0.034 A 
HETATM   19  C   UNL     1      42.089  -9.671  12.552  1.00  0.00     0.009 A 
HETATM   20  C   UNL     1      41.356  -9.473  13.725  1.00  0.00     0.001 A 
HETATM   21  C   UNL     1      41.676  -8.421  14.580  1.00  0.00     0.000 A 
HETATM   22  C   UNL     1      42.732  -7.570  14.267  1.00  0.00     0.001 A 
HETATM   23  C   UNL     1      43.467  -7.768  13.097  1.00  0.00     0.009 A 
ENDBRANCH  17  18
ENDBRANCH  16  17
ENDBRANCH  13  16
ENDBRANCH   7   9
ENDBRANCH   6   7
BRANCH   1  24
HETATM   24  C   UNL     1      41.334 -13.479   3.730  1.00  0.00    -0.028 A 
HETATM   25  C   UNL     1      40.348 -12.806   4.479  1.00  0.00     0.012 A 
HETATM   26  C   UNL     1      39.185 -12.344   3.869  1.00  0.00     0.040 A 
HETATM   27  C   UNL     1      39.010 -12.544   2.508  1.00  0.00     0.099 A 
HETATM   28  C   UNL     1      39.983 -13.174   1.727  1.00  0.00     0.102 A 
HETATM   29  C   UNL     1      41.143 -13.646   2.344  1.00  0.00     0.049 A 
BRANCH  27  30
HETATM   30  O   UNL     1      37.845 -12.107   1.944  1.00  0.00    -0.358 OA
HETATM   31  H   UNL     1      37.131 -12.366   2.560  1.00  0.00     0.218 HD
ENDBRANCH  27  30
BRANCH  28  32
HETATM   32  O   UNL     1      39.666 -13.305   0.402  1.00  0.00    -0.349 OA
BRANCH  32  33
HETATM   33  C   UNL     1      39.950 -14.561  -0.214  1.00  0.00     0.171 C 
HETATM   34  C   UNL     1      39.252 -14.583  -1.562  1.00  0.00     0.034 C 
ENDBRANCH  32  33
ENDBRANCH  28  32
ENDBRANCH   1  24
BRANCH   5  35
HETATM   35  O   UNL     1      43.516 -13.430   7.907  1.00  0.00    -0.355 OA
HETATM   36  H   UNL     1      43.255 -14.105   8.562  1.00  0.00     0.218 HD
ENDBRANCH   5  35
BRANCH   2  37
HETATM   37  C   UNL     1      42.273 -16.582   4.425  1.00  0.00     0.155 C 
BRANCH  37  38
HETATM   38  C   UNL     1      43.517 -16.766   3.539  1.00  0.00     0.255 C 
BRANCH  38  39
HETATM   39  N   UNL     1      44.040 -18.193   3.589  1.00  0.00    -0.066 N 
HETATM   40  H   UNL     1      45.043 -18.154   3.353  1.00  0.00     0.280 HD
HETATM   41  C   UNL     1      43.902 -18.846   4.963  1.00  0.00     0.261 C 
HETATM   42  C   UNL     1      44.355 -20.308   4.908  1.00  0.00     0.195 C 
HETATM   43  O   UNL     1      43.606 -21.030   3.928  1.00  0.00    -0.388 OA
HETATM   44  C   UNL     1      43.825 -20.502   2.615  1.00  0.00     0.195 C 
HETATM   45  C   UNL     1      43.348 -19.050   2.527  1.00  0.00     0.261 C 
ENDBRANCH  38  39
ENDBRANCH  37  38
ENDBRANCH   2  37
TORSDOF 13
ENDMDL
MODEL 2
REMARK VINA RESULT:      -9.6      2.759      9.285
REMARK  13 active torsions:
REMARK  status: ('A' for Active; 'I' for Inactive)
REMARK    1  A    between atoms: C_2  and  O_3 
REMARK    2  A    between atoms: O_3  and  C_4 
REMARK    3  A    between atoms: C_5  and  O_6 
REMARK    4  A    between atoms: C_9  and  C_10 
REMARK    5  A    between atoms: N_11  and  C_12 
REMARK    6  A    between atoms: C_12  and  C_13 
REMARK    7  A    between atoms: C_13  and  N_14 
REMARK    8  A    between atoms: C_23  and  O_24 
REMARK    9  A    between atoms: C_25  and  C_26 
REMARK   10  A    between atoms: C_26  and  C_27 
REMARK   11  A    between atoms: C_31  and  O_32 
REMARK   12  A    between atoms: O_32  and  C_33 
REMARK   13  A    between atoms: C_33  and  C_34 
ROOT
HETATM    1  C   UNL     1      40.588 -11.055   5.223  1.00  0.00     0.161 A 
HETATM    2  N   UNL     1      39.602 -10.411   6.080  1.00  0.00    -0.332 N 
HETATM    3  C   UNL     1      38.509  -9.999   5.331  1.00  0.00     0.278 A 
HETATM    4  O   UNL     1      37.555  -9.357   5.731  1.00  0.00    -0.265 OA
HETATM    5  C   UNL     1      38.734 -10.404   3.929  1.00  0.00     0.146 A 
HETATM    6  C   UNL     1      39.948 -10.965   3.874  1.00  0.00     0.059 A 
ENDROOT
BRANCH   6   7
HETATM    7  C   UNL     1      40.586 -11.450   2.626  1.00  0.00     0.194 C 
HETATM    8  O   UNL     1      40.802 -10.717   1.671  1.00  0.00    -0.287 OA
BRANCH   7   9
HETATM    9  C   UNL     1      40.901 -12.900   2.533  1.00  0.00     0.021 A 
HETATM   10  C   UNL     1      42.230 -13.353   2.609  1.00  0.00    -0.045 A 
HETATM   11  C   UNL     1      43.378 -12.435   2.924  1.00  0.00     0.049 C 
HETATM   12  C   UNL     1      42.480 -14.721   2.416  1.00  0.00     0.044 A 
HETATM   13  C   UNL     1      41.444 -15.615   2.135  1.00  0.00     0.069 A 
HETATM   14  C   UNL     1      40.125 -15.171   2.138  1.00  0.00     0.038 A 
HETATM   15  C   UNL     1      39.852 -13.816   2.347  1.00  0.00     0.019 A 
BRANCH  13  16
HETATM   16  O   UNL     1      41.834 -16.905   1.918  1.00  0.00    -0.347 OA
BRANCH  16  17
HETATM   17  C   UNL     1      43.242 -17.152   1.958  1.00  0.00     0.214 C 
BRANCH  17  18
HETATM   18  C   UNL     1      43.539 -18.427   2.716  1.00  0.00    -0.034 A 
HETATM   19  C   UNL     1      43.889 -18.357   4.074  1.00  0.00     0.009 A 
HETATM   20  C   UNL     1      44.128 -19.521   4.809  1.00  0.00     0.001 A 
HETATM   21  C   UNL     1      44.014 -20.768   4.200  1.00  0.00     0.000 A 
HETATM   22  C   UNL     1      43.657 -20.854   2.857  1.00  0.00     0.001 A 
HETATM   23  C   UNL     1      43.415 -19.692   2.121  1.00  0.00     0.009 A 
ENDBRANCH  17  18
ENDBRANCH  16  17
ENDBRANCH  13  16
ENDBRANCH   7   9
ENDBRANCH   6   7
BRANCH   1  24
HETATM   24  C   UNL     1      40.842 -12.465   5.726  1.00  0.00    -0.028 A 
HETATM   25  C   UNL     1      39.792 -13.399   5.830  1.00  0.00     0.012 A 
HETATM   26  C   UNL     1      40.020 -14.667   6.359  1.00  0.00     0.040 A 
HETATM   27  C   UNL     1      41.298 -15.006   6.777  1.00  0.00     0.099 A 
HETATM   28  C   UNL     1      42.370 -14.119   6.654  1.00  0.00     0.102 A 
HETATM   29  C   UNL     1      42.137 -12.845   6.133  1.00  0.00     0.049 A 
BRANCH  27  30
HETATM   30  O   UNL     1      41.483 -16.246   7.321  1.00  0.00    -0.358 OA
HETATM   31  H   UNL     1      41.346 -16.143   8.284  1.00  0.00     0.218 HD
ENDBRANCH  27  30
BRANCH  28  32
HETATM   32  O   UNL     1      43.569 -14.592   7.114  1.00  0.00    -0.349 OA
BRANCH  32  33
HETATM   33  C   UNL     1      44.467 -15.139   6.148  1.00  0.00     0.171 C 
HETATM   34  C   UNL     1      45.030 -16.428   6.718  1.00  0.00     0.034 C 
ENDBRANCH  32  33
ENDBRANCH  28  32
ENDBRANCH   1  24
BRANCH   5  35
HETATM   35  O   UNL     1      37.863 -10.127   2.922  1.00  0.00    -0.355 OA
HETATM   36  H   UNL     1      37.240  -9.448   3.247  1.00  0.00     0.218 HD
ENDBRANCH   5  35
BRANCH   2  37
HETATM   37  C   UNL     1      39.999  -9.649   7.259  1.00  0.00     0.155 C 
BRANCH  37  38
HETATM   38  C   UNL     1      41.458  -9.163   7.226  1.00  0.00     0.255 C 
BRANCH  38  39
HETATM   39  N   UNL     1      42.307  -9.850   8.283  1.00  0.00    -0.066 N 
HETATM   40  H   UNL     1      41.980 -10.826   8.345  1.00  0.00     0.280 HD
HETATM   41  C   UNL     1      43.797  -9.871   7.950  1.00  0.00     0.261 C 
HETATM   42  C   UNL     1      44.596 -10.486   9.103  1.00  0.00     0.195 C 
HETATM   43  O   UNL     1      44.359  -9.768  10.317  1.00  0.00    -0.388 OA
HETATM   44  C   UNL     1      42.984  -9.846  10.706  1.00  0.00     0.195 C 
HETATM   45  C   UNL     1      42.083  -9.199   9.650  1.00  0.00     0.261 C 
ENDBRANCH  38  39
ENDBRANCH  37  38
ENDBRANCH   2  37
TORSDOF 13
ENDMDL
MODEL 3
REMARK VINA RESULT:      -9.5      1.891      4.931
REMARK  13 active torsions:
REMARK  status: ('A' for Active; 'I' for Inactive)
REMARK    1  A    between atoms: C_2  and  O_3 
REMARK    2  A    between atoms: O_3  and  C_4 
REMARK    3  A    between atoms: C_5  and  O_6 
REMARK    4  A    between atoms: C_9  and  C_10 
REMARK    5  A    between atoms: N_11  and  C_12 
REMARK    6  A    between atoms: C_12  and  C_13 
REMARK    7  A    between atoms: C_13  and  N_14 
REMARK    8  A    between atoms: C_23  and  O_24 
REMARK    9  A    between atoms: C_25  and  C_26 
REMARK   10  A    between atoms: C_26  and  C_27 
REMARK   11  A    between atoms: C_31  and  O_32 
REMARK   12  A    between atoms: O_32  and  C_33 
REMARK   13  A    between atoms: C_33  and  C_34 
ROOT
HETATM    1  C   UNL     1      40.767 -13.065   5.145  1.00  0.00     0.161 A 
HETATM    2  N   UNL     1      40.896 -14.376   4.523  1.00  0.00    -0.332 N 
HETATM    3  C   UNL     1      40.151 -14.430   3.354  1.00  0.00     0.278 A 
HETATM    4  O   UNL     1      39.980 -15.405   2.647  1.00  0.00    -0.265 OA
HETATM    5  C   UNL     1      39.524 -13.109   3.148  1.00  0.00     0.146 A 
HETATM    6  C   UNL     1      39.847 -12.353   4.204  1.00  0.00     0.059 A 
ENDROOT
BRANCH   6   7
HETATM    7  C   UNL     1      39.360 -10.968   4.419  1.00  0.00     0.194 C 
HETATM    8  O   UNL     1      38.799 -10.327   3.542  1.00  0.00    -0.287 OA
BRANCH   7   9
HETATM    9  C   UNL     1      39.641 -10.337   5.735  1.00  0.00     0.021 A 
HETATM   10  C   UNL     1      40.649  -9.365   5.866  1.00  0.00    -0.045 A 
HETATM   11  C   UNL     1      41.394  -8.813   4.683  1.00  0.00     0.049 C 
HETATM   12  C   UNL     1      40.940  -8.875   7.148  1.00  0.00     0.044 A 
HETATM   13  C   UNL     1      40.264  -9.347   8.276  1.00  0.00     0.069 A 
HETATM   14  C   UNL     1      39.217 -10.251   8.128  1.00  0.00     0.038 A 
HETATM   15  C   UNL     1      38.898 -10.739   6.857  1.00  0.00     0.019 A 
BRANCH  13  16
HETATM   16  O   UNL     1      40.683  -8.823   9.465  1.00  0.00    -0.347 OA
BRANCH  16  17
HETATM   17  C   UNL     1      40.420  -9.612  10.628  1.00  0.00     0.214 C 
BRANCH  17  18
HETATM   18  C   UNL     1      41.250  -9.131  11.798  1.00  0.00    -0.034 A 
HETATM   19  C   UNL     1      42.463  -8.467  11.556  1.00  0.00     0.009 A 
HETATM   20  C   UNL     1      43.229  -7.976  12.616  1.00  0.00     0.001 A 
HETATM   21  C   UNL     1      42.791  -8.136  13.929  1.00  0.00     0.000 A 
HETATM   22  C   UNL     1      41.585  -8.783  14.183  1.00  0.00     0.001 A 
HETATM   23  C   UNL     1      40.816  -9.272  13.125  1.00  0.00     0.009 A 
ENDBRANCH  17  18
ENDBRANCH  16  17
ENDBRANCH  13  16
ENDBRANCH   7   9
ENDBRANCH   6   7
BRANCH   1  24
HETATM   24  C   UNL     1      42.145 -12.446   5.295  1.00  0.00    -0.028 A 
HETATM   25  C   UNL     1      42.900 -12.070   4.166  1.00  0.00     0.012 A 
HETATM   26  C   UNL     1      44.191 -11.570   4.310  1.00  0.00     0.040 A 
HETATM   27  C   UNL     1      44.727 -11.435   5.582  1.00  0.00     0.099 A 
HETATM   28  C   UNL     1      43.995 -11.763   6.725  1.00  0.00     0.102 A 
HETATM   29  C   UNL     1      42.704 -12.274   6.578  1.00  0.00     0.049 A 
BRANCH  27  30
HETATM   30  O   UNL     1      46.008 -10.971   5.688  1.00  0.00    -0.358 OA
HETATM   31  H   UNL     1      45.936 -10.044   5.989  1.00  0.00     0.218 HD
ENDBRANCH  27  30
BRANCH  28  32
HETATM   32  O   UNL     1      44.658 -11.582   7.908  1.00  0.00    -0.349 OA
BRANCH  32  33
HETATM   33  C   UNL     1      44.135 -10.601   8.805  1.00  0.00     0.171 C 
HETATM   34  C   UNL     1      45.283 -10.098   9.661  1.00  0.00     0.034 C 
ENDBRANCH  32  33
ENDBRANCH  28  32
ENDBRANCH   1  24
BRANCH   5  35
HETATM   35  O   UNL     1      38.700 -12.828   2.103  1.00  0.00    -0.355 OA
HETATM   36  H   UNL     1      37.818 -12.621   2.467  1.00  0.00     0.218 HD
ENDBRANCH   5  35
BRANCH   2  37
HETATM   37  C   UNL     1      41.075 -15.583   5.323  1.00  0.00     0.155 C 
BRANCH  37  38
HETATM   38  C   UNL     1      42.531 -16.070   5.401  1.00  0.00     0.255 C 
BRANCH  38  39
HETATM   39  N   UNL     1      42.752 -17.329   4.576  1.00  0.00    -0.066 N 
HETATM   40  H   UNL     1      41.906 -17.910   4.681  1.00  0.00     0.280 HD
HETATM   41  C   UNL     1      42.957 -17.055   3.088  1.00  0.00     0.261 C 
HETATM   42  C   UNL     1      43.272 -18.356   2.343  1.00  0.00     0.195 C 
HETATM   43  O   UNL     1      44.425 -18.990   2.903  1.00  0.00    -0.388 OA
HETATM   44  C   UNL     1      44.199 -19.363   4.267  1.00  0.00     0.195 C 
HETATM   45  C   UNL     1      43.933 -18.128   5.132  1.00  0.00     0.261 C 
ENDBRANCH  38  39
ENDBRANCH  37  38
ENDBRANCH   2  37
TORSDOF 13
ENDMDL
MODEL 4
REMARK VINA RESULT:      -9.5      2.291      5.351
REMARK  13 active torsions:
REMARK  status: ('A' for Active; 'I' for Inactive)
REMARK    1  A    between atoms: C_2  and  O_3 
REMARK    2  A    between atoms: O_3  and  C_4 
REMARK    3  A    between atoms: C_5  and  O_6 
REMARK    4  A    between atoms: C_9  and  C_10 
REMARK    5  A    between atoms: N_11  and  C_12 
REMARK    6  A    between atoms: C_12  and  C_13 
REMARK    7  A    between atoms: C_13  and  N_14 
REMARK    8  A    between atoms: C_23  and  O_24 
REMARK    9  A    between atoms: C_25  and  C_26 
REMARK   10  A    between atoms: C_26  and  C_27 
REMARK   11  A    between atoms: C_31  and  O_32 
REMARK   12  A    between atoms: O_32  and  C_33 
REMARK   13  A    between atoms: C_33  and  C_34 
ROOT
HETATM    1  C   UNL     1      41.812 -12.049   6.163  1.00  0.00     0.161 A 
HETATM    2  N   UNL     1      41.774 -13.208   5.282  1.00  0.00    -0.332 N 
HETATM    3  C   UNL     1      41.032 -12.923   4.145  1.00  0.00     0.278 A 
HETATM    4  O   UNL     1      40.740 -13.702   3.256  1.00  0.00    -0.265 OA
HETATM    5  C   UNL     1      40.581 -11.521   4.229  1.00  0.00     0.146 A 
HETATM    6  C   UNL     1      40.995 -11.047   5.411  1.00  0.00     0.059 A 
ENDROOT
BRANCH   6   7
HETATM    7  C   UNL     1      40.689  -9.686   5.917  1.00  0.00     0.194 C 
HETATM    8  O   UNL     1      40.652  -8.707   5.186  1.00  0.00    -0.287 OA
BRANCH   7   9
HETATM    9  C   UNL     1      40.495  -9.525   7.382  1.00  0.00     0.021 A 
HETATM   10  C   UNL     1      41.443  -8.840   8.162  1.00  0.00    -0.045 A 
HETATM   11  C   UNL     1      42.617  -8.122   7.557  1.00  0.00     0.049 C 
HETATM   12  C   UNL     1      41.262  -8.804   9.553  1.00  0.00     0.044 A 
HETATM   13  C   UNL     1      40.179  -9.445  10.160  1.00  0.00     0.069 A 
HETATM   14  C   UNL     1      39.205 -10.054   9.375  1.00  0.00     0.038 A 
HETATM   15  C   UNL     1      39.357 -10.086   7.986  1.00  0.00     0.019 A 
BRANCH  13  16
HETATM   16  O   UNL     1      40.152  -9.374  11.524  1.00  0.00    -0.347 OA
BRANCH  16  17
HETATM   17  C   UNL     1      41.325  -9.835  12.200  1.00  0.00     0.214 C 
BRANCH  17  18
HETATM   18  C   UNL     1      41.755  -8.842  13.258  1.00  0.00    -0.034 A 
HETATM   19  C   UNL     1      41.074  -8.803  14.485  1.00  0.00     0.009 A 
HETATM   20  C   UNL     1      41.477  -7.925  15.495  1.00  0.00     0.001 A 
HETATM   21  C   UNL     1      42.567  -7.082  15.295  1.00  0.00     0.000 A 
HETATM   22  C   UNL     1      43.259  -7.117  14.087  1.00  0.00     0.001 A 
HETATM   23  C   UNL     1      42.860  -7.995  13.077  1.00  0.00     0.009 A 
ENDBRANCH  17  18
ENDBRANCH  16  17
ENDBRANCH  13  16
ENDBRANCH   7   9
ENDBRANCH   6   7
BRANCH   1  24
HETATM   24  C   UNL     1      43.258 -11.653   6.405  1.00  0.00    -0.028 A 
HETATM   25  C   UNL     1      44.173 -11.555   5.338  1.00  0.00     0.012 A 
HETATM   26  C   UNL     1      45.513 -11.262   5.576  1.00  0.00     0.040 A 
HETATM   27  C   UNL     1      45.940 -11.058   6.880  1.00  0.00     0.099 A 
HETATM   28  C   UNL     1      45.054 -11.110   7.959  1.00  0.00     0.102 A 
HETATM   29  C   UNL     1      43.713 -11.414   7.718  1.00  0.00     0.049 A 
BRANCH  27  30
HETATM   30  O   UNL     1      47.266 -10.803   7.084  1.00  0.00    -0.358 OA
HETATM   31  H   UNL     1      47.336 -10.436   7.988  1.00  0.00     0.218 HD
ENDBRANCH  27  30
BRANCH  28  32
HETATM   32  O   UNL     1      45.622 -10.893   9.185  1.00  0.00    -0.349 OA
BRANCH  32  33
HETATM   33  C   UNL     1      44.754 -10.473  10.239  1.00  0.00     0.171 C 
HETATM   34  C   UNL     1      44.886  -8.967  10.372  1.00  0.00     0.034 C 
ENDBRANCH  32  33
ENDBRANCH  28  32
ENDBRANCH   1  24
BRANCH   5  35
HETATM   35  O   UNL     1      39.804 -10.927   3.284  1.00  0.00    -0.355 OA
HETATM   36  H   UNL     1      40.110 -11.236   2.410  1.00  0.00     0.218 HD
ENDBRANCH   5  35
BRANCH   2  37
HETATM   37  C   UNL     1      41.794 -14.567   5.811  1.00  0.00     0.155 C 
BRANCH  37  38
HETATM   38  C   UNL     1      43.159 -15.265   5.690  1.00  0.00     0.255 C 
BRANCH  38  39
HETATM   39  N   UNL     1      43.067 -16.551   4.884  1.00  0.00    -0.066 N 
HETATM   40  H   UNL     1      42.162 -16.988   5.115  1.00  0.00     0.280 HD
HETATM   41  C   UNL     1      43.113 -16.329   3.374  1.00  0.00     0.261 C 
HETATM   42  C   UNL     1      43.118 -17.670   2.635  1.00  0.00     0.195 C 
HETATM   43  O   UNL     1      44.221 -18.475   3.061  1.00  0.00    -0.388 OA
HETATM   44  C   UNL     1      44.122 -18.793   4.453  1.00  0.00     0.195 C 
HETATM   45  C   UNL     1      44.171 -17.523   5.306  1.00  0.00     0.261 C 
ENDBRANCH  38  39
ENDBRANCH  37  38
ENDBRANCH   2  37
TORSDOF 13
ENDMDL
MODEL 5
REMARK VINA RESULT:      -9.3      3.539      9.493
REMARK  13 active torsions:
REMARK  status: ('A' for Active; 'I' for Inactive)
REMARK    1  A    between atoms: C_2  and  O_3 
REMARK    2  A    between atoms: O_3  and  C_4 
REMARK    3  A    between atoms: C_5  and  O_6 
REMARK    4  A    between atoms: C_9  and  C_10 
REMARK    5  A    between atoms: N_11  and  C_12 
REMARK    6  A    between atoms: C_12  and  C_13 
REMARK    7  A    between atoms: C_13  and  N_14 
REMARK    8  A    between atoms: C_23  and  O_24 
REMARK    9  A    between atoms: C_25  and  C_26 
REMARK   10  A    between atoms: C_26  and  C_27 
REMARK   11  A    between atoms: C_31  and  O_32 
REMARK   12  A    between atoms: O_32  and  C_33 
REMARK   13  A    between atoms: C_33  and  C_34 
ROOT
HETATM    1  C   UNL     1      40.850 -11.234   4.438  1.00  0.00     0.161 A 
HETATM    2  N   UNL     1      40.329  -9.874   4.419  1.00  0.00    -0.332 N 
HETATM    3  C   UNL     1      39.250  -9.760   5.283  1.00  0.00     0.278 A 
HETATM    4  O   UNL     1      38.541  -8.781   5.434  1.00  0.00    -0.265 OA
HETATM    5  C   UNL     1      39.047 -11.066   5.941  1.00  0.00     0.146 A 
HETATM    6  C   UNL     1      39.940 -11.912   5.414  1.00  0.00     0.059 A 
ENDROOT
BRANCH   6   7
HETATM    7  C   UNL     1      40.028 -13.353   5.757  1.00  0.00     0.194 C 
HETATM    8  O   UNL     1      39.441 -13.836   6.715  1.00  0.00    -0.287 OA
BRANCH   7   9
HETATM    9  C   UNL     1      40.926 -14.203   4.932  1.00  0.00     0.021 A 
HETATM   10  C   UNL     1      42.170 -14.629   5.429  1.00  0.00    -0.045 A 
HETATM   11  C   UNL     1      42.600 -14.375   6.847  1.00  0.00     0.049 C 
HETATM   12  C   UNL     1      43.021 -15.345   4.574  1.00  0.00     0.044 A 
HETATM   13  C   UNL     1      42.658 -15.618   3.252  1.00  0.00     0.069 A 
HETATM   14  C   UNL     1      41.395 -15.259   2.792  1.00  0.00     0.038 A 
HETATM   15  C   UNL     1      40.524 -14.562   3.635  1.00  0.00     0.019 A 
BRANCH  13  16
HETATM   16  O   UNL     1      43.601 -16.276   2.516  1.00  0.00    -0.347 OA
BRANCH  16  17
HETATM   17  C   UNL     1      43.192 -17.518   1.936  1.00  0.00     0.214 C 
BRANCH  17  18
HETATM   18  C   UNL     1      43.549 -18.674   2.845  1.00  0.00    -0.034 A 
HETATM   19  C   UNL     1      43.872 -18.422   4.187  1.00  0.00     0.009 A 
HETATM   20  C   UNL     1      44.165 -19.474   5.058  1.00  0.00     0.001 A 
HETATM   21  C   UNL     1      44.134 -20.790   4.602  1.00  0.00     0.000 A 
HETATM   22  C   UNL     1      43.805 -21.055   3.275  1.00  0.00     0.001 A 
HETATM   23  C   UNL     1      43.509 -20.006   2.404  1.00  0.00     0.009 A 
ENDBRANCH  17  18
ENDBRANCH  16  17
ENDBRANCH  13  16
ENDBRANCH   7   9
ENDBRANCH   6   7
BRANCH   1  24
HETATM   24  C   UNL     1      42.316 -11.202   4.835  1.00  0.00    -0.028 A 
HETATM   25  C   UNL     1      43.327 -11.504   3.902  1.00  0.00     0.012 A 
HETATM   26  C   UNL     1      44.663 -11.542   4.291  1.00  0.00     0.040 A 
HETATM   27  C   UNL     1      44.992 -11.268   5.611  1.00  0.00     0.099 A 
HETATM   28  C   UNL     1      44.019 -10.928   6.553  1.00  0.00     0.102 A 
HETATM   29  C   UNL     1      42.679 -10.901   6.163  1.00  0.00     0.049 A 
BRANCH  27  30
HETATM   30  O   UNL     1      46.308 -11.344   5.969  1.00  0.00    -0.358 OA
HETATM   31  H   UNL     1      46.513 -12.297   6.051  1.00  0.00     0.218 HD
ENDBRANCH  27  30
BRANCH  28  32
HETATM   32  O   UNL     1      44.494 -10.691   7.815  1.00  0.00    -0.349 OA
BRANCH  32  33
HETATM   33  C   UNL     1      44.516  -9.333   8.258  1.00  0.00     0.171 C 
HETATM   34  C   UNL     1      45.936  -9.009   8.683  1.00  0.00     0.034 C 
ENDBRANCH  32  33
ENDBRANCH  28  32
ENDBRANCH   1  24
BRANCH   5  35
HETATM   35  O   UNL     1      38.049 -11.307   6.832  1.00  0.00    -0.355 OA
HETATM   36  H   UNL     1      37.992 -10.537   7.430  1.00  0.00     0.218 HD
ENDBRANCH   5  35
BRANCH   2  37
HETATM   37  C   UNL     1      40.378  -9.057   3.211  1.00  0.00     0.155 C 
BRANCH  37  38
HETATM   38  C   UNL     1      39.689  -9.698   1.995  1.00  0.00     0.255 C 
BRANCH  38  39
HETATM   39  N   UNL     1      40.311  -9.239   0.685  1.00  0.00    -0.066 N 
HETATM   40  H   UNL     1      39.545  -9.165  -0.002  1.00  0.00     0.280 HD
HETATM   41  C   UNL     1      40.995  -7.877   0.779  1.00  0.00     0.261 C 
HETATM   42  C   UNL     1      41.682  -7.531  -0.545  1.00  0.00     0.195 C 
HETATM   43  O   UNL     1      42.623  -8.546  -0.905  1.00  0.00    -0.388 OA
HETATM   44  C   UNL     1      41.972  -9.804  -1.116  1.00  0.00     0.195 C 
HETATM   45  C   UNL     1      41.296 -10.289   0.169  1.00  0.00     0.261 C 
ENDBRANCH  38  39
ENDBRANCH  37  38
ENDBRANCH   2  37
TORSDOF 13
ENDMDL
MODEL 6
REMARK VINA RESULT:      -9.3      2.585      9.608
REMARK  13 active torsions:
REMARK  status: ('A' for Active; 'I' for Inactive)
REMARK    1  A    between atoms: C_2  and  O_3 
REMARK    2  A    between atoms: O_3  and  C_4 
REMARK    3  A    between atoms: C_5  and  O_6 
REMARK    4  A    between atoms: C_9  and  C_10 
REMARK    5  A    between atoms: N_11  and  C_12 
REMARK    6  A    between atoms: C_12  and  C_13 
REMARK    7  A    between atoms: C_13  and  N_14 
REMARK    8  A    between atoms: C_23  and  O_24 
REMARK    9  A    between atoms: C_25  and  C_26 
REMARK   10  A    between atoms: C_26  and  C_27 
REMARK   11  A    between atoms: C_31  and  O_32 
REMARK   12  A    between atoms: O_32  and  C_33 
REMARK   13  A    between atoms: C_33  and  C_34 
ROOT
HETATM    1  C   UNL     1      40.940 -10.149   4.985  1.00  0.00     0.161 A 
HETATM    2  N   UNL     1      39.863  -9.797   5.900  1.00  0.00    -0.332 N 
HETATM    3  C   UNL     1      38.648  -9.781   5.230  1.00  0.00     0.278 A 
HETATM    4  O   UNL     1      37.572  -9.444   5.688  1.00  0.00    -0.265 OA
HETATM    5  C   UNL     1      38.892 -10.168   3.827  1.00  0.00     0.146 A 
HETATM    6  C   UNL     1      40.214 -10.330   3.690  1.00  0.00     0.059 A 
ENDROOT
BRANCH   6   7
HETATM    7  C   UNL     1      40.886 -10.659   2.408  1.00  0.00     0.194 C 
HETATM    8  O   UNL     1      40.893  -9.892   1.456  1.00  0.00    -0.287 OA
BRANCH   7   9
HETATM    9  C   UNL     1      41.504 -12.005   2.281  1.00  0.00     0.021 A 
HETATM   10  C   UNL     1      40.736 -13.115   1.888  1.00  0.00    -0.045 A 
HETATM   11  C   UNL     1      39.305 -12.988   1.445  1.00  0.00     0.049 C 
HETATM   12  C   UNL     1      41.345 -14.379   1.881  1.00  0.00     0.044 A 
HETATM   13  C   UNL     1      42.677 -14.544   2.271  1.00  0.00     0.069 A 
HETATM   14  C   UNL     1      43.451 -13.431   2.584  1.00  0.00     0.038 A 
HETATM   15  C   UNL     1      42.868 -12.160   2.580  1.00  0.00     0.019 A 
BRANCH  13  16
HETATM   16  O   UNL     1      43.127 -15.833   2.266  1.00  0.00    -0.347 OA
BRANCH  16  17
HETATM   17  C   UNL     1      43.359 -16.423   3.548  1.00  0.00     0.214 C 
BRANCH  17  18
HETATM   18  C   UNL     1      43.489 -17.925   3.428  1.00  0.00    -0.034 A 
HETATM   19  C   UNL     1      43.100 -18.559   2.238  1.00  0.00     0.009 A 
HETATM   20  C   UNL     1      43.248 -19.939   2.084  1.00  0.00     0.001 A 
HETATM   21  C   UNL     1      43.791 -20.703   3.115  1.00  0.00     0.000 A 
HETATM   22  C   UNL     1      44.191 -20.088   4.297  1.00  0.00     0.001 A 
HETATM   23  C   UNL     1      44.047 -18.708   4.452  1.00  0.00     0.009 A 
ENDBRANCH  17  18
ENDBRANCH  16  17
ENDBRANCH  13  16
ENDBRANCH   7   9
ENDBRANCH   6   7
BRANCH   1  24
HETATM   24  C   UNL     1      41.654 -11.384   5.506  1.00  0.00    -0.028 A 
HETATM   25  C   UNL     1      40.983 -12.618   5.617  1.00  0.00     0.012 A 
HETATM   26  C   UNL     1      41.623 -13.727   6.162  1.00  0.00     0.040 A 
HETATM   27  C   UNL     1      42.938 -13.609   6.588  1.00  0.00     0.099 A 
HETATM   28  C   UNL     1      43.646 -12.412   6.458  1.00  0.00     0.102 A 
HETATM   29  C   UNL     1      42.998 -11.298   5.920  1.00  0.00     0.049 A 
BRANCH  27  30
HETATM   30  O   UNL     1      43.528 -14.706   7.147  1.00  0.00    -0.358 OA
HETATM   31  H   UNL     1      44.407 -14.412   7.459  1.00  0.00     0.218 HD
ENDBRANCH  27  30
BRANCH  28  32
HETATM   32  O   UNL     1      44.931 -12.446   6.927  1.00  0.00    -0.349 OA
BRANCH  32  33
HETATM   33  C   UNL     1      45.788 -11.365   6.558  1.00  0.00     0.171 C 
HETATM   34  C   UNL     1      46.118 -10.586   7.818  1.00  0.00     0.034 C 
ENDBRANCH  32  33
ENDBRANCH  28  32
ENDBRANCH   1  24
BRANCH   5  35
HETATM   35  O   UNL     1      37.912 -10.226   2.886  1.00  0.00    -0.355 OA
HETATM   36  H   UNL     1      37.522 -11.121   2.917  1.00  0.00     0.218 HD
ENDBRANCH   5  35
BRANCH   2  37
HETATM   37  C   UNL     1      40.082  -8.889   7.021  1.00  0.00     0.155 C 
BRANCH  37  38
HETATM   38  C   UNL     1      40.024  -9.572   8.398  1.00  0.00     0.255 C 
BRANCH  38  39
HETATM   39  N   UNL     1      41.019  -8.963   9.374  1.00  0.00    -0.066 N 
HETATM   40  H   UNL     1      40.978  -7.940   9.247  1.00  0.00     0.280 HD
HETATM   41  C   UNL     1      40.705  -9.271  10.836  1.00  0.00     0.261 C 
HETATM   42  C   UNL     1      41.802  -8.713  11.748  1.00  0.00     0.195 C 
HETATM   43  O   UNL     1      43.078  -9.243  11.383  1.00  0.00    -0.388 OA
HETATM   44  C   UNL     1      43.438  -8.856  10.053  1.00  0.00     0.195 C 
HETATM   45  C   UNL     1      42.441  -9.415   9.035  1.00  0.00     0.261 C 
ENDBRANCH  38  39
ENDBRANCH  37  38
ENDBRANCH   2  37
TORSDOF 13
ENDMDL
MODEL 7
REMARK VINA RESULT:      -9.3      3.693     10.579
REMARK  13 active torsions:
REMARK  status: ('A' for Active; 'I' for Inactive)
REMARK    1  A    between atoms: C_2  and  O_3 
REMARK    2  A    between atoms: O_3  and  C_4 
REMARK    3  A    between atoms: C_5  and  O_6 
REMARK    4  A    between atoms: C_9  and  C_10 
REMARK    5  A    between atoms: N_11  and  C_12 
REMARK    6  A    between atoms: C_12  and  C_13 
REMARK    7  A    between atoms: C_13  and  N_14 
REMARK    8  A    between atoms: C_23  and  O_24 
REMARK    9  A    between atoms: C_25  and  C_26 
REMARK   10  A    between atoms: C_26  and  C_27 
REMARK   11  A    between atoms: C_31  and  O_32 
REMARK   12  A    between atoms: O_32  and  C_33 
REMARK   13  A    between atoms: C_33  and  C_34 
ROOT
HETATM    1  C   UNL     1      41.165  -8.445  10.096  1.00  0.00     0.161 A 
HETATM    2  N   UNL     1      41.120  -8.978  11.450  1.00  0.00    -0.332 N 
HETATM    3  C   UNL     1      40.109  -9.922  11.563  1.00  0.00     0.278 A 
HETATM    4  O   UNL     1      39.757 -10.490  12.580  1.00  0.00    -0.265 OA
HETATM    5  C   UNL     1      39.467 -10.067  10.242  1.00  0.00     0.146 A 
HETATM    6  C   UNL     1      40.050  -9.182   9.424  1.00  0.00     0.059 A 
ENDROOT
BRANCH   6   7
HETATM    7  C   UNL     1      39.648  -8.959   8.013  1.00  0.00     0.194 C 
HETATM    8  O   UNL     1      38.911  -8.042   7.678  1.00  0.00    -0.287 OA
BRANCH   7   9
HETATM    9  C   UNL     1      40.116  -9.942   7.001  1.00  0.00     0.021 A 
HETATM   10  C   UNL     1      41.078  -9.583   6.041  1.00  0.00    -0.045 A 
HETATM   11  C   UNL     1      41.782  -8.255   6.064  1.00  0.00     0.049 C 
HETATM   12  C   UNL     1      41.410 -10.517   5.047  1.00  0.00     0.044 A 
HETATM   13  C   UNL     1      40.793 -11.769   4.994  1.00  0.00     0.069 A 
HETATM   14  C   UNL     1      39.899 -12.144   5.993  1.00  0.00     0.038 A 
HETATM   15  C   UNL     1      39.568 -11.235   7.002  1.00  0.00     0.019 A 
BRANCH  13  16
HETATM   16  O   UNL     1      41.172 -12.559   3.947  1.00  0.00    -0.347 OA
BRANCH  16  17
HETATM   17  C   UNL     1      42.572 -12.832   3.839  1.00  0.00     0.214 C 
BRANCH  17  18
HETATM   18  C   UNL     1      42.803 -14.247   3.358  1.00  0.00    -0.034 A 
HETATM   19  C   UNL     1      43.125 -14.473   2.010  1.00  0.00     0.009 A 
HETATM   20  C   UNL     1      43.385 -15.765   1.547  1.00  0.00     0.001 A 
HETATM   21  C   UNL     1      43.333 -16.846   2.424  1.00  0.00     0.000 A 
HETATM   22  C   UNL     1      43.027 -16.636   3.766  1.00  0.00     0.001 A 
HETATM   23  C   UNL     1      42.769 -15.345   4.231  1.00  0.00     0.009 A 
ENDBRANCH  17  18
ENDBRANCH  16  17
ENDBRANCH  13  16
ENDBRANCH   7   9
ENDBRANCH   6   7
BRANCH   1  24
HETATM   24  C   UNL     1      42.545  -8.684   9.510  1.00  0.00    -0.028 A 
HETATM   25  C   UNL     1      43.406  -7.608   9.216  1.00  0.00     0.012 A 
HETATM   26  C   UNL     1      44.641  -7.832   8.613  1.00  0.00     0.040 A 
HETATM   27  C   UNL     1      45.022  -9.131   8.312  1.00  0.00     0.099 A 
HETATM   28  C   UNL     1      44.210 -10.224   8.623  1.00  0.00     0.102 A 
HETATM   29  C   UNL     1      42.968  -9.997   9.218  1.00  0.00     0.049 A 
BRANCH  27  30
HETATM   30  O   UNL     1      46.226  -9.315   7.692  1.00  0.00    -0.358 OA
HETATM   31  H   UNL     1      46.823  -8.628   8.049  1.00  0.00     0.218 HD
ENDBRANCH  27  30
BRANCH  28  32
HETATM   32  O   UNL     1      44.717 -11.443   8.260  1.00  0.00    -0.349 OA
BRANCH  32  33
HETATM   33  C   UNL     1      44.351 -11.943   6.973  1.00  0.00     0.171 C 
HETATM   34  C   UNL     1      43.588 -13.238   7.180  1.00  0.00     0.034 C 
ENDBRANCH  32  33
ENDBRANCH  28  32
ENDBRANCH   1  24
BRANCH   5  35
HETATM   35  O   UNL     1      38.414 -10.896  10.009  1.00  0.00    -0.355 OA
HETATM   36  H   UNL     1      38.642 -11.774  10.371  1.00  0.00     0.218 HD
ENDBRANCH   5  35
BRANCH   2  37
HETATM   37  C   UNL     1      41.477  -8.159  12.604  1.00  0.00     0.155 C 
BRANCH  37  38
HETATM   38  C   UNL     1      41.367  -6.646  12.352  1.00  0.00     0.255 C 
BRANCH  38  39
HETATM   39  N   UNL     1      40.160  -6.042  13.052  1.00  0.00    -0.066 N 
HETATM   40  H   UNL     1      40.327  -5.026  13.119  1.00  0.00     0.280 HD
HETATM   41  C   UNL     1      38.848  -6.256  12.300  1.00  0.00     0.261 C 
HETATM   42  C   UNL     1      37.670  -5.712  13.113  1.00  0.00     0.195 C 
HETATM   43  O   UNL     1      37.620  -6.328  14.402  1.00  0.00    -0.388 OA
HETATM   44  C   UNL     1      38.794  -6.030  15.164  1.00  0.00     0.195 C 
HETATM   45  C   UNL     1      40.044  -6.587  14.477  1.00  0.00     0.261 C 
ENDBRANCH  38  39
ENDBRANCH  37  38
ENDBRANCH   2  37
TORSDOF 13
ENDMDL
MODEL 8
REMARK VINA RESULT:      -9.2      3.229      9.164
REMARK  13 active torsions:
REMARK  status: ('A' for Active; 'I' for Inactive)
REMARK    1  A    between atoms: C_2  and  O_3 
REMARK    2  A    between atoms: O_3  and  C_4 
REMARK    3  A    between atoms: C_5  and  O_6 
REMARK    4  A    between atoms: C_9  and  C_10 
REMARK    5  A    between atoms: N_11  and  C_12 
REMARK    6  A    between atoms: C_12  and  C_13 
REMARK    7  A    between atoms: C_13  and  N_14 
REMARK    8  A    between atoms: C_23  and  O_24 
REMARK    9  A    between atoms: C_25  and  C_26 
REMARK   10  A    between atoms: C_26  and  C_27 
REMARK   11  A    between atoms: C_31  and  O_32 
REMARK   12  A    between atoms: O_32  and  C_33 
REMARK   13  A    between atoms: C_33  and  C_34 
ROOT
HETATM    1  C   UNL     1      43.609 -10.402   8.335  1.00  0.00     0.161 A 
HETATM    2  N   UNL     1      44.271  -9.748   9.456  1.00  0.00    -0.332 N 
HETATM    3  C   UNL     1      45.632  -9.636   9.212  1.00  0.00     0.278 A 
HETATM    4  O   UNL     1      46.475  -9.216   9.983  1.00  0.00    -0.265 OA
HETATM    5  C   UNL     1      45.907 -10.195   7.874  1.00  0.00     0.146 A 
HETATM    6  C   UNL     1      44.748 -10.672   7.403  1.00  0.00     0.059 A 
ENDROOT
BRANCH   6   7
HETATM    7  C   UNL     1      44.601 -11.379   6.107  1.00  0.00     0.194 C 
HETATM    8  O   UNL     1      45.290 -11.112   5.132  1.00  0.00    -0.287 OA
BRANCH   7   9
HETATM    9  C   UNL     1      43.523 -12.396   5.997  1.00  0.00     0.021 A 
HETATM   10  C   UNL     1      42.400 -12.167   5.183  1.00  0.00    -0.045 A 
HETATM   11  C   UNL     1      42.288 -10.968   4.283  1.00  0.00     0.049 C 
HETATM   12  C   UNL     1      41.365 -13.115   5.192  1.00  0.00     0.044 A 
HETATM   13  C   UNL     1      41.430 -14.252   6.001  1.00  0.00     0.069 A 
HETATM   14  C   UNL     1      42.578 -14.509   6.745  1.00  0.00     0.038 A 
HETATM   15  C   UNL     1      43.629 -13.586   6.735  1.00  0.00     0.019 A 
BRANCH  13  16
HETATM   16  O   UNL     1      40.333 -15.063   5.952  1.00  0.00    -0.347 OA
BRANCH  16  17
HETATM   17  C   UNL     1      40.545 -16.378   5.431  1.00  0.00     0.214 C 
BRANCH  17  18
HETATM   18  C   UNL     1      41.229 -16.313   4.083  1.00  0.00    -0.034 A 
HETATM   19  C   UNL     1      42.540 -16.797   3.951  1.00  0.00     0.009 A 
HETATM   20  C   UNL     1      43.181 -16.788   2.709  1.00  0.00     0.001 A 
HETATM   21  C   UNL     1      42.520 -16.302   1.584  1.00  0.00     0.000 A 
HETATM   22  C   UNL     1      41.215 -15.828   1.698  1.00  0.00     0.001 A 
HETATM   23  C   UNL     1      40.572 -15.839   2.937  1.00  0.00     0.009 A 
ENDBRANCH  17  18
ENDBRANCH  16  17
ENDBRANCH  13  16
ENDBRANCH   7   9
ENDBRANCH   6   7
BRANCH   1  24
HETATM   24  C   UNL     1      42.529  -9.485   7.789  1.00  0.00    -0.028 A 
HETATM   25  C   UNL     1      42.806  -8.137   7.484  1.00  0.00     0.012 A 
HETATM   26  C   UNL     1      41.794  -7.285   7.051  1.00  0.00     0.040 A 
HETATM   27  C   UNL     1      40.505  -7.780   6.913  1.00  0.00     0.099 A 
HETATM   28  C   UNL     1      40.202  -9.119   7.170  1.00  0.00     0.102 A 
HETATM   29  C   UNL     1      41.217  -9.969   7.613  1.00  0.00     0.049 A 
BRANCH  27  30
HETATM   30  O   UNL     1      39.528  -6.911   6.517  1.00  0.00    -0.358 OA
HETATM   31  H   UNL     1      39.272  -7.185   5.614  1.00  0.00     0.218 HD
ENDBRANCH  27  30
BRANCH  28  32
HETATM   32  O   UNL     1      38.888  -9.458   6.995  1.00  0.00    -0.349 OA
BRANCH  32  33
HETATM   33  C   UNL     1      38.612 -10.591   6.170  1.00  0.00     0.171 C 
HETATM   34  C   UNL     1      38.655 -10.131   4.724  1.00  0.00     0.034 C 
ENDBRANCH  32  33
ENDBRANCH  28  32
ENDBRANCH   1  24
BRANCH   5  35
HETATM   35  O   UNL     1      47.154 -10.268   7.335  1.00  0.00    -0.355 OA
HETATM   36  H   UNL     1      47.196  -9.630   6.597  1.00  0.00     0.218 HD
ENDBRANCH   5  35
BRANCH   2  37
HETATM   37  C   UNL     1      43.792  -9.911  10.824  1.00  0.00     0.155 C 
BRANCH  37  38
HETATM   38  C   UNL     1      43.363  -8.597  11.497  1.00  0.00     0.255 C 
BRANCH  38  39
HETATM   39  N   UNL     1      41.969  -8.698  12.097  1.00  0.00    -0.066 N 
HETATM   40  H   UNL     1      41.532  -7.768  12.002  1.00  0.00     0.280 HD
HETATM   41  C   UNL     1      41.074  -9.715  11.394  1.00  0.00     0.261 C 
HETATM   42  C   UNL     1      39.728  -9.833  12.115  1.00  0.00     0.195 C 
HETATM   43  O   UNL     1      39.921 -10.192  13.486  1.00  0.00    -0.388 OA
HETATM   44  C   UNL     1      40.656  -9.183  14.187  1.00  0.00     0.195 C 
HETATM   45  C   UNL     1      42.056  -9.017  13.591  1.00  0.00     0.261 C 
ENDBRANCH  38  39
ENDBRANCH  37  38
ENDBRANCH   2  37
TORSDOF 13
ENDMDL
MODEL 9
REMARK VINA RESULT:      -9.1      1.999      3.014
REMARK  13 active torsions:
REMARK  status: ('A' for Active; 'I' for Inactive)
REMARK    1  A    between atoms: C_2  and  O_3 
REMARK    2  A    between atoms: O_3  and  C_4 
REMARK    3  A    between atoms: C_5  and  O_6 
REMARK    4  A    between atoms: C_9  and  C_10 
REMARK    5  A    between atoms: N_11  and  C_12 
REMARK    6  A    between atoms: C_12  and  C_13 
REMARK    7  A    between atoms: C_13  and  N_14 
REMARK    8  A    between atoms: C_23  and  O_24 
REMARK    9  A    between atoms: C_25  and  C_26 
REMARK   10  A    between atoms: C_26  and  C_27 
REMARK   11  A    between atoms: C_31  and  O_32 
REMARK   12  A    between atoms: O_32  and  C_33 
REMARK   13  A    between atoms: C_33  and  C_34 
ROOT
HETATM    1  C   UNL     1      41.678 -14.418   3.097  1.00  0.00     0.161 A 
HETATM    2  N   UNL     1      41.281 -15.774   3.454  1.00  0.00    -0.332 N 
HETATM    3  C   UNL     1      40.592 -15.772   4.658  1.00  0.00     0.278 A 
HETATM    4  O   UNL     1      40.201 -16.748   5.272  1.00  0.00    -0.265 OA
HETATM    5  C   UNL     1      40.480 -14.375   5.122  1.00  0.00     0.146 A 
HETATM    6  C   UNL     1      41.146 -13.616   4.243  1.00  0.00     0.059 A 
ENDROOT
BRANCH   6   7
HETATM    7  C   UNL     1      41.332 -12.151   4.378  1.00  0.00     0.194 C 
HETATM    8  O   UNL     1      40.664 -11.344   3.746  1.00  0.00    -0.287 OA
BRANCH   7   9
HETATM    9  C   UNL     1      42.423 -11.675   5.268  1.00  0.00     0.021 A 
HETATM   10  C   UNL     1      43.755 -11.646   4.819  1.00  0.00    -0.045 A 
HETATM   11  C   UNL     1      44.133 -11.953   3.396  1.00  0.00     0.049 C 
HETATM   12  C   UNL     1      44.759 -11.283   5.730  1.00  0.00     0.044 A 
HETATM   13  C   UNL     1      44.455 -10.975   7.059  1.00  0.00     0.069 A 
HETATM   14  C   UNL     1      43.127 -10.932   7.474  1.00  0.00     0.038 A 
HETATM   15  C   UNL     1      42.111 -11.272   6.576  1.00  0.00     0.019 A 
BRANCH  13  16
HETATM   16  O   UNL     1      45.531 -10.690   7.849  1.00  0.00    -0.347 OA
BRANCH  16  17
HETATM   17  C   UNL     1      45.763  -9.305   8.121  1.00  0.00     0.214 C 
BRANCH  17  18
HETATM   18  C   UNL     1      44.811  -8.804   9.185  1.00  0.00    -0.034 A 
HETATM   19  C   UNL     1      44.790  -9.429  10.442  1.00  0.00     0.009 A 
HETATM   20  C   UNL     1      43.951  -8.961  11.456  1.00  0.00     0.001 A 
HETATM   21  C   UNL     1      43.128  -7.860  11.231  1.00  0.00     0.000 A 
HETATM   22  C   UNL     1      43.146  -7.224   9.992  1.00  0.00     0.001 A 
HETATM   23  C   UNL     1      43.985  -7.688   8.978  1.00  0.00     0.009 A 
ENDBRANCH  17  18
ENDBRANCH  16  17
ENDBRANCH  13  16
ENDBRANCH   7   9
ENDBRANCH   6   7
BRANCH   1  24
HETATM   24  C   UNL     1      41.097 -14.070   1.738  1.00  0.00    -0.028 A 
HETATM   25  C   UNL     1      40.200 -14.941   1.087  1.00  0.00     0.012 A 
HETATM   26  C   UNL     1      39.728 -14.648  -0.190  1.00  0.00     0.040 A 
HETATM   27  C   UNL     1      40.142 -13.481  -0.814  1.00  0.00     0.099 A 
HETATM   28  C   UNL     1      41.000 -12.576  -0.183  1.00  0.00     0.102 A 
HETATM   29  C   UNL     1      41.480 -12.877   1.093  1.00  0.00     0.049 A 
BRANCH  27  30
HETATM   30  O   UNL     1      39.686 -13.237  -2.078  1.00  0.00    -0.358 OA
HETATM   31  H   UNL     1      39.547 -14.113  -2.490  1.00  0.00     0.218 HD
ENDBRANCH  27  30
BRANCH  28  32
HETATM   32  O   UNL     1      41.325 -11.473  -0.925  1.00  0.00    -0.349 OA
BRANCH  32  33
HETATM   33  C   UNL     1      40.629 -10.262  -0.629  1.00  0.00     0.171 C 
HETATM   34  C   UNL     1      41.579  -9.357   0.133  1.00  0.00     0.034 C 
ENDBRANCH  32  33
ENDBRANCH  28  32
ENDBRANCH   1  24
BRANCH   5  35
HETATM   35  O   UNL     1      39.883 -14.021   6.291  1.00  0.00    -0.355 OA
HETATM   36  H   UNL     1      40.586 -13.883   6.954  1.00  0.00     0.218 HD
ENDBRANCH   5  35
BRANCH   2  37
HETATM   37  C   UNL     1      42.098 -16.927   3.090  1.00  0.00     0.155 C 
BRANCH  37  38
HETATM   38  C   UNL     1      43.429 -17.016   3.854  1.00  0.00     0.255 C 
BRANCH  38  39
HETATM   39  N   UNL     1      44.036 -18.408   3.772  1.00  0.00    -0.066 N 
HETATM   40  H   UNL     1      45.033 -18.289   3.536  1.00  0.00     0.280 HD
HETATM   41  C   UNL     1      43.950 -19.189   5.081  1.00  0.00     0.261 C 
HETATM   42  C   UNL     1      44.488 -20.611   4.893  1.00  0.00     0.195 C 
HETATM   43  O   UNL     1      43.773 -21.285   3.854  1.00  0.00    -0.388 OA
HETATM   44  C   UNL     1      43.948 -20.629   2.594  1.00  0.00     0.195 C 
HETATM   45  C   UNL     1      43.385 -19.206   2.640  1.00  0.00     0.261 C 
ENDBRANCH  38  39
ENDBRANCH  37  38
ENDBRANCH   2  37
TORSDOF 13
ENDMDL
MODEL 10
REMARK VINA RESULT:      -9.1      2.422      4.613
REMARK  13 active torsions:
REMARK  status: ('A' for Active; 'I' for Inactive)
REMARK    1  A    between atoms: C_2  and  O_3 
REMARK    2  A    between atoms: O_3  and  C_4 
REMARK    3  A    between atoms: C_5  and  O_6 
REMARK    4  A    between atoms: C_9  and  C_10 
REMARK    5  A    between atoms: N_11  and  C_12 
REMARK    6  A    between atoms: C_12  and  C_13 
REMARK    7  A    between atoms: C_13  and  N_14 
REMARK    8  A    between atoms: C_23  and  O_24 
REMARK    9  A    between atoms: C_25  and  C_26 
REMARK   10  A    between atoms: C_26  and  C_27 
REMARK   11  A    between atoms: C_31  and  O_32 
REMARK   12  A    between atoms: O_32  and  C_33 
REMARK   13  A    between atoms: C_33  and  C_34 
ROOT
HETATM    1  C   UNL     1      41.459 -12.879   3.998  1.00  0.00     0.161 A 
HETATM    2  N   UNL     1      41.005 -14.244   4.230  1.00  0.00    -0.332 N 
HETATM    3  C   UNL     1      41.851 -14.888   5.121  1.00  0.00     0.278 A 
HETATM    4  O   UNL     1      41.798 -16.057   5.457  1.00  0.00    -0.265 OA
HETATM    5  C   UNL     1      42.892 -13.929   5.541  1.00  0.00     0.146 A 
HETATM    6  C   UNL     1      42.683 -12.799   4.855  1.00  0.00     0.059 A 
ENDROOT
BRANCH   6   7
HETATM    7  C   UNL     1      43.553 -11.600   4.936  1.00  0.00     0.194 C 
HETATM    8  O   UNL     1      44.127 -11.139   3.959  1.00  0.00    -0.287 OA
BRANCH   7   9
HETATM    9  C   UNL     1      43.774 -10.999   6.277  1.00  0.00     0.021 A 
HETATM   10  C   UNL     1      45.041 -11.041   6.884  1.00  0.00    -0.045 A 
HETATM   11  C   UNL     1      46.259 -11.559   6.172  1.00  0.00     0.049 C 
HETATM   12  C   UNL     1      45.171 -10.549   8.192  1.00  0.00     0.044 A 
HETATM   13  C   UNL     1      44.071 -10.044   8.890  1.00  0.00     0.069 A 
HETATM   14  C   UNL     1      42.837  -9.935   8.254  1.00  0.00     0.038 A 
HETATM   15  C   UNL     1      42.691 -10.403   6.945  1.00  0.00     0.019 A 
BRANCH  13  16
HETATM   16  O   UNL     1      44.328  -9.646  10.170  1.00  0.00    -0.347 OA
BRANCH  16  17
HETATM   17  C   UNL     1      43.699  -8.433  10.591  1.00  0.00     0.214 C 
BRANCH  17  18
HETATM   18  C   UNL     1      42.946  -8.644  11.886  1.00  0.00    -0.034 A 
HETATM   19  C   UNL     1      43.276  -7.871  13.010  1.00  0.00     0.009 A 
HETATM   20  C   UNL     1      42.570  -8.015  14.206  1.00  0.00     0.001 A 
HETATM   21  C   UNL     1      41.521  -8.928  14.293  1.00  0.00     0.000 A 
HETATM   22  C   UNL     1      41.174  -9.693  13.183  1.00  0.00     0.001 A 
HETATM   23  C   UNL     1      41.878  -9.549  11.986  1.00  0.00     0.009 A 
ENDBRANCH  17  18
ENDBRANCH  16  17
ENDBRANCH  13  16
ENDBRANCH   7   9
ENDBRANCH   6   7
BRANCH   1  24
HETATM   24  C   UNL     1      40.346 -11.914   4.366  1.00  0.00    -0.028 A 
HETATM   25  C   UNL     1      39.827 -11.008   3.419  1.00  0.00     0.012 A 
HETATM   26  C   UNL     1      38.857 -10.078   3.784  1.00  0.00     0.040 A 
HETATM   27  C   UNL     1      38.397 -10.058   5.092  1.00  0.00     0.099 A 
HETATM   28  C   UNL     1      38.861 -10.965   6.048  1.00  0.00     0.102 A 
HETATM   29  C   UNL     1      39.841 -11.890   5.682  1.00  0.00     0.049 A 
BRANCH  27  30
HETATM   30  O   UNL     1      37.468  -9.113   5.427  1.00  0.00    -0.358 OA
HETATM   31  H   UNL     1      36.826  -9.560   6.014  1.00  0.00     0.218 HD
ENDBRANCH  27  30
BRANCH  28  32
HETATM   32  O   UNL     1      38.319 -10.819   7.296  1.00  0.00    -0.349 OA
BRANCH  32  33
HETATM   33  C   UNL     1      39.229 -10.678   8.388  1.00  0.00     0.171 C 
HETATM   34  C   UNL     1      39.088  -9.266   8.927  1.00  0.00     0.034 C 
ENDBRANCH  32  33
ENDBRANCH  28  32
ENDBRANCH   1  24
BRANCH   5  35
HETATM   35  O   UNL     1      43.902 -14.248   6.394  1.00  0.00    -0.355 OA
HETATM   36  H   UNL     1      44.712 -14.372   5.861  1.00  0.00     0.218 HD
ENDBRANCH   5  35
BRANCH   2  37
HETATM   37  C   UNL     1      40.335 -15.011   3.186  1.00  0.00     0.155 C 
BRANCH  37  38
HETATM   38  C   UNL     1      41.030 -14.940   1.816  1.00  0.00     0.255 C 
BRANCH  38  39
HETATM   39  N   UNL     1      40.265 -14.061   0.838  1.00  0.00    -0.066 N 
HETATM   40  H   UNL     1      39.409 -13.748   1.321  1.00  0.00     0.280 HD
HETATM   41  C   UNL     1      41.039 -12.821   0.398  1.00  0.00     0.261 C 
HETATM   42  C   UNL     1      40.248 -12.043  -0.658  1.00  0.00     0.195 C 
HETATM   43  O   UNL     1      39.951 -12.877  -1.780  1.00  0.00    -0.388 OA
HETATM   44  C   UNL     1      39.120 -13.980  -1.400  1.00  0.00     0.195 C 
HETATM   45  C   UNL     1      39.836 -14.875  -0.384  1.00  0.00     0.261 C 
ENDBRANCH  38  39
ENDBRANCH  37  38
ENDBRANCH   2  37
TORSDOF 13
ENDMDL
