MODEL 1
REMARK VINA RESULT:      -9.8      0.000      0.000
REMARK  7 active torsions:
REMARK  status: ('A' for Active; 'I' for Inactive)
REMARK    1  A    between atoms: C_4  and  C_5 
REMARK    2  A    between atoms: C_5  and  C_6 
REMARK    3  A    between atoms: C_8  and  C_9 
REMARK    4  A    between atoms: C_9  and  C_10 
REMARK       I    between atoms: C_10  and  N_11 
REMARK    5  A    between atoms: N_11  and  N_12 
REMARK       I    between atoms: N_12  and  C_13 
REMARK       I    between atoms: C_13  and  N_14 
REMARK    6  A    between atoms: N_14  and  C_15 
REMARK    7  A    between atoms: C_17  and  C_18 
ROOT
HETATM    1  C   UNL     1      42.129  -9.390   7.511  1.00  0.00     0.238 C 
HETATM    2  N   UNL     1      42.906 -10.405   6.997  1.00  0.00    -0.266 N 
HETATM    3  O   UNL     1      40.931  -9.524   7.753  1.00  0.00    -0.272 OA
HETATM    4  H   UNL     1      43.881 -10.298   6.713  1.00  0.00     0.190 HD
ENDROOT
BRANCH   1   5
HETATM    5  C   UNL     1      42.904  -8.120   7.750  1.00  0.00     0.139 C 
BRANCH   5   6
HETATM    6  C   UNL     1      43.574  -8.108   9.122  1.00  0.00     0.185 C 
HETATM    7  N   UNL     1      42.784  -8.883  10.075  1.00  0.00    -0.363 N 
HETATM    8  C   UNL     1      43.421  -9.592  11.067  1.00  0.00     0.125 C 
HETATM    9  H   UNL     1      41.920  -8.415  10.350  1.00  0.00     0.161 HD
HETATM   10  N   UNL     1      44.685  -9.903  11.056  1.00  0.00    -0.159 NA
HETATM   11  N   UNL     1      45.431  -9.478   9.999  1.00  0.00    -0.244 N 
HETATM   12  C   UNL     1      44.995  -8.661   8.983  1.00  0.00     0.261 C 
HETATM   13  H   UNL     1      46.387  -9.816   9.955  1.00  0.00     0.192 HD
HETATM   14  O   UNL     1      45.739  -8.360   8.050  1.00  0.00    -0.269 OA
BRANCH   8  15
HETATM   15  C   UNL     1      42.591 -10.049  12.261  1.00  0.00     0.118 C 
BRANCH  15  16
HETATM   16  C   UNL     1      42.494  -8.985  13.328  1.00  0.00    -0.051 A 
HETATM   17  C   UNL     1      43.341  -7.870  13.313  1.00  0.00     0.007 A 
HETATM   18  C   UNL     1      43.237  -6.892  14.304  1.00  0.00     0.001 A 
HETATM   19  C   UNL     1      42.289  -7.020  15.318  1.00  0.00     0.000 A 
HETATM   20  C   UNL     1      41.444  -8.126  15.343  1.00  0.00     0.001 A 
HETATM   21  C   UNL     1      41.545  -9.105  14.354  1.00  0.00     0.007 A 
ENDBRANCH  15  16
ENDBRANCH   8  15
ENDBRANCH   5   6
ENDBRANCH   1   5
BRANCH   2  22
HETATM   22  N   UNL     1      42.316 -11.650   6.740  1.00  0.00    -0.249 N 
HETATM   23  C   UNL     1      43.169 -12.670   6.339  1.00  0.00     0.339 C 
HETATM   24  N   UNL     1      42.476 -13.822   6.041  1.00  0.00    -0.308 N 
HETATM   25  O   UNL     1      44.385 -12.507   6.314  1.00  0.00    -0.245 OA
HETATM   26  H   UNL     1      41.493 -13.811   6.274  1.00  0.00     0.170 HD
HETATM   27  H   UNL     1      41.374 -11.604   6.362  1.00  0.00     0.192 HD
BRANCH  24  28
HETATM   28  C   UNL     1      43.002 -15.047   5.588  1.00  0.00     0.037 A 
HETATM   29  C   UNL     1      42.809 -15.550   4.299  1.00  0.00     0.045 A 
HETATM   30  C   UNL     1      43.371 -16.780   3.910  1.00  0.00     0.050 A 
HETATM   31  C   UNL     1      44.120 -17.512   4.842  1.00  0.00     0.016 A 
HETATM   32  C   UNL     1      44.312 -17.021   6.132  1.00  0.00     0.003 A 
HETATM   33  C   UNL     1      43.755 -15.796   6.501  1.00  0.00     0.029 A 
BRANCH  30  34
HETATM   34  C   UNL     1      43.144 -17.327   2.523  1.00  0.00     0.417 C 
HETATM   35  F   UNL     1      41.832 -17.520   2.216  1.00  0.00    -0.166 F 
HETATM   36  F   UNL     1      43.633 -16.508   1.549  1.00  0.00    -0.166 F 
HETATM   37  F   UNL     1      43.755 -18.530   2.336  1.00  0.00    -0.166 F 
ENDBRANCH  30  34
ENDBRANCH  24  28
ENDBRANCH   2  22
TORSDOF 7
ENDMDL
MODEL 2
REMARK VINA RESULT:      -9.6      5.198     11.181
REMARK  7 active torsions:
REMARK  status: ('A' for Active; 'I' for Inactive)
REMARK    1  A    between atoms: C_4  and  C_5 
REMARK    2  A    between atoms: C_5  and  C_6 
REMARK    3  A    between atoms: C_8  and  C_9 
REMARK    4  A    between atoms: C_9  and  C_10 
REMARK       I    between atoms: C_10  and  N_11 
REMARK    5  A    between atoms: N_11  and  N_12 
REMARK       I    between atoms: N_12  and  C_13 
REMARK       I    between atoms: C_13  and  N_14 
REMARK    6  A    between atoms: N_14  and  C_15 
REMARK    7  A    between atoms: C_17  and  C_18 
ROOT
HETATM    1  C   UNL     1      43.021 -12.395   6.074  1.00  0.00     0.238 C 
HETATM    2  N   UNL     1      42.467 -11.351   6.781  1.00  0.00    -0.266 N 
HETATM    3  O   UNL     1      44.100 -12.903   6.370  1.00  0.00    -0.272 OA
HETATM    4  H   UNL     1      41.613 -10.859   6.510  1.00  0.00     0.190 HD
ENDROOT
BRANCH   1   5
HETATM    5  C   UNL     1      42.162 -12.845   4.919  1.00  0.00     0.139 C 
BRANCH   5   6
HETATM    6  C   UNL     1      41.900 -14.348   4.953  1.00  0.00     0.185 C 
HETATM    7  N   UNL     1      43.165 -15.080   4.964  1.00  0.00    -0.363 N 
HETATM    8  C   UNL     1      43.258 -16.264   5.660  1.00  0.00     0.125 C 
HETATM    9  H   UNL     1      43.647 -15.054   4.066  1.00  0.00     0.161 HD
HETATM   10  N   UNL     1      42.421 -16.648   6.579  1.00  0.00    -0.159 NA
HETATM   11  N   UNL     1      41.368 -15.829   6.856  1.00  0.00    -0.244 N 
HETATM   12  C   UNL     1      41.048 -14.674   6.183  1.00  0.00     0.261 C 
HETATM   13  H   UNL     1      40.785 -16.093   7.644  1.00  0.00     0.192 HD
HETATM   14  O   UNL     1      40.092 -13.983   6.532  1.00  0.00    -0.269 OA
BRANCH   8  15
HETATM   15  C   UNL     1      44.424 -17.190   5.333  1.00  0.00     0.118 C 
BRANCH  15  16
HETATM   16  C   UNL     1      44.042 -18.259   4.338  1.00  0.00    -0.051 A 
HETATM   17  C   UNL     1      43.481 -17.923   3.100  1.00  0.00     0.007 A 
HETATM   18  C   UNL     1      43.135 -18.922   2.188  1.00  0.00     0.001 A 
HETATM   19  C   UNL     1      43.344 -20.263   2.505  1.00  0.00     0.000 A 
HETATM   20  C   UNL     1      43.899 -20.607   3.735  1.00  0.00     0.001 A 
HETATM   21  C   UNL     1      44.245 -19.612   4.648  1.00  0.00     0.007 A 
ENDBRANCH  15  16
ENDBRANCH   8  15
ENDBRANCH   5   6
ENDBRANCH   1   5
BRANCH   2  22
HETATM   22  N   UNL     1      43.153 -10.841   7.892  1.00  0.00    -0.249 N 
HETATM   23  C   UNL     1      42.518  -9.832   8.603  1.00  0.00     0.339 C 
HETATM   24  N   UNL     1      43.312  -9.354   9.622  1.00  0.00    -0.308 N 
HETATM   25  O   UNL     1      41.374  -9.484   8.327  1.00  0.00    -0.245 OA
HETATM   26  H   UNL     1      44.161  -9.875   9.793  1.00  0.00     0.170 HD
HETATM   27  H   UNL     1      44.165 -10.832   7.799  1.00  0.00     0.192 HD
BRANCH  24  28
HETATM   28  C   UNL     1      43.010  -8.326  10.536  1.00  0.00     0.037 A 
HETATM   29  C   UNL     1      42.879  -8.520  11.913  1.00  0.00     0.045 A 
HETATM   30  C   UNL     1      42.584  -7.445  12.771  1.00  0.00     0.050 A 
HETATM   31  C   UNL     1      42.403  -6.167  12.224  1.00  0.00     0.016 A 
HETATM   32  C   UNL     1      42.526  -5.965  10.851  1.00  0.00     0.003 A 
HETATM   33  C   UNL     1      42.827  -7.040  10.013  1.00  0.00     0.029 A 
BRANCH  30  34
HETATM   34  C   UNL     1      42.425  -7.664  14.255  1.00  0.00     0.417 C 
HETATM   35  F   UNL     1      43.374  -7.041  15.007  1.00  0.00    -0.166 F 
HETATM   36  F   UNL     1      41.227  -7.215  14.727  1.00  0.00    -0.166 F 
HETATM   37  F   UNL     1      42.484  -8.982  14.591  1.00  0.00    -0.166 F 
ENDBRANCH  30  34
ENDBRANCH  24  28
ENDBRANCH   2  22
TORSDOF 7
ENDMDL
MODEL 3
REMARK VINA RESULT:      -9.5      4.836     10.405
REMARK  7 active torsions:
REMARK  status: ('A' for Active; 'I' for Inactive)
REMARK    1  A    between atoms: C_4  and  C_5 
REMARK    2  A    between atoms: C_5  and  C_6 
REMARK    3  A    between atoms: C_8  and  C_9 
REMARK    4  A    between atoms: C_9  and  C_10 
REMARK       I    between atoms: C_10  and  N_11 
REMARK    5  A    between atoms: N_11  and  N_12 
REMARK       I    between atoms: N_12  and  C_13 
REMARK       I    between atoms: C_13  and  N_14 
REMARK    6  A    between atoms: N_14  and  C_15 
REMARK    7  A    between atoms: C_17  and  C_18 
ROOT
HETATM    1  C   UNL     1      42.348 -12.140   3.423  1.00  0.00     0.238 C 
HETATM    2  N   UNL     1      41.739 -12.292   4.649  1.00  0.00    -0.266 N 
HETATM    3  O   UNL     1      43.568 -12.174   3.275  1.00  0.00    -0.272 OA
HETATM    4  H   UNL     1      40.736 -12.190   4.812  1.00  0.00     0.190 HD
ENDROOT
BRANCH   1   5
HETATM    5  C   UNL     1      41.364 -11.943   2.299  1.00  0.00     0.139 C 
BRANCH   5   6
HETATM    6  C   UNL     1      40.955 -13.267   1.658  1.00  0.00     0.185 C 
HETATM    7  N   UNL     1      42.067 -14.213   1.701  1.00  0.00    -0.363 N 
HETATM    8  C   UNL     1      41.811 -15.555   1.861  1.00  0.00     0.125 C 
HETATM    9  H   UNL     1      42.814 -13.979   1.046  1.00  0.00     0.161 HD
HETATM   10  N   UNL     1      40.688 -16.045   2.299  1.00  0.00    -0.159 NA
HETATM   11  N   UNL     1      39.690 -15.168   2.598  1.00  0.00    -0.244 N 
HETATM   12  C   UNL     1      39.723 -13.809   2.388  1.00  0.00     0.261 C 
HETATM   13  H   UNL     1      38.861 -15.557   3.035  1.00  0.00     0.192 HD
HETATM   14  O   UNL     1      38.780 -13.094   2.725  1.00  0.00    -0.269 OA
BRANCH   8  15
HETATM   15  C   UNL     1      42.920 -16.539   1.504  1.00  0.00     0.118 C 
BRANCH  15  16
HETATM   16  C   UNL     1      43.350 -17.368   2.690  1.00  0.00    -0.051 A 
HETATM   17  C   UNL     1      43.495 -18.757   2.584  1.00  0.00     0.007 A 
HETATM   18  C   UNL     1      43.897 -19.511   3.688  1.00  0.00     0.001 A 
HETATM   19  C   UNL     1      44.154 -18.885   4.907  1.00  0.00     0.000 A 
HETATM   20  C   UNL     1      44.009 -17.506   5.024  1.00  0.00     0.001 A 
HETATM   21  C   UNL     1      43.609 -16.750   3.922  1.00  0.00     0.007 A 
ENDBRANCH  15  16
ENDBRANCH   8  15
ENDBRANCH   5   6
ENDBRANCH   1   5
BRANCH   2  22
HETATM   22  N   UNL     1      42.536 -12.499   5.784  1.00  0.00    -0.249 N 
HETATM   23  C   UNL     1      42.791 -11.387   6.574  1.00  0.00     0.339 C 
HETATM   24  N   UNL     1      43.643 -11.688   7.614  1.00  0.00    -0.308 N 
HETATM   25  O   UNL     1      42.259 -10.306   6.339  1.00  0.00    -0.245 OA
HETATM   26  H   UNL     1      43.850 -12.669   7.735  1.00  0.00     0.170 HD
HETATM   27  H   UNL     1      43.248 -13.216   5.678  1.00  0.00     0.192 HD
BRANCH  24  28
HETATM   28  C   UNL     1      44.134 -10.814   8.602  1.00  0.00     0.037 A 
HETATM   29  C   UNL     1      43.429 -10.468   9.758  1.00  0.00     0.045 A 
HETATM   30  C   UNL     1      43.984  -9.594  10.710  1.00  0.00     0.050 A 
HETATM   31  C   UNL     1      45.257  -9.053  10.479  1.00  0.00     0.016 A 
HETATM   32  C   UNL     1      45.964  -9.387   9.326  1.00  0.00     0.003 A 
HETATM   33  C   UNL     1      45.404 -10.262   8.394  1.00  0.00     0.029 A 
BRANCH  30  34
HETATM   34  C   UNL     1      43.211  -9.210  11.947  1.00  0.00     0.417 C 
HETATM   35  F   UNL     1      41.982  -8.685  11.686  1.00  0.00    -0.166 F 
HETATM   36  F   UNL     1      42.991 -10.267  12.778  1.00  0.00    -0.166 F 
HETATM   37  F   UNL     1      43.866  -8.280  12.697  1.00  0.00    -0.166 F 
ENDBRANCH  30  34
ENDBRANCH  24  28
ENDBRANCH   2  22
TORSDOF 7
ENDMDL
MODEL 4
REMARK VINA RESULT:      -9.3      2.859      4.173
REMARK  7 active torsions:
REMARK  status: ('A' for Active; 'I' for Inactive)
REMARK    1  A    between atoms: C_4  and  C_5 
REMARK    2  A    between atoms: C_5  and  C_6 
REMARK    3  A    between atoms: C_8  and  C_9 
REMARK    4  A    between atoms: C_9  and  C_10 
REMARK       I    between atoms: C_10  and  N_11 
REMARK    5  A    between atoms: N_11  and  N_12 
REMARK       I    between atoms: N_12  and  C_13 
REMARK       I    between atoms: C_13  and  N_14 
REMARK    6  A    between atoms: N_14  and  C_15 
REMARK    7  A    between atoms: C_17  and  C_18 
ROOT
HETATM    1  C   UNL     1      39.194 -10.948   6.905  1.00  0.00     0.238 C 
HETATM    2  N   UNL     1      40.306 -11.721   6.657  1.00  0.00    -0.266 N 
HETATM    3  O   UNL     1      38.049 -11.395   6.873  1.00  0.00    -0.272 OA
HETATM    4  H   UNL     1      41.259 -11.359   6.599  1.00  0.00     0.190 HD
ENDROOT
BRANCH   1   5
HETATM    5  C   UNL     1      39.534  -9.515   7.225  1.00  0.00     0.139 C 
BRANCH   5   6
HETATM    6  C   UNL     1      39.816  -9.312   8.711  1.00  0.00     0.185 C 
HETATM    7  N   UNL     1      41.216  -9.612   9.004  1.00  0.00    -0.363 N 
HETATM    8  C   UNL     1      41.873  -8.897   9.979  1.00  0.00     0.125 C 
HETATM    9  H   UNL     1      41.425 -10.610   8.969  1.00  0.00     0.161 HD
HETATM   10  N   UNL     1      41.469  -7.756  10.457  1.00  0.00    -0.159 NA
HETATM   11  N   UNL     1      40.303  -7.246   9.973  1.00  0.00    -0.244 N 
HETATM   12  C   UNL     1      39.454  -7.874   9.091  1.00  0.00     0.261 C 
HETATM   13  H   UNL     1      40.056  -6.311  10.279  1.00  0.00     0.192 HD
HETATM   14  O   UNL     1      38.437  -7.314   8.685  1.00  0.00    -0.269 OA
BRANCH   8  15
HETATM   15  C   UNL     1      43.167  -9.479  10.537  1.00  0.00     0.118 C 
BRANCH  15  16
HETATM   16  C   UNL     1      44.181  -9.759   9.454  1.00  0.00    -0.051 A 
HETATM   17  C   UNL     1      45.166  -8.819   9.129  1.00  0.00     0.007 A 
HETATM   18  C   UNL     1      46.099  -9.093   8.127  1.00  0.00     0.001 A 
HETATM   19  C   UNL     1      46.054 -10.305   7.440  1.00  0.00     0.000 A 
HETATM   20  C   UNL     1      45.076 -11.245   7.754  1.00  0.00     0.001 A 
HETATM   21  C   UNL     1      44.143 -10.974   8.755  1.00  0.00     0.007 A 
ENDBRANCH  15  16
ENDBRANCH   8  15
ENDBRANCH   5   6
ENDBRANCH   1   5
BRANCH   2  22
HETATM   22  N   UNL     1      40.138 -13.081   6.360  1.00  0.00    -0.249 N 
HETATM   23  C   UNL     1      41.296 -13.827   6.191  1.00  0.00     0.339 C 
HETATM   24  N   UNL     1      41.014 -15.125   5.829  1.00  0.00    -0.308 N 
HETATM   25  O   UNL     1      42.402 -13.336   6.395  1.00  0.00    -0.245 OA
HETATM   26  H   UNL     1      40.038 -15.385   5.865  1.00  0.00     0.170 HD
HETATM   27  H   UNL     1      39.315 -13.295   5.804  1.00  0.00     0.192 HD
BRANCH  24  28
HETATM   28  C   UNL     1      41.930 -16.159   5.557  1.00  0.00     0.037 A 
HETATM   29  C   UNL     1      42.262 -16.589   4.269  1.00  0.00     0.045 A 
HETATM   30  C   UNL     1      43.194 -17.624   4.069  1.00  0.00     0.050 A 
HETATM   31  C   UNL     1      43.780 -18.239   5.185  1.00  0.00     0.016 A 
HETATM   32  C   UNL     1      43.450 -17.821   6.472  1.00  0.00     0.003 A 
HETATM   33  C   UNL     1      42.530 -16.788   6.655  1.00  0.00     0.029 A 
BRANCH  30  34
HETATM   34  C   UNL     1      43.534 -18.096   2.678  1.00  0.00     0.417 C 
HETATM   35  F   UNL     1      44.699 -18.797   2.605  1.00  0.00    -0.166 F 
HETATM   36  F   UNL     1      42.578 -18.914   2.153  1.00  0.00    -0.166 F 
HETATM   37  F   UNL     1      43.661 -17.064   1.799  1.00  0.00    -0.166 F 
ENDBRANCH  30  34
ENDBRANCH  24  28
ENDBRANCH   2  22
TORSDOF 7
ENDMDL
MODEL 5
REMARK VINA RESULT:      -9.3      2.672      3.317
REMARK  7 active torsions:
REMARK  status: ('A' for Active; 'I' for Inactive)
REMARK    1  A    between atoms: C_4  and  C_5 
REMARK    2  A    between atoms: C_5  and  C_6 
REMARK    3  A    between atoms: C_8  and  C_9 
REMARK    4  A    between atoms: C_9  and  C_10 
REMARK       I    between atoms: C_10  and  N_11 
REMARK    5  A    between atoms: N_11  and  N_12 
REMARK       I    between atoms: N_12  and  C_13 
REMARK       I    between atoms: C_13  and  N_14 
REMARK    6  A    between atoms: N_14  and  C_15 
REMARK    7  A    between atoms: C_17  and  C_18 
ROOT
HETATM    1  C   UNL     1      39.375 -10.908   6.956  1.00  0.00     0.238 C 
HETATM    2  N   UNL     1      40.472 -11.717   6.761  1.00  0.00    -0.266 N 
HETATM    3  O   UNL     1      38.225 -11.275   6.721  1.00  0.00    -0.272 OA
HETATM    4  H   UNL     1      41.440 -11.412   6.871  1.00  0.00     0.190 HD
ENDROOT
BRANCH   1   5
HETATM    5  C   UNL     1      39.735  -9.546   7.492  1.00  0.00     0.139 C 
BRANCH   5   6
HETATM    6  C   UNL     1      39.402  -9.409   8.975  1.00  0.00     0.185 C 
HETATM    7  N   UNL     1      40.565  -9.760   9.787  1.00  0.00    -0.363 N 
HETATM    8  C   UNL     1      40.787  -9.102  10.975  1.00  0.00     0.125 C 
HETATM    9  H   UNL     1      40.760 -10.761   9.792  1.00  0.00     0.161 HD
HETATM   10  N   UNL     1      40.238  -7.969  11.305  1.00  0.00    -0.159 NA
HETATM   11  N   UNL     1      39.367  -7.407  10.421  1.00  0.00    -0.244 N 
HETATM   12  C   UNL     1      38.935  -7.977   9.246  1.00  0.00     0.261 C 
HETATM   13  H   UNL     1      39.029  -6.478  10.647  1.00  0.00     0.192 HD
HETATM   14  O   UNL     1      38.170  -7.372   8.495  1.00  0.00    -0.269 OA
BRANCH   8  15
HETATM   15  C   UNL     1      41.743  -9.741  11.975  1.00  0.00     0.118 C 
BRANCH  15  16
HETATM   16  C   UNL     1      42.025  -8.839  13.152  1.00  0.00    -0.051 A 
HETATM   17  C   UNL     1      43.073  -7.910  13.113  1.00  0.00     0.007 A 
HETATM   18  C   UNL     1      43.320  -7.080  14.208  1.00  0.00     0.001 A 
HETATM   19  C   UNL     1      42.526  -7.171  15.350  1.00  0.00     0.000 A 
HETATM   20  C   UNL     1      41.484  -8.093  15.399  1.00  0.00     0.001 A 
HETATM   21  C   UNL     1      41.234  -8.924  14.307  1.00  0.00     0.007 A 
ENDBRANCH  15  16
ENDBRANCH   8  15
ENDBRANCH   5   6
ENDBRANCH   1   5
BRANCH   2  22
HETATM   22  N   UNL     1      40.281 -13.019   6.279  1.00  0.00    -0.249 N 
HETATM   23  C   UNL     1      41.307 -13.553   5.511  1.00  0.00     0.339 C 
HETATM   24  N   UNL     1      40.981 -14.801   5.028  1.00  0.00    -0.308 N 
HETATM   25  O   UNL     1      42.363 -12.948   5.355  1.00  0.00    -0.245 OA
HETATM   26  H   UNL     1      40.129 -15.201   5.395  1.00  0.00     0.170 HD
HETATM   27  H   UNL     1      39.316 -13.256   6.064  1.00  0.00     0.192 HD
BRANCH  24  28
HETATM   28  C   UNL     1      41.763 -15.634   4.205  1.00  0.00     0.037 A 
HETATM   29  C   UNL     1      42.453 -16.759   4.665  1.00  0.00     0.045 A 
HETATM   30  C   UNL     1      43.211 -17.553   3.784  1.00  0.00     0.050 A 
HETATM   31  C   UNL     1      43.282 -17.193   2.431  1.00  0.00     0.016 A 
HETATM   32  C   UNL     1      42.602 -16.069   1.966  1.00  0.00     0.003 A 
HETATM   33  C   UNL     1      41.848 -15.296   2.849  1.00  0.00     0.029 A 
BRANCH  30  34
HETATM   34  C   UNL     1      43.968 -18.756   4.290  1.00  0.00     0.417 C 
HETATM   35  F   UNL     1      43.722 -19.052   5.595  1.00  0.00    -0.166 F 
HETATM   36  F   UNL     1      43.678 -19.891   3.592  1.00  0.00    -0.166 F 
HETATM   37  F   UNL     1      45.317 -18.595   4.189  1.00  0.00    -0.166 F 
ENDBRANCH  30  34
ENDBRANCH  24  28
ENDBRANCH   2  22
TORSDOF 7
ENDMDL
MODEL 6
REMARK VINA RESULT:      -9.3      6.317      9.850
REMARK  7 active torsions:
REMARK  status: ('A' for Active; 'I' for Inactive)
REMARK    1  A    between atoms: C_4  and  C_5 
REMARK    2  A    between atoms: C_5  and  C_6 
REMARK    3  A    between atoms: C_8  and  C_9 
REMARK    4  A    between atoms: C_9  and  C_10 
REMARK       I    between atoms: C_10  and  N_11 
REMARK    5  A    between atoms: N_11  and  N_12 
REMARK       I    between atoms: N_12  and  C_13 
REMARK       I    between atoms: C_13  and  N_14 
REMARK    6  A    between atoms: N_14  and  C_15 
REMARK    7  A    between atoms: C_17  and  C_18 
ROOT
HETATM    1  C   UNL     1      41.034 -15.037   4.548  1.00  0.00     0.238 C 
HETATM    2  N   UNL     1      41.627 -13.950   3.945  1.00  0.00    -0.266 N 
HETATM    3  O   UNL     1      40.766 -16.073   3.941  1.00  0.00    -0.272 OA
HETATM    4  H   UNL     1      41.787 -13.052   4.404  1.00  0.00     0.190 HD
ENDROOT
BRANCH   1   5
HETATM    5  C   UNL     1      40.766 -14.823   6.015  1.00  0.00     0.139 C 
BRANCH   5   6
HETATM    6  C   UNL     1      41.862 -15.424   6.891  1.00  0.00     0.185 C 
HETATM    7  N   UNL     1      42.163 -16.787   6.457  1.00  0.00    -0.363 N 
HETATM    8  C   UNL     1      43.451 -17.259   6.551  1.00  0.00     0.125 C 
HETATM    9  H   UNL     1      41.428 -17.452   6.696  1.00  0.00     0.161 HD
HETATM   10  N   UNL     1      44.505 -16.509   6.694  1.00  0.00    -0.159 NA
HETATM   11  N   UNL     1      44.314 -15.163   6.778  1.00  0.00    -0.244 N 
HETATM   12  C   UNL     1      43.097 -14.523   6.825  1.00  0.00     0.261 C 
HETATM   13  H   UNL     1      45.149 -14.587   6.785  1.00  0.00     0.192 HD
HETATM   14  O   UNL     1      43.029 -13.295   6.866  1.00  0.00    -0.269 OA
BRANCH   8  15
HETATM   15  C   UNL     1      43.663 -18.768   6.480  1.00  0.00     0.118 C 
BRANCH  15  16
HETATM   16  C   UNL     1      43.739 -19.267   5.058  1.00  0.00    -0.051 A 
HETATM   17  C   UNL     1      43.676 -18.378   3.978  1.00  0.00     0.007 A 
HETATM   18  C   UNL     1      43.751 -18.854   2.667  1.00  0.00     0.001 A 
HETATM   19  C   UNL     1      43.887 -20.220   2.425  1.00  0.00     0.000 A 
HETATM   20  C   UNL     1      43.947 -21.112   3.492  1.00  0.00     0.001 A 
HETATM   21  C   UNL     1      43.872 -20.639   4.802  1.00  0.00     0.007 A 
ENDBRANCH  15  16
ENDBRANCH   8  15
ENDBRANCH   5   6
ENDBRANCH   1   5
BRANCH   2  22
HETATM   22  N   UNL     1      41.947 -14.018   2.582  1.00  0.00    -0.249 N 
HETATM   23  C   UNL     1      41.015 -13.491   1.699  1.00  0.00     0.339 C 
HETATM   24  N   UNL     1      41.396 -13.679   0.389  1.00  0.00    -0.308 N 
HETATM   25  O   UNL     1      40.015 -12.907   2.105  1.00  0.00    -0.245 OA
HETATM   26  H   UNL     1      42.329 -14.040   0.255  1.00  0.00     0.170 HD
HETATM   27  H   UNL     1      42.491 -14.833   2.313  1.00  0.00     0.192 HD
BRANCH  24  28
HETATM   28  C   UNL     1      40.697 -13.295  -0.772  1.00  0.00     0.037 A 
HETATM   29  C   UNL     1      39.747 -14.096  -1.412  1.00  0.00     0.045 A 
HETATM   30  C   UNL     1      39.079 -13.646  -2.565  1.00  0.00     0.050 A 
HETATM   31  C   UNL     1      39.390 -12.381  -3.083  1.00  0.00     0.016 A 
HETATM   32  C   UNL     1      40.341 -11.578  -2.455  1.00  0.00     0.003 A 
HETATM   33  C   UNL     1      40.989 -12.034  -1.307  1.00  0.00     0.029 A 
BRANCH  30  34
HETATM   34  C   UNL     1      38.069 -14.522  -3.262  1.00  0.00     0.417 C 
HETATM   35  F   UNL     1      38.299 -14.673  -4.596  1.00  0.00    -0.166 F 
HETATM   36  F   UNL     1      38.027 -15.785  -2.750  1.00  0.00    -0.166 F 
HETATM   37  F   UNL     1      36.801 -14.037  -3.152  1.00  0.00    -0.166 F 
ENDBRANCH  30  34
ENDBRANCH  24  28
ENDBRANCH   2  22
TORSDOF 7
ENDMDL
MODEL 7
REMARK VINA RESULT:      -9.1      1.755      2.782
REMARK  7 active torsions:
REMARK  status: ('A' for Active; 'I' for Inactive)
REMARK    1  A    between atoms: C_4  and  C_5 
REMARK    2  A    between atoms: C_5  and  C_6 
REMARK    3  A    between atoms: C_8  and  C_9 
REMARK    4  A    between atoms: C_9  and  C_10 
REMARK       I    between atoms: C_10  and  N_11 
REMARK    5  A    between atoms: N_11  and  N_12 
REMARK       I    between atoms: N_12  and  C_13 
REMARK       I    between atoms: C_13  and  N_14 
REMARK    6  A    between atoms: N_14  and  C_15 
REMARK    7  A    between atoms: C_17  and  C_18 
ROOT
HETATM    1  C   UNL     1      42.586 -10.040   7.631  1.00  0.00     0.238 C 
HETATM    2  N   UNL     1      42.182 -11.255   7.124  1.00  0.00    -0.266 N 
HETATM    3  O   UNL     1      43.748  -9.806   7.956  1.00  0.00    -0.272 OA
HETATM    4  H   UNL     1      41.212 -11.502   6.921  1.00  0.00     0.190 HD
ENDROOT
BRANCH   1   5
HETATM    5  C   UNL     1      41.462  -9.041   7.731  1.00  0.00     0.139 C 
BRANCH   5   6
HETATM    6  C   UNL     1      40.450  -9.425   8.808  1.00  0.00     0.185 C 
HETATM    7  N   UNL     1      41.133  -9.673  10.075  1.00  0.00    -0.363 N 
HETATM    8  C   UNL     1      40.509  -9.346  11.257  1.00  0.00     0.125 C 
HETATM    9  H   UNL     1      41.661 -10.546  10.079  1.00  0.00     0.161 HD
HETATM   10  N   UNL     1      39.492  -8.541  11.357  1.00  0.00    -0.159 NA
HETATM   11  N   UNL     1      38.998  -8.001  10.208  1.00  0.00    -0.244 N 
HETATM   12  C   UNL     1      39.414  -8.305   8.933  1.00  0.00     0.261 C 
HETATM   13  H   UNL     1      38.275  -7.297  10.313  1.00  0.00     0.192 HD
HETATM   14  O   UNL     1      38.927  -7.735   7.957  1.00  0.00    -0.269 OA
BRANCH   8  15
HETATM   15  C   UNL     1      41.047  -9.969  12.541  1.00  0.00     0.118 C 
BRANCH  15  16
HETATM   16  C   UNL     1      41.623  -8.935  13.478  1.00  0.00    -0.051 A 
HETATM   17  C   UNL     1      41.090  -8.746  14.759  1.00  0.00     0.007 A 
HETATM   18  C   UNL     1      41.635  -7.788  15.616  1.00  0.00     0.001 A 
HETATM   19  C   UNL     1      42.715  -7.011  15.201  1.00  0.00     0.000 A 
HETATM   20  C   UNL     1      43.250  -7.189  13.928  1.00  0.00     0.001 A 
HETATM   21  C   UNL     1      42.707  -8.145  13.070  1.00  0.00     0.007 A 
ENDBRANCH  15  16
ENDBRANCH   8  15
ENDBRANCH   5   6
ENDBRANCH   1   5
BRANCH   2  22
HETATM   22  N   UNL     1      43.130 -12.275   6.962  1.00  0.00    -0.249 N 
HETATM   23  C   UNL     1      42.736 -13.376   6.214  1.00  0.00     0.339 C 
HETATM   24  N   UNL     1      43.713 -14.345   6.185  1.00  0.00    -0.308 N 
HETATM   25  O   UNL     1      41.649 -13.399   5.644  1.00  0.00    -0.245 OA
HETATM   26  H   UNL     1      44.602 -14.078   6.583  1.00  0.00     0.170 HD
HETATM   27  H   UNL     1      43.757 -12.401   7.752  1.00  0.00     0.192 HD
BRANCH  24  28
HETATM   28  C   UNL     1      43.662 -15.597   5.543  1.00  0.00     0.037 A 
HETATM   29  C   UNL     1      43.202 -15.786   4.237  1.00  0.00     0.045 A 
HETATM   30  C   UNL     1      43.186 -17.066   3.653  1.00  0.00     0.050 A 
HETATM   31  C   UNL     1      43.623 -18.164   4.407  1.00  0.00     0.016 A 
HETATM   32  C   UNL     1      44.076 -17.986   5.712  1.00  0.00     0.003 A 
HETATM   33  C   UNL     1      44.095 -16.710   6.276  1.00  0.00     0.029 A 
BRANCH  30  34
HETATM   34  C   UNL     1      42.671 -17.266   2.250  1.00  0.00     0.417 C 
HETATM   35  F   UNL     1      43.312 -16.510   1.316  1.00  0.00    -0.166 F 
HETATM   36  F   UNL     1      42.791 -18.556   1.826  1.00  0.00    -0.166 F 
HETATM   37  F   UNL     1      41.348 -16.961   2.137  1.00  0.00    -0.166 F 
ENDBRANCH  30  34
ENDBRANCH  24  28
ENDBRANCH   2  22
TORSDOF 7
ENDMDL
MODEL 8
REMARK VINA RESULT:      -9.1      4.769     10.433
REMARK  7 active torsions:
REMARK  status: ('A' for Active; 'I' for Inactive)
REMARK    1  A    between atoms: C_4  and  C_5 
REMARK    2  A    between atoms: C_5  and  C_6 
REMARK    3  A    between atoms: C_8  and  C_9 
REMARK    4  A    between atoms: C_9  and  C_10 
REMARK       I    between atoms: C_10  and  N_11 
REMARK    5  A    between atoms: N_11  and  N_12 
REMARK       I    between atoms: N_12  and  C_13 
REMARK       I    between atoms: C_13  and  N_14 
REMARK    6  A    between atoms: N_14  and  C_15 
REMARK    7  A    between atoms: C_17  and  C_18 
ROOT
HETATM    1  C   UNL     1      43.589 -12.273   5.321  1.00  0.00     0.238 C 
HETATM    2  N   UNL     1      43.639 -11.216   6.202  1.00  0.00    -0.266 N 
HETATM    3  O   UNL     1      43.562 -13.446   5.687  1.00  0.00    -0.272 OA
HETATM    4  H   UNL     1      43.741 -10.238   5.925  1.00  0.00     0.190 HD
ENDROOT
BRANCH   1   5
HETATM    5  C   UNL     1      43.560 -11.835   3.879  1.00  0.00     0.139 C 
BRANCH   5   6
HETATM    6  C   UNL     1      42.354 -12.403   3.133  1.00  0.00     0.185 C 
HETATM    7  N   UNL     1      42.539 -13.831   2.889  1.00  0.00    -0.363 N 
HETATM    8  C   UNL     1      41.448 -14.669   2.905  1.00  0.00     0.125 C 
HETATM    9  H   UNL     1      43.237 -14.025   2.171  1.00  0.00     0.161 HD
HETATM   10  N   UNL     1      40.295 -14.371   3.431  1.00  0.00    -0.159 NA
HETATM   11  N   UNL     1      40.155 -13.134   3.985  1.00  0.00    -0.244 N 
HETATM   12  C   UNL     1      41.092 -12.128   3.954  1.00  0.00     0.261 C 
HETATM   13  H   UNL     1      39.288 -12.956   4.480  1.00  0.00     0.192 HD
HETATM   14  O   UNL     1      40.883 -11.053   4.516  1.00  0.00    -0.269 OA
BRANCH   8  15
HETATM   15  C   UNL     1      41.597 -16.044   2.264  1.00  0.00     0.118 C 
BRANCH  15  16
HETATM   16  C   UNL     1      42.560 -16.925   3.023  1.00  0.00    -0.051 A 
HETATM   17  C   UNL     1      43.201 -18.001   2.396  1.00  0.00     0.007 A 
HETATM   18  C   UNL     1      44.091 -18.805   3.110  1.00  0.00     0.001 A 
HETATM   19  C   UNL     1      44.348 -18.543   4.455  1.00  0.00     0.000 A 
HETATM   20  C   UNL     1      43.713 -17.478   5.088  1.00  0.00     0.001 A 
HETATM   21  C   UNL     1      42.823 -16.673   4.377  1.00  0.00     0.007 A 
ENDBRANCH  15  16
ENDBRANCH   8  15
ENDBRANCH   5   6
ENDBRANCH   1   5
BRANCH   2  22
HETATM   22  N   UNL     1      43.655 -11.477   7.579  1.00  0.00    -0.249 N 
HETATM   23  C   UNL     1      43.253 -10.442   8.412  1.00  0.00     0.339 C 
HETATM   24  N   UNL     1      43.382 -10.781   9.740  1.00  0.00    -0.308 N 
HETATM   25  O   UNL     1      42.812  -9.393   7.952  1.00  0.00    -0.245 OA
HETATM   26  H   UNL     1      43.614 -11.748   9.922  1.00  0.00     0.170 HD
HETATM   27  H   UNL     1      44.389 -12.112   7.882  1.00  0.00     0.192 HD
BRANCH  24  28
HETATM   28  C   UNL     1      43.089  -9.983  10.863  1.00  0.00     0.037 A 
HETATM   29  C   UNL     1      41.934 -10.121  11.637  1.00  0.00     0.045 A 
HETATM   30  C   UNL     1      41.708  -9.294  12.753  1.00  0.00     0.050 A 
HETATM   31  C   UNL     1      42.652  -8.308  13.073  1.00  0.00     0.016 A 
HETATM   32  C   UNL     1      43.803  -8.160  12.302  1.00  0.00     0.003 A 
HETATM   33  C   UNL     1      44.018  -8.993  11.204  1.00  0.00     0.029 A 
BRANCH  30  34
HETATM   34  C   UNL     1      40.451  -9.435  13.574  1.00  0.00     0.417 C 
HETATM   35  F   UNL     1      40.611  -9.104  14.885  1.00  0.00    -0.166 F 
HETATM   36  F   UNL     1      39.434  -8.650  13.117  1.00  0.00    -0.166 F 
HETATM   37  F   UNL     1      39.968 -10.708  13.565  1.00  0.00    -0.166 F 
ENDBRANCH  30  34
ENDBRANCH  24  28
ENDBRANCH   2  22
TORSDOF 7
ENDMDL
MODEL 9
REMARK VINA RESULT:      -9.1      3.403      4.752
REMARK  7 active torsions:
REMARK  status: ('A' for Active; 'I' for Inactive)
REMARK    1  A    between atoms: C_4  and  C_5 
REMARK    2  A    between atoms: C_5  and  C_6 
REMARK    3  A    between atoms: C_8  and  C_9 
REMARK    4  A    between atoms: C_9  and  C_10 
REMARK       I    between atoms: C_10  and  N_11 
REMARK    5  A    between atoms: N_11  and  N_12 
REMARK       I    between atoms: N_12  and  C_13 
REMARK       I    between atoms: C_13  and  N_14 
REMARK    6  A    between atoms: N_14  and  C_15 
REMARK    7  A    between atoms: C_17  and  C_18 
ROOT
HETATM    1  C   UNL     1      39.020 -10.889   6.348  1.00  0.00     0.238 C 
HETATM    2  N   UNL     1      39.285 -11.473   5.129  1.00  0.00    -0.266 N 
HETATM    3  O   UNL     1      38.760 -11.540   7.358  1.00  0.00    -0.272 OA
HETATM    4  H   UNL     1      39.425 -10.955   4.260  1.00  0.00     0.190 HD
ENDROOT
BRANCH   1   5
HETATM    5  C   UNL     1      39.096  -9.384   6.308  1.00  0.00     0.139 C 
BRANCH   5   6
HETATM    6  C   UNL     1      39.555  -8.799   7.642  1.00  0.00     0.185 C 
HETATM    7  N   UNL     1      40.745  -9.502   8.117  1.00  0.00    -0.363 N 
HETATM    8  C   UNL     1      41.707  -8.811   8.817  1.00  0.00     0.125 C 
HETATM    9  H   UNL     1      40.543 -10.443   8.454  1.00  0.00     0.161 HD
HETATM   10  N   UNL     1      41.822  -7.514   8.829  1.00  0.00    -0.159 NA
HETATM   11  N   UNL     1      40.913  -6.793   8.117  1.00  0.00    -0.244 N 
HETATM   12  C   UNL     1      39.818  -7.302   7.460  1.00  0.00     0.261 C 
HETATM   13  H   UNL     1      41.079  -5.794   8.053  1.00  0.00     0.192 HD
HETATM   14  O   UNL     1      39.071  -6.569   6.812  1.00  0.00    -0.269 OA
BRANCH   8  15
HETATM   15  C   UNL     1      42.710  -9.617   9.633  1.00  0.00     0.118 C 
BRANCH  15  16
HETATM   16  C   UNL     1      43.979  -9.896   8.864  1.00  0.00    -0.051 A 
HETATM   17  C   UNL     1      45.046  -8.989   8.881  1.00  0.00     0.007 A 
HETATM   18  C   UNL     1      46.214  -9.261   8.167  1.00  0.00     0.001 A 
HETATM   19  C   UNL     1      46.326 -10.438   7.429  1.00  0.00     0.000 A 
HETATM   20  C   UNL     1      45.270 -11.345   7.403  1.00  0.00     0.001 A 
HETATM   21  C   UNL     1      44.101 -11.076   8.115  1.00  0.00     0.007 A 
ENDBRANCH  15  16
ENDBRANCH   8  15
ENDBRANCH   5   6
ENDBRANCH   1   5
BRANCH   2  22
HETATM   22  N   UNL     1      39.264 -12.870   5.025  1.00  0.00    -0.249 N 
HETATM   23  C   UNL     1      40.421 -13.474   4.551  1.00  0.00     0.339 C 
HETATM   24  N   UNL     1      40.263 -14.835   4.416  1.00  0.00    -0.308 N 
HETATM   25  O   UNL     1      41.436 -12.819   4.335  1.00  0.00    -0.245 OA
HETATM   26  H   UNL     1      39.405 -15.213   4.794  1.00  0.00     0.170 HD
HETATM   27  H   UNL     1      38.357 -13.265   4.791  1.00  0.00     0.192 HD
BRANCH  24  28
HETATM   28  C   UNL     1      41.210 -15.768   3.950  1.00  0.00     0.037 A 
HETATM   29  C   UNL     1      42.215 -16.323   4.747  1.00  0.00     0.045 A 
HETATM   30  C   UNL     1      43.125 -17.257   4.218  1.00  0.00     0.050 A 
HETATM   31  C   UNL     1      43.024 -17.617   2.867  1.00  0.00     0.016 A 
HETATM   32  C   UNL     1      42.029 -17.063   2.064  1.00  0.00     0.003 A 
HETATM   33  C   UNL     1      41.128 -16.144   2.604  1.00  0.00     0.029 A 
BRANCH  30  34
HETATM   34  C   UNL     1      44.219 -17.838   5.077  1.00  0.00     0.417 C 
HETATM   35  F   UNL     1      45.063 -16.906   5.598  1.00  0.00    -0.166 F 
HETATM   36  F   UNL     1      43.734 -18.534   6.145  1.00  0.00    -0.166 F 
HETATM   37  F   UNL     1      45.004 -18.714   4.391  1.00  0.00    -0.166 F 
ENDBRANCH  30  34
ENDBRANCH  24  28
ENDBRANCH   2  22
TORSDOF 7
ENDMDL
MODEL 10
REMARK VINA RESULT:      -9.1      5.135      8.898
REMARK  7 active torsions:
REMARK  status: ('A' for Active; 'I' for Inactive)
REMARK    1  A    between atoms: C_4  and  C_5 
REMARK    2  A    between atoms: C_5  and  C_6 
REMARK    3  A    between atoms: C_8  and  C_9 
REMARK    4  A    between atoms: C_9  and  C_10 
REMARK       I    between atoms: C_10  and  N_11 
REMARK    5  A    between atoms: N_11  and  N_12 
REMARK       I    between atoms: N_12  and  C_13 
REMARK       I    between atoms: C_13  and  N_14 
REMARK    6  A    between atoms: N_14  and  C_15 
REMARK    7  A    between atoms: C_17  and  C_18 
ROOT
HETATM    1  C   UNL     1      43.415 -11.371   3.752  1.00  0.00     0.238 C 
HETATM    2  N   UNL     1      42.443 -10.425   3.510  1.00  0.00    -0.266 N 
HETATM    3  O   UNL     1      43.915 -12.058   2.862  1.00  0.00    -0.272 OA
HETATM    4  H   UNL     1      41.957  -9.899   4.237  1.00  0.00     0.190 HD
ENDROOT
BRANCH   1   5
HETATM    5  C   UNL     1      43.801 -11.459   5.206  1.00  0.00     0.139 C 
BRANCH   5   6
HETATM    6  C   UNL     1      42.823 -12.317   6.005  1.00  0.00     0.185 C 
HETATM    7  N   UNL     1      42.402 -13.471   5.214  1.00  0.00    -0.363 N 
HETATM    8  C   UNL     1      42.147 -14.668   5.843  1.00  0.00     0.125 C 
HETATM    9  H   UNL     1      41.766 -13.224   4.457  1.00  0.00     0.161 HD
HETATM   10  N   UNL     1      42.547 -14.972   7.043  1.00  0.00    -0.159 NA
HETATM   11  N   UNL     1      43.250 -14.029   7.732  1.00  0.00    -0.244 N 
HETATM   12  C   UNL     1      43.494 -12.742   7.313  1.00  0.00     0.261 C 
HETATM   13  H   UNL     1      43.643 -14.318   8.622  1.00  0.00     0.192 HD
HETATM   14  O   UNL     1      44.172 -11.974   7.995  1.00  0.00    -0.269 OA
BRANCH   8  15
HETATM   15  C   UNL     1      41.340 -15.714   5.082  1.00  0.00     0.118 C 
BRANCH  15  16
HETATM   16  C   UNL     1      42.223 -16.651   4.293  1.00  0.00    -0.051 A 
HETATM   17  C   UNL     1      42.063 -16.797   2.909  1.00  0.00     0.007 A 
HETATM   18  C   UNL     1      42.889 -17.665   2.192  1.00  0.00     0.001 A 
HETATM   19  C   UNL     1      43.878 -18.395   2.850  1.00  0.00     0.000 A 
HETATM   20  C   UNL     1      44.042 -18.259   4.226  1.00  0.00     0.001 A 
HETATM   21  C   UNL     1      43.219 -17.392   4.945  1.00  0.00     0.007 A 
ENDBRANCH  15  16
ENDBRANCH   8  15
ENDBRANCH   5   6
ENDBRANCH   1   5
BRANCH   2  22
HETATM   22  N   UNL     1      42.000 -10.226   2.195  1.00  0.00    -0.249 N 
HETATM   23  C   UNL     1      40.940 -11.015   1.771  1.00  0.00     0.339 C 
HETATM   24  N   UNL     1      40.639 -10.791   0.446  1.00  0.00    -0.308 N 
HETATM   25  O   UNL     1      40.362 -11.771   2.546  1.00  0.00    -0.245 OA
HETATM   26  H   UNL     1      41.122 -10.015   0.016  1.00  0.00     0.170 HD
HETATM   27  H   UNL     1      42.729  -9.965   1.536  1.00  0.00     0.192 HD
BRANCH  24  28
HETATM   28  C   UNL     1      39.641 -11.417  -0.326  1.00  0.00     0.037 A 
HETATM   29  C   UNL     1      39.791 -12.671  -0.924  1.00  0.00     0.045 A 
HETATM   30  C   UNL     1      38.749 -13.242  -1.677  1.00  0.00     0.050 A 
HETATM   31  C   UNL     1      37.553 -12.529  -1.837  1.00  0.00     0.016 A 
HETATM   32  C   UNL     1      37.398 -11.275  -1.249  1.00  0.00     0.003 A 
HETATM   33  C   UNL     1      38.437 -10.724  -0.499  1.00  0.00     0.029 A 
BRANCH  30  34
HETATM   34  C   UNL     1      38.922 -14.588  -2.336  1.00  0.00     0.417 C 
HETATM   35  F   UNL     1      40.062 -14.696  -3.073  1.00  0.00    -0.166 F 
HETATM   36  F   UNL     1      38.967 -15.611  -1.437  1.00  0.00    -0.166 F 
HETATM   37  F   UNL     1      37.897 -14.884  -3.183  1.00  0.00    -0.166 F 
ENDBRANCH  30  34
ENDBRANCH  24  28
ENDBRANCH   2  22
TORSDOF 7
ENDMDL
