MODEL 1
REMARK VINA RESULT:      -8.1      0.000      0.000
REMARK  7 active torsions:
REMARK  status: ('A' for Active; 'I' for Inactive)
REMARK    1  A    between atoms: C_4  and  C_5 
REMARK    2  A    between atoms: C_5  and  N_6 
REMARK       I    between atoms: N_6  and  C_7 
REMARK    3  A    between atoms: C_7  and  C_8 
REMARK    4  A    between atoms: C_8  and  C_9 
REMARK    5  A    between atoms: C_9  and  N_10 
REMARK    6  A    between atoms: N_10  and  C_11 
REMARK    7  A    between atoms: C_13  and  N_14 
ROOT
HETATM    1  N   UNL     1      43.604 -15.350   6.206  1.00  0.00    -0.262 NA
HETATM    2  H   UNL     1      43.429 -14.490   5.675  1.00  0.00     0.130 HD
ENDROOT
BRANCH   1   3
HETATM    3  C   UNL     1      42.623 -15.492   7.290  1.00  0.00     0.104 C 
BRANCH   3   4
HETATM    4  C   UNL     1      41.209 -15.422   6.720  1.00  0.00     0.117 C 
BRANCH   4   5
HETATM    5  C   UNL     1      41.029 -14.152   5.916  1.00  0.00     0.219 C 
HETATM    6  N   UNL     1      40.065 -14.260   4.946  1.00  0.00    -0.357 N 
HETATM    7  H   UNL     1      39.652 -15.162   4.748  1.00  0.00     0.162 HD
HETATM    8  O   UNL     1      41.697 -13.145   6.127  1.00  0.00    -0.274 OA
BRANCH   6   9
HETATM    9  C   UNL     1      39.816 -13.207   3.983  1.00  0.00     0.161 C 
BRANCH   9  10
HETATM   10  C   UNL     1      39.860 -13.745   2.576  1.00  0.00    -0.041 A 
HETATM   11  C   UNL     1      39.807 -12.876   1.476  1.00  0.00     0.009 A 
HETATM   12  C   UNL     1      39.845 -13.378   0.174  1.00  0.00     0.001 A 
HETATM   13  C   UNL     1      39.938 -14.750  -0.043  1.00  0.00     0.000 A 
HETATM   14  C   UNL     1      39.987 -15.625   1.042  1.00  0.00     0.001 A 
HETATM   15  C   UNL     1      39.942 -15.125   2.344  1.00  0.00     0.009 A 
ENDBRANCH   9  10
ENDBRANCH   6   9
ENDBRANCH   4   5
ENDBRANCH   3   4
ENDBRANCH   1   3
BRANCH   1  16
HETATM   16  C   UNL     1      43.564 -16.358   5.252  1.00  0.00     0.181 A 
HETATM   17  N   UNL     1      43.419 -15.995   3.971  1.00  0.00    -0.207 NA
HETATM   18  C   UNL     1      43.450 -16.977   3.055  1.00  0.00     0.116 A 
HETATM   19  C   UNL     1      43.614 -18.332   3.393  1.00  0.00     0.031 A 
HETATM   20  C   UNL     1      43.781 -18.620   4.760  1.00  0.00     0.048 A 
HETATM   21  C   UNL     1      43.622 -19.408   2.476  1.00  0.00     0.017 A 
HETATM   22  N   UNL     1      43.757 -17.615   5.642  1.00  0.00    -0.330 N 
HETATM   23  C   UNL     1      43.971 -19.939   5.196  1.00  0.00     0.030 A 
HETATM   24  H   UNL     1      43.923 -17.774   6.627  1.00  0.00     0.168 HD
HETATM   25  C   UNL     1      43.985 -20.985   4.273  1.00  0.00     0.002 A 
HETATM   26  C   UNL     1      43.809 -20.719   2.917  1.00  0.00     0.001 A 
BRANCH  18  27
HETATM   27  N   UNL     1      43.248 -16.571   1.740  1.00  0.00    -0.286 NA
HETATM   28  H   UNL     1      42.380 -16.960   1.378  1.00  0.00     0.125 HD
HETATM   29  H   UNL     1      43.280 -15.564   1.608  1.00  0.00     0.125 HD
ENDBRANCH  18  27
ENDBRANCH   1  16
TORSDOF 7
ENDMDL
MODEL 2
REMARK VINA RESULT:      -8.1      3.467      5.910
REMARK  7 active torsions:
REMARK  status: ('A' for Active; 'I' for Inactive)
REMARK    1  A    between atoms: C_4  and  C_5 
REMARK    2  A    between atoms: C_5  and  N_6 
REMARK       I    between atoms: N_6  and  C_7 
REMARK    3  A    between atoms: C_7  and  C_8 
REMARK    4  A    between atoms: C_8  and  C_9 
REMARK    5  A    between atoms: C_9  and  N_10 
REMARK    6  A    between atoms: N_10  and  C_11 
REMARK    7  A    between atoms: C_13  and  N_14 
ROOT
HETATM    1  N   UNL     1      39.842 -14.207   6.219  1.00  0.00    -0.262 NA
HETATM    2  H   UNL     1      40.030 -13.991   7.204  1.00  0.00     0.130 HD
ENDROOT
BRANCH   1   3
HETATM    3  C   UNL     1      39.819 -12.975   5.419  1.00  0.00     0.104 C 
BRANCH   3   4
HETATM    4  C   UNL     1      40.498 -11.846   6.190  1.00  0.00     0.117 C 
BRANCH   4   5
HETATM    5  C   UNL     1      41.987 -11.846   5.918  1.00  0.00     0.219 C 
HETATM    6  N   UNL     1      42.709 -12.523   6.869  1.00  0.00    -0.357 N 
HETATM    7  H   UNL     1      42.249 -12.846   7.710  1.00  0.00     0.162 HD
HETATM    8  O   UNL     1      42.473 -11.284   4.942  1.00  0.00    -0.274 OA
BRANCH   6   9
HETATM    9  C   UNL     1      44.157 -12.543   6.871  1.00  0.00     0.161 C 
BRANCH   9  10
HETATM   10  C   UNL     1      44.709 -11.354   7.614  1.00  0.00    -0.041 A 
HETATM   11  C   UNL     1      45.872 -10.708   7.167  1.00  0.00     0.009 A 
HETATM   12  C   UNL     1      46.382  -9.608   7.858  1.00  0.00     0.001 A 
HETATM   13  C   UNL     1      45.737  -9.141   9.001  1.00  0.00     0.000 A 
HETATM   14  C   UNL     1      44.583  -9.777   9.457  1.00  0.00     0.001 A 
HETATM   15  C   UNL     1      44.075 -10.882   8.771  1.00  0.00     0.009 A 
ENDBRANCH   9  10
ENDBRANCH   6   9
ENDBRANCH   4   5
ENDBRANCH   3   4
ENDBRANCH   1   3
BRANCH   1  16
HETATM   16  C   UNL     1      40.838 -15.109   5.867  1.00  0.00     0.181 A 
HETATM   17  N   UNL     1      41.603 -15.602   6.849  1.00  0.00    -0.207 NA
HETATM   18  C   UNL     1      42.517 -16.523   6.502  1.00  0.00     0.116 A 
HETATM   19  C   UNL     1      42.694 -16.962   5.178  1.00  0.00     0.031 A 
HETATM   20  C   UNL     1      41.832 -16.406   4.214  1.00  0.00     0.048 A 
HETATM   21  C   UNL     1      43.659 -17.903   4.751  1.00  0.00     0.017 A 
HETATM   22  N   UNL     1      40.926 -15.501   4.600  1.00  0.00    -0.330 N 
HETATM   23  C   UNL     1      41.917 -16.793   2.869  1.00  0.00     0.030 A 
HETATM   24  H   UNL     1      40.256 -15.115   3.948  1.00  0.00     0.168 HD
HETATM   25  C   UNL     1      42.870 -17.731   2.471  1.00  0.00     0.002 A 
HETATM   26  C   UNL     1      43.740 -18.281   3.409  1.00  0.00     0.001 A 
BRANCH  18  27
HETATM   27  N   UNL     1      43.326 -16.978   7.537  1.00  0.00    -0.286 NA
HETATM   28  H   UNL     1      43.790 -17.844   7.270  1.00  0.00     0.125 HD
HETATM   29  H   UNL     1      43.996 -16.292   7.872  1.00  0.00     0.125 HD
ENDBRANCH  18  27
ENDBRANCH   1  16
TORSDOF 7
ENDMDL
MODEL 3
REMARK VINA RESULT:      -8.0      4.048      7.772
REMARK  7 active torsions:
REMARK  status: ('A' for Active; 'I' for Inactive)
REMARK    1  A    between atoms: C_4  and  C_5 
REMARK    2  A    between atoms: C_5  and  N_6 
REMARK       I    between atoms: N_6  and  C_7 
REMARK    3  A    between atoms: C_7  and  C_8 
REMARK    4  A    between atoms: C_8  and  C_9 
REMARK    5  A    between atoms: C_9  and  N_10 
REMARK    6  A    between atoms: N_10  and  C_11 
REMARK    7  A    between atoms: C_13  and  N_14 
ROOT
HETATM    1  N   UNL     1      43.383 -13.387   6.318  1.00  0.00    -0.262 NA
HETATM    2  H   UNL     1      43.364 -14.063   7.090  1.00  0.00     0.130 HD
ENDROOT
BRANCH   1   3
HETATM    3  C   UNL     1      42.047 -13.249   5.723  1.00  0.00     0.104 C 
BRANCH   3   4
HETATM    4  C   UNL     1      41.553 -14.610   5.240  1.00  0.00     0.117 C 
BRANCH   4   5
HETATM    5  C   UNL     1      42.376 -15.717   5.862  1.00  0.00     0.219 C 
HETATM    6  N   UNL     1      43.394 -16.154   5.052  1.00  0.00    -0.357 N 
HETATM    7  H   UNL     1      43.448 -15.825   4.097  1.00  0.00     0.162 HD
HETATM    8  O   UNL     1      42.131 -16.166   6.977  1.00  0.00    -0.274 OA
BRANCH   6   9
HETATM    9  C   UNL     1      44.226 -17.288   5.397  1.00  0.00     0.161 C 
BRANCH   9  10
HETATM   10  C   UNL     1      43.998 -18.430   4.441  1.00  0.00    -0.041 A 
HETATM   11  C   UNL     1      43.593 -18.186   3.119  1.00  0.00     0.009 A 
HETATM   12  C   UNL     1      43.381 -19.246   2.236  1.00  0.00     0.001 A 
HETATM   13  C   UNL     1      43.571 -20.558   2.662  1.00  0.00     0.000 A 
HETATM   14  C   UNL     1      43.969 -20.814   3.973  1.00  0.00     0.001 A 
HETATM   15  C   UNL     1      44.175 -19.756   4.860  1.00  0.00     0.009 A 
ENDBRANCH   9  10
ENDBRANCH   6   9
ENDBRANCH   4   5
ENDBRANCH   3   4
ENDBRANCH   1   3
BRANCH   1  16
HETATM   16  C   UNL     1      43.886 -12.225   6.890  1.00  0.00     0.181 A 
HETATM   17  N   UNL     1      45.199 -11.990   6.765  1.00  0.00    -0.207 NA
HETATM   18  C   UNL     1      45.659 -10.831   7.264  1.00  0.00     0.116 A 
HETATM   19  C   UNL     1      44.829  -9.893   7.903  1.00  0.00     0.031 A 
HETATM   20  C   UNL     1      43.460 -10.212   7.971  1.00  0.00     0.048 A 
HETATM   21  C   UNL     1      45.262  -8.675   8.475  1.00  0.00     0.017 A 
HETATM   22  N   UNL     1      43.038 -11.370   7.451  1.00  0.00    -0.330 N 
HETATM   23  C   UNL     1      42.548  -9.332   8.572  1.00  0.00     0.030 A 
HETATM   24  H   UNL     1      42.056 -11.613   7.435  1.00  0.00     0.168 HD
HETATM   25  C   UNL     1      42.996  -8.130   9.121  1.00  0.00     0.002 A 
HETATM   26  C   UNL     1      44.349  -7.804   9.074  1.00  0.00     0.001 A 
BRANCH  18  27
HETATM   27  N   UNL     1      47.032 -10.641   7.160  1.00  0.00    -0.286 NA
HETATM   28  H   UNL     1      47.501 -11.530   7.000  1.00  0.00     0.125 HD
HETATM   29  H   UNL     1      47.304  -9.953   6.464  1.00  0.00     0.125 HD
ENDBRANCH  18  27
ENDBRANCH   1  16
TORSDOF 7
ENDMDL
MODEL 4
REMARK VINA RESULT:      -8.0      2.711      4.196
REMARK  7 active torsions:
REMARK  status: ('A' for Active; 'I' for Inactive)
REMARK    1  A    between atoms: C_4  and  C_5 
REMARK    2  A    between atoms: C_5  and  N_6 
REMARK       I    between atoms: N_6  and  C_7 
REMARK    3  A    between atoms: C_7  and  C_8 
REMARK    4  A    between atoms: C_8  and  C_9 
REMARK    5  A    between atoms: C_9  and  N_10 
REMARK    6  A    between atoms: N_10  and  C_11 
REMARK    7  A    between atoms: C_13  and  N_14 
ROOT
HETATM    1  N   UNL     1      40.546 -11.993   6.445  1.00  0.00    -0.262 NA
HETATM    2  H   UNL     1      41.098 -11.564   7.195  1.00  0.00     0.130 HD
ENDROOT
BRANCH   1   3
HETATM    3  C   UNL     1      40.715 -11.246   5.192  1.00  0.00     0.104 C 
BRANCH   3   4
HETATM    4  C   UNL     1      39.365 -11.088   4.498  1.00  0.00     0.117 C 
BRANCH   4   5
HETATM    5  C   UNL     1      39.329 -11.910   3.227  1.00  0.00     0.219 C 
HETATM    6  N   UNL     1      39.462 -13.257   3.451  1.00  0.00    -0.357 N 
HETATM    7  H   UNL     1      39.696 -13.589   4.378  1.00  0.00     0.162 HD
HETATM    8  O   UNL     1      39.199 -11.396   2.121  1.00  0.00    -0.274 OA
BRANCH   6   9
HETATM    9  C   UNL     1      39.578 -14.213   2.369  1.00  0.00     0.161 C 
BRANCH   9  10
HETATM   10  C   UNL     1      40.875 -14.975   2.465  1.00  0.00    -0.041 A 
HETATM   11  C   UNL     1      42.084 -14.302   2.696  1.00  0.00     0.009 A 
HETATM   12  C   UNL     1      43.284 -15.010   2.781  1.00  0.00     0.001 A 
HETATM   13  C   UNL     1      43.289 -16.395   2.639  1.00  0.00     0.000 A 
HETATM   14  C   UNL     1      42.095 -17.075   2.405  1.00  0.00     0.001 A 
HETATM   15  C   UNL     1      40.895 -16.368   2.312  1.00  0.00     0.009 A 
ENDBRANCH   9  10
ENDBRANCH   6   9
ENDBRANCH   4   5
ENDBRANCH   3   4
ENDBRANCH   1   3
BRANCH   1  16
HETATM   16  C   UNL     1      40.989 -13.309   6.400  1.00  0.00     0.181 A 
HETATM   17  N   UNL     1      40.074 -14.265   6.193  1.00  0.00    -0.207 NA
HETATM   18  C   UNL     1      40.526 -15.525   6.086  1.00  0.00     0.116 A 
HETATM   19  C   UNL     1      41.888 -15.859   6.190  1.00  0.00     0.031 A 
HETATM   20  C   UNL     1      42.782 -14.789   6.386  1.00  0.00     0.048 A 
HETATM   21  C   UNL     1      42.417 -17.168   6.117  1.00  0.00     0.017 A 
HETATM   22  N   UNL     1      42.295 -13.547   6.476  1.00  0.00    -0.330 N 
HETATM   23  C   UNL     1      44.161 -15.018   6.485  1.00  0.00     0.030 A 
HETATM   24  H   UNL     1      42.907 -12.746   6.566  1.00  0.00     0.168 HD
HETATM   25  C   UNL     1      44.663 -16.317   6.400  1.00  0.00     0.002 A 
HETATM   26  C   UNL     1      43.792 -17.388   6.219  1.00  0.00     0.001 A 
BRANCH  18  27
HETATM   27  N   UNL     1      39.546 -16.498   5.920  1.00  0.00    -0.286 NA
HETATM   28  H   UNL     1      39.401 -16.689   4.931  1.00  0.00     0.125 HD
HETATM   29  H   UNL     1      39.720 -17.355   6.437  1.00  0.00     0.125 HD
ENDBRANCH  18  27
ENDBRANCH   1  16
TORSDOF 7
ENDMDL
MODEL 5
REMARK VINA RESULT:      -7.9      2.453      6.059
REMARK  7 active torsions:
REMARK  status: ('A' for Active; 'I' for Inactive)
REMARK    1  A    between atoms: C_4  and  C_5 
REMARK    2  A    between atoms: C_5  and  N_6 
REMARK       I    between atoms: N_6  and  C_7 
REMARK    3  A    between atoms: C_7  and  C_8 
REMARK    4  A    between atoms: C_8  and  C_9 
REMARK    5  A    between atoms: C_9  and  N_10 
REMARK    6  A    between atoms: N_10  and  C_11 
REMARK    7  A    between atoms: C_13  and  N_14 
ROOT
HETATM    1  N   UNL     1      39.558 -13.398   3.719  1.00  0.00    -0.262 NA
HETATM    2  H   UNL     1      40.381 -13.889   4.083  1.00  0.00     0.130 HD
ENDROOT
BRANCH   1   3
HETATM    3  C   UNL     1      39.185 -12.291   4.610  1.00  0.00     0.104 C 
BRANCH   3   4
HETATM    4  C   UNL     1      39.953 -12.405   5.924  1.00  0.00     0.117 C 
BRANCH   4   5
HETATM    5  C   UNL     1      40.579 -13.777   6.049  1.00  0.00     0.219 C 
HETATM    6  N   UNL     1      41.896 -13.806   5.665  1.00  0.00    -0.357 N 
HETATM    7  H   UNL     1      42.307 -12.993   5.225  1.00  0.00     0.162 HD
HETATM    8  O   UNL     1      39.947 -14.750   6.448  1.00  0.00    -0.274 OA
BRANCH   6   9
HETATM    9  C   UNL     1      42.653 -15.039   5.588  1.00  0.00     0.161 C 
BRANCH   9  10
HETATM   10  C   UNL     1      42.863 -15.449   4.154  1.00  0.00    -0.041 A 
HETATM   11  C   UNL     1      42.898 -16.806   3.795  1.00  0.00     0.009 A 
HETATM   12  C   UNL     1      43.096 -17.183   2.466  1.00  0.00     0.001 A 
HETATM   13  C   UNL     1      43.259 -16.212   1.482  1.00  0.00     0.000 A 
HETATM   14  C   UNL     1      43.230 -14.861   1.825  1.00  0.00     0.001 A 
HETATM   15  C   UNL     1      43.040 -14.481   3.155  1.00  0.00     0.009 A 
ENDBRANCH   9  10
ENDBRANCH   6   9
ENDBRANCH   4   5
ENDBRANCH   3   4
ENDBRANCH   1   3
BRANCH   1  16
HETATM   16  C   UNL     1      39.927 -13.011   2.437  1.00  0.00     0.181 A 
HETATM   17  N   UNL     1      40.685 -11.913   2.314  1.00  0.00    -0.207 NA
HETATM   18  C   UNL     1      41.089 -11.590   1.074  1.00  0.00     0.116 A 
HETATM   19  C   UNL     1      40.741 -12.342  -0.062  1.00  0.00     0.031 A 
HETATM   20  C   UNL     1      39.960 -13.491   0.162  1.00  0.00     0.048 A 
HETATM   21  C   UNL     1      41.110 -12.032  -1.391  1.00  0.00     0.017 A 
HETATM   22  N   UNL     1      39.588 -13.787   1.412  1.00  0.00    -0.330 N 
HETATM   23  C   UNL     1      39.577 -14.317  -0.904  1.00  0.00     0.030 A 
HETATM   24  H   UNL     1      39.069 -14.630   1.622  1.00  0.00     0.168 HD
HETATM   25  C   UNL     1      39.961 -13.998  -2.207  1.00  0.00     0.002 A 
HETATM   26  C   UNL     1      40.723 -12.858  -2.449  1.00  0.00     0.001 A 
BRANCH  18  27
HETATM   27  N   UNL     1      41.833 -10.420   0.976  1.00  0.00    -0.286 NA
HETATM   28  H   UNL     1      42.634 -10.559   0.364  1.00  0.00     0.125 HD
HETATM   29  H   UNL     1      41.293  -9.608   0.693  1.00  0.00     0.125 HD
ENDBRANCH  18  27
ENDBRANCH   1  16
TORSDOF 7
ENDMDL
MODEL 6
REMARK VINA RESULT:      -7.8      3.853      7.378
REMARK  7 active torsions:
REMARK  status: ('A' for Active; 'I' for Inactive)
REMARK    1  A    between atoms: C_4  and  C_5 
REMARK    2  A    between atoms: C_5  and  N_6 
REMARK       I    between atoms: N_6  and  C_7 
REMARK    3  A    between atoms: C_7  and  C_8 
REMARK    4  A    between atoms: C_8  and  C_9 
REMARK    5  A    between atoms: C_9  and  N_10 
REMARK    6  A    between atoms: N_10  and  C_11 
REMARK    7  A    between atoms: C_13  and  N_14 
ROOT
HETATM    1  N   UNL     1      41.737 -12.374   5.715  1.00  0.00    -0.262 NA
HETATM    2  H   UNL     1      41.865 -12.190   4.714  1.00  0.00     0.130 HD
ENDROOT
BRANCH   1   3
HETATM    3  C   UNL     1      41.593 -13.816   5.957  1.00  0.00     0.104 C 
BRANCH   3   4
HETATM    4  C   UNL     1      41.038 -14.497   4.709  1.00  0.00     0.117 C 
BRANCH   4   5
HETATM    5  C   UNL     1      42.165 -14.864   3.768  1.00  0.00     0.219 C 
HETATM    6  N   UNL     1      42.096 -16.161   3.323  1.00  0.00    -0.357 N 
HETATM    7  H   UNL     1      41.418 -16.793   3.728  1.00  0.00     0.162 HD
HETATM    8  O   UNL     1      43.043 -14.066   3.456  1.00  0.00    -0.274 OA
BRANCH   6   9
HETATM    9  C   UNL     1      43.138 -16.758   2.514  1.00  0.00     0.161 C 
BRANCH   9  10
HETATM   10  C   UNL     1      43.438 -18.160   2.975  1.00  0.00    -0.041 A 
HETATM   11  C   UNL     1      43.948 -18.397   4.261  1.00  0.00     0.009 A 
HETATM   12  C   UNL     1      44.227 -19.697   4.686  1.00  0.00     0.001 A 
HETATM   13  C   UNL     1      43.998 -20.774   3.832  1.00  0.00     0.000 A 
HETATM   14  C   UNL     1      43.496 -20.552   2.551  1.00  0.00     0.001 A 
HETATM   15  C   UNL     1      43.223 -19.252   2.122  1.00  0.00     0.009 A 
ENDBRANCH   9  10
ENDBRANCH   6   9
ENDBRANCH   4   5
ENDBRANCH   3   4
ENDBRANCH   1   3
BRANCH   1  16
HETATM   16  C   UNL     1      42.846 -11.793   6.316  1.00  0.00     0.181 A 
HETATM   17  N   UNL     1      43.988 -11.765   5.616  1.00  0.00    -0.207 NA
HETATM   18  C   UNL     1      45.033 -11.141   6.184  1.00  0.00     0.116 A 
HETATM   19  C   UNL     1      44.967 -10.544   7.456  1.00  0.00     0.031 A 
HETATM   20  C   UNL     1      43.722 -10.602   8.110  1.00  0.00     0.048 A 
HETATM   21  C   UNL     1      46.040  -9.903   8.115  1.00  0.00     0.017 A 
HETATM   22  N   UNL     1      42.701 -11.221   7.507  1.00  0.00    -0.330 N 
HETATM   23  C   UNL     1      43.550 -10.020   9.374  1.00  0.00     0.030 A 
HETATM   24  H   UNL     1      41.778 -11.241   7.922  1.00  0.00     0.168 HD
HETATM   25  C   UNL     1      44.621  -9.383  10.002  1.00  0.00     0.002 A 
HETATM   26  C   UNL     1      45.862  -9.328   9.375  1.00  0.00     0.001 A 
BRANCH  18  27
HETATM   27  N   UNL     1      46.215 -11.173   5.453  1.00  0.00    -0.286 NA
HETATM   28  H   UNL     1      46.840 -11.887   5.820  1.00  0.00     0.125 HD
HETATM   29  H   UNL     1      46.080 -11.284   4.452  1.00  0.00     0.125 HD
ENDBRANCH  18  27
ENDBRANCH   1  16
TORSDOF 7
ENDMDL
MODEL 7
REMARK VINA RESULT:      -7.8      5.909      9.343
REMARK  7 active torsions:
REMARK  status: ('A' for Active; 'I' for Inactive)
REMARK    1  A    between atoms: C_4  and  C_5 
REMARK    2  A    between atoms: C_5  and  N_6 
REMARK       I    between atoms: N_6  and  C_7 
REMARK    3  A    between atoms: C_7  and  C_8 
REMARK    4  A    between atoms: C_8  and  C_9 
REMARK    5  A    between atoms: C_9  and  N_10 
REMARK    6  A    between atoms: N_10  and  C_11 
REMARK    7  A    between atoms: C_13  and  N_14 
ROOT
HETATM    1  N   UNL     1      44.549  -9.975   7.997  1.00  0.00    -0.262 NA
HETATM    2  H   UNL     1      44.613  -9.015   7.641  1.00  0.00     0.130 HD
ENDROOT
BRANCH   1   3
HETATM    3  C   UNL     1      45.854 -10.643   7.911  1.00  0.00     0.104 C 
BRANCH   3   4
HETATM    4  C   UNL     1      46.044 -11.226   6.513  1.00  0.00     0.117 C 
BRANCH   4   5
HETATM    5  C   UNL     1      44.718 -11.693   5.955  1.00  0.00     0.219 C 
HETATM    6  N   UNL     1      44.173 -12.738   6.659  1.00  0.00    -0.357 N 
HETATM    7  H   UNL     1      44.717 -13.192   7.380  1.00  0.00     0.162 HD
HETATM    8  O   UNL     1      44.207 -11.177   4.966  1.00  0.00    -0.274 OA
BRANCH   6   9
HETATM    9  C   UNL     1      42.970 -13.418   6.226  1.00  0.00     0.161 C 
BRANCH   9  10
HETATM   10  C   UNL     1      43.297 -14.778   5.665  1.00  0.00    -0.041 A 
HETATM   11  C   UNL     1      42.886 -15.136   4.371  1.00  0.00     0.009 A 
HETATM   12  C   UNL     1      43.187 -16.397   3.855  1.00  0.00     0.001 A 
HETATM   13  C   UNL     1      43.902 -17.313   4.622  1.00  0.00     0.000 A 
HETATM   14  C   UNL     1      44.313 -16.971   5.910  1.00  0.00     0.001 A 
HETATM   15  C   UNL     1      44.005 -15.713   6.431  1.00  0.00     0.009 A 
ENDBRANCH   9  10
ENDBRANCH   6   9
ENDBRANCH   4   5
ENDBRANCH   3   4
ENDBRANCH   1   3
BRANCH   1  16
HETATM   16  C   UNL     1      44.055  -9.831   9.287  1.00  0.00     0.181 A 
HETATM   17  N   UNL     1      44.108 -10.899  10.094  1.00  0.00    -0.207 NA
HETATM   18  C   UNL     1      43.688 -10.726  11.358  1.00  0.00     0.116 A 
HETATM   19  C   UNL     1      43.202  -9.498  11.840  1.00  0.00     0.031 A 
HETATM   20  C   UNL     1      43.202  -8.424  10.930  1.00  0.00     0.048 A 
HETATM   21  C   UNL     1      42.719  -9.266  13.148  1.00  0.00     0.017 A 
HETATM   22  N   UNL     1      43.639  -8.632   9.683  1.00  0.00    -0.330 N 
HETATM   23  C   UNL     1      42.754  -7.154  11.320  1.00  0.00     0.030 A 
HETATM   24  H   UNL     1      43.702  -7.876   9.014  1.00  0.00     0.168 HD
HETATM   25  C   UNL     1      42.290  -6.946  12.619  1.00  0.00     0.002 A 
HETATM   26  C   UNL     1      42.271  -7.999  13.529  1.00  0.00     0.001 A 
BRANCH  18  27
HETATM   27  N   UNL     1      43.711 -11.866  12.154  1.00  0.00    -0.286 NA
HETATM   28  H   UNL     1      43.957 -11.624  13.112  1.00  0.00     0.125 HD
HETATM   29  H   UNL     1      42.855 -12.411  12.122  1.00  0.00     0.125 HD
ENDBRANCH  18  27
ENDBRANCH   1  16
TORSDOF 7
ENDMDL
MODEL 8
REMARK VINA RESULT:      -7.8      3.849      7.121
REMARK  7 active torsions:
REMARK  status: ('A' for Active; 'I' for Inactive)
REMARK    1  A    between atoms: C_4  and  C_5 
REMARK    2  A    between atoms: C_5  and  N_6 
REMARK       I    between atoms: N_6  and  C_7 
REMARK    3  A    between atoms: C_7  and  C_8 
REMARK    4  A    between atoms: C_8  and  C_9 
REMARK    5  A    between atoms: C_9  and  N_10 
REMARK    6  A    between atoms: N_10  and  C_11 
REMARK    7  A    between atoms: C_13  and  N_14 
ROOT
HETATM    1  N   UNL     1      41.644 -11.938   5.324  1.00  0.00    -0.262 NA
HETATM    2  H   UNL     1      42.028 -12.643   4.686  1.00  0.00     0.130 HD
ENDROOT
BRANCH   1   3
HETATM    3  C   UNL     1      40.559 -12.514   6.130  1.00  0.00     0.104 C 
BRANCH   3   4
HETATM    4  C   UNL     1      40.566 -14.034   5.995  1.00  0.00     0.117 C 
BRANCH   4   5
HETATM    5  C   UNL     1      41.039 -14.436   4.615  1.00  0.00     0.219 C 
HETATM    6  N   UNL     1      42.277 -15.028   4.619  1.00  0.00    -0.357 N 
HETATM    7  H   UNL     1      42.823 -15.038   5.470  1.00  0.00     0.162 HD
HETATM    8  O   UNL     1      40.365 -14.235   3.610  1.00  0.00    -0.274 OA
BRANCH   6   9
HETATM    9  C   UNL     1      42.971 -15.378   3.397  1.00  0.00     0.161 C 
BRANCH   9  10
HETATM   10  C   UNL     1      43.292 -16.850   3.366  1.00  0.00    -0.041 A 
HETATM   11  C   UNL     1      42.917 -17.640   2.269  1.00  0.00     0.009 A 
HETATM   12  C   UNL     1      43.213 -19.004   2.244  1.00  0.00     0.001 A 
HETATM   13  C   UNL     1      43.886 -19.592   3.312  1.00  0.00     0.000 A 
HETATM   14  C   UNL     1      44.260 -18.818   4.410  1.00  0.00     0.001 A 
HETATM   15  C   UNL     1      43.959 -17.456   4.440  1.00  0.00     0.009 A 
ENDBRANCH   9  10
ENDBRANCH   6   9
ENDBRANCH   4   5
ENDBRANCH   3   4
ENDBRANCH   1   3
BRANCH   1  16
HETATM   16  C   UNL     1      42.740 -11.500   6.055  1.00  0.00     0.181 A 
HETATM   17  N   UNL     1      43.943 -11.564   5.469  1.00  0.00    -0.207 NA
HETATM   18  C   UNL     1      44.983 -11.075   6.164  1.00  0.00     0.116 A 
HETATM   19  C   UNL     1      44.851 -10.524   7.450  1.00  0.00     0.031 A 
HETATM   20  C   UNL     1      43.548 -10.476   7.980  1.00  0.00     0.048 A 
HETATM   21  C   UNL     1      45.913 -10.024   8.238  1.00  0.00     0.017 A 
HETATM   22  N   UNL     1      42.535 -10.962   7.254  1.00  0.00    -0.330 N 
HETATM   23  C   UNL     1      43.310  -9.928   9.248  1.00  0.00     0.030 A 
HETATM   24  H   UNL     1      41.579 -10.901   7.577  1.00  0.00     0.168 HD
HETATM   25  C   UNL     1      44.372  -9.431  10.005  1.00  0.00     0.002 A 
HETATM   26  C   UNL     1      45.669  -9.482   9.502  1.00  0.00     0.001 A 
BRANCH  18  27
HETATM   27  N   UNL     1      46.223 -11.202   5.547  1.00  0.00    -0.286 NA
HETATM   28  H   UNL     1      46.952 -10.797   6.130  1.00  0.00     0.125 HD
HETATM   29  H   UNL     1      46.457 -12.153   5.278  1.00  0.00     0.125 HD
ENDBRANCH  18  27
ENDBRANCH   1  16
TORSDOF 7
ENDMDL
MODEL 9
REMARK VINA RESULT:      -7.7      1.178      2.147
REMARK  7 active torsions:
REMARK  status: ('A' for Active; 'I' for Inactive)
REMARK    1  A    between atoms: C_4  and  C_5 
REMARK    2  A    between atoms: C_5  and  N_6 
REMARK       I    between atoms: N_6  and  C_7 
REMARK    3  A    between atoms: C_7  and  C_8 
REMARK    4  A    between atoms: C_8  and  C_9 
REMARK    5  A    between atoms: C_9  and  N_10 
REMARK    6  A    between atoms: N_10  and  C_11 
REMARK    7  A    between atoms: C_13  and  N_14 
ROOT
HETATM    1  N   UNL     1      42.932 -14.475   4.645  1.00  0.00    -0.262 NA
HETATM    2  H   UNL     1      41.910 -14.431   4.580  1.00  0.00     0.130 HD
ENDROOT
BRANCH   1   3
HETATM    3  C   UNL     1      43.418 -13.569   5.694  1.00  0.00     0.104 C 
BRANCH   3   4
HETATM    4  C   UNL     1      42.260 -12.733   6.232  1.00  0.00     0.117 C 
BRANCH   4   5
HETATM    5  C   UNL     1      40.958 -13.170   5.596  1.00  0.00     0.219 C 
HETATM    6  N   UNL     1      40.685 -12.515   4.422  1.00  0.00    -0.357 N 
HETATM    7  H   UNL     1      41.263 -11.736   4.137  1.00  0.00     0.162 HD
HETATM    8  O   UNL     1      40.236 -14.021   6.105  1.00  0.00    -0.274 OA
BRANCH   6   9
HETATM    9  C   UNL     1      39.434 -12.690   3.712  1.00  0.00     0.161 C 
BRANCH   9  10
HETATM   10  C   UNL     1      39.643 -13.482   2.447  1.00  0.00    -0.041 A 
HETATM   11  C   UNL     1      39.613 -12.849   1.194  1.00  0.00     0.009 A 
HETATM   12  C   UNL     1      39.804 -13.585   0.024  1.00  0.00     0.001 A 
HETATM   13  C   UNL     1      40.028 -14.958   0.091  1.00  0.00     0.000 A 
HETATM   14  C   UNL     1      40.055 -15.599   1.329  1.00  0.00     0.001 A 
HETATM   15  C   UNL     1      39.857 -14.866   2.500  1.00  0.00     0.009 A 
ENDBRANCH   9  10
ENDBRANCH   6   9
ENDBRANCH   4   5
ENDBRANCH   3   4
ENDBRANCH   1   3
BRANCH   1  16
HETATM   16  C   UNL     1      43.207 -15.818   4.867  1.00  0.00     0.181 A 
HETATM   17  N   UNL     1      43.256 -16.240   6.137  1.00  0.00    -0.207 NA
HETATM   18  C   UNL     1      43.455 -17.554   6.333  1.00  0.00     0.116 A 
HETATM   19  C   UNL     1      43.619 -18.467   5.277  1.00  0.00     0.031 A 
HETATM   20  C   UNL     1      43.531 -17.940   3.974  1.00  0.00     0.048 A 
HETATM   21  C   UNL     1      43.863 -19.852   5.424  1.00  0.00     0.017 A 
HETATM   22  N   UNL     1      43.319 -16.629   3.819  1.00  0.00    -0.330 N 
HETATM   23  C   UNL     1      43.662 -18.774   2.855  1.00  0.00     0.030 A 
HETATM   24  H   UNL     1      43.200 -16.220   2.902  1.00  0.00     0.168 HD
HETATM   25  C   UNL     1      43.893 -20.139   3.023  1.00  0.00     0.002 A 
HETATM   26  C   UNL     1      43.995 -20.675   4.304  1.00  0.00     0.001 A 
BRANCH  18  27
HETATM   27  N   UNL     1      43.549 -17.950   7.663  1.00  0.00    -0.286 NA
HETATM   28  H   UNL     1      44.137 -18.777   7.746  1.00  0.00     0.125 HD
HETATM   29  H   UNL     1      43.860 -17.216   8.293  1.00  0.00     0.125 HD
ENDBRANCH  18  27
ENDBRANCH   1  16
TORSDOF 7
ENDMDL
MODEL 10
REMARK VINA RESULT:      -7.5      2.857      7.432
REMARK  7 active torsions:
REMARK  status: ('A' for Active; 'I' for Inactive)
REMARK    1  A    between atoms: C_4  and  C_5 
REMARK    2  A    between atoms: C_5  and  N_6 
REMARK       I    between atoms: N_6  and  C_7 
REMARK    3  A    between atoms: C_7  and  C_8 
REMARK    4  A    between atoms: C_8  and  C_9 
REMARK    5  A    between atoms: C_9  and  N_10 
REMARK    6  A    between atoms: N_10  and  C_11 
REMARK    7  A    between atoms: C_13  and  N_14 
ROOT
HETATM    1  N   UNL     1      41.452 -13.449   2.767  1.00  0.00    -0.262 NA
HETATM    2  H   UNL     1      41.884 -12.823   3.455  1.00  0.00     0.130 HD
ENDROOT
BRANCH   1   3
HETATM    3  C   UNL     1      40.195 -13.999   3.293  1.00  0.00     0.104 C 
BRANCH   3   4
HETATM    4  C   UNL     1      40.148 -15.505   3.049  1.00  0.00     0.117 C 
BRANCH   4   5
HETATM    5  C   UNL     1      41.535 -16.031   2.747  1.00  0.00     0.219 C 
HETATM    6  N   UNL     1      42.229 -16.401   3.873  1.00  0.00    -0.357 N 
HETATM    7  H   UNL     1      41.849 -16.190   4.786  1.00  0.00     0.162 HD
HETATM    8  O   UNL     1      41.973 -16.102   1.604  1.00  0.00    -0.274 OA
BRANCH   6   9
HETATM    9  C   UNL     1      43.616 -16.815   3.825  1.00  0.00     0.161 C 
BRANCH   9  10
HETATM   10  C   UNL     1      43.726 -18.318   3.827  1.00  0.00    -0.041 A 
HETATM   11  C   UNL     1      43.557 -19.049   2.640  1.00  0.00     0.009 A 
HETATM   12  C   UNL     1      43.658 -20.441   2.645  1.00  0.00     0.001 A 
HETATM   13  C   UNL     1      43.929 -21.117   3.832  1.00  0.00     0.000 A 
HETATM   14  C   UNL     1      44.094 -20.403   5.017  1.00  0.00     0.001 A 
HETATM   15  C   UNL     1      43.987 -19.012   5.016  1.00  0.00     0.009 A 
ENDBRANCH   9  10
ENDBRANCH   6   9
ENDBRANCH   4   5
ENDBRANCH   3   4
ENDBRANCH   1   3
BRANCH   1  16
HETATM   16  C   UNL     1      41.310 -12.667   1.628  1.00  0.00     0.181 A 
HETATM   17  N   UNL     1      41.655 -11.376   1.716  1.00  0.00    -0.207 NA
HETATM   18  C   UNL     1      41.576 -10.649   0.589  1.00  0.00     0.116 A 
HETATM   19  C   UNL     1      41.146 -11.185  -0.637  1.00  0.00     0.031 A 
HETATM   20  C   UNL     1      40.824 -12.556  -0.642  1.00  0.00     0.048 A 
HETATM   21  C   UNL     1      41.013 -10.462  -1.844  1.00  0.00     0.017 A 
HETATM   22  N   UNL     1      40.928 -13.250   0.496  1.00  0.00    -0.330 N 
HETATM   23  C   UNL     1      40.404 -13.188  -1.821  1.00  0.00     0.030 A 
HETATM   24  H   UNL     1      40.754 -14.246   0.524  1.00  0.00     0.168 HD
HETATM   25  C   UNL     1      40.289 -12.457  -3.004  1.00  0.00     0.002 A 
HETATM   26  C   UNL     1      40.591 -11.098  -3.014  1.00  0.00     0.001 A 
BRANCH  18  27
HETATM   27  N   UNL     1      41.894  -9.302   0.726  1.00  0.00    -0.286 NA
HETATM   28  H   UNL     1      42.424  -9.149   1.582  1.00  0.00     0.125 HD
HETATM   29  H   UNL     1      42.374  -8.906  -0.077  1.00  0.00     0.125 HD
ENDBRANCH  18  27
ENDBRANCH   1  16
TORSDOF 7
ENDMDL
