MODEL 1
REMARK VINA RESULT:      -7.6      0.000      0.000
REMARK  4 active torsions:
REMARK  status: ('A' for Active; 'I' for Inactive)
REMARK    1  A    between atoms: O_2  and  C_3 
REMARK    2  A    between atoms: C_5  and  C_6 
REMARK    3  A    between atoms: C_10  and  N_11 
REMARK    4  A    between atoms: C_14  and  C_15 
ROOT
HETATM    1  C   UNL     1      39.793 -14.315   2.097  1.00  0.00     0.164 C 
HETATM    2  N   UNL     1      40.090 -13.819   0.756  1.00  0.00    -0.074 N 
HETATM    3  C   UNL     1      40.358 -12.512   0.457  1.00  0.00     0.736 A 
HETATM    4  N   UNL     1      40.604 -12.415  -0.825  1.00  0.00     0.131 NA
HETATM    5  C   UNL     1      40.406 -13.688  -1.275  1.00  0.00     0.753 A 
HETATM    6  N   UNL     1      40.095 -14.590  -0.346  1.00  0.00     0.037 NA
HETATM    7  N   UNL     1      40.340 -11.555   1.401  1.00  0.00    -0.214 N 
HETATM    8  C   UNL     1      40.055 -11.852   2.797  1.00  0.00     0.135 C 
HETATM    9  C   UNL     1      39.214 -13.143   2.920  1.00  0.00     0.063 C 
HETATM   10  H   UNL     1      40.644 -10.615   1.168  1.00  0.00     0.178 HD
ENDROOT
BRANCH   1  11
HETATM   11  C   UNL     1      40.965 -15.031   2.771  1.00  0.00    -0.030 A 
HETATM   12  C   UNL     1      40.879 -15.617   4.051  1.00  0.00     0.046 A 
HETATM   13  C   UNL     1      41.968 -16.284   4.620  1.00  0.00     0.068 A 
HETATM   14  C   UNL     1      43.166 -16.365   3.912  1.00  0.00     0.037 A 
HETATM   15  C   UNL     1      43.286 -15.771   2.659  1.00  0.00     0.003 A 
HETATM   16  C   UNL     1      42.199 -15.102   2.098  1.00  0.00     0.009 A 
BRANCH  13  17
HETATM   17  O   UNL     1      41.985 -16.897   5.844  1.00  0.00    -0.356 OA
HETATM   18  C   UNL     1      41.925 -16.053   6.987  1.00  0.00     0.210 C 
ENDBRANCH  13  17
ENDBRANCH   1  11
BRANCH   8  19
HETATM   19  C   UNL     1      41.300 -11.846   3.673  1.00  0.00    -0.035 A 
HETATM   20  C   UNL     1      41.267 -12.097   5.055  1.00  0.00     0.010 A 
HETATM   21  C   UNL     1      42.431 -12.033   5.825  1.00  0.00     0.019 A 
HETATM   22  C   UNL     1      43.647 -11.730   5.220  1.00  0.00     0.011 A 
HETATM   23 BR   UNL     1      45.219 -11.631   6.264  1.00  0.00    -0.051 Br
HETATM   24  C   UNL     1      43.711 -11.500   3.850  1.00  0.00     0.019 A 
HETATM   25  C   UNL     1      42.545 -11.560   3.082  1.00  0.00     0.010 A 
ENDBRANCH   8  19
BRANCH   5  26
HETATM   26  N   UNL     1      40.564 -13.937  -2.570  1.00  0.00    -0.229 N 
HETATM   27  H   UNL     1      41.498 -14.159  -2.887  1.00  0.00     0.174 HD
HETATM   28  H   UNL     1      39.816 -14.421  -3.045  1.00  0.00     0.174 HD
ENDBRANCH   5  26
TORSDOF 4
ENDMDL
MODEL 2
REMARK VINA RESULT:      -7.0      9.488     11.888
REMARK  4 active torsions:
REMARK  status: ('A' for Active; 'I' for Inactive)
REMARK    1  A    between atoms: O_2  and  C_3 
REMARK    2  A    between atoms: C_5  and  C_6 
REMARK    3  A    between atoms: C_10  and  N_11 
REMARK    4  A    between atoms: C_14  and  C_15 
ROOT
HETATM    1  C   UNL     1      41.610  -9.995  12.438  1.00  0.00     0.164 C 
HETATM    2  N   UNL     1      42.451  -9.900  11.249  1.00  0.00    -0.074 N 
HETATM    3  C   UNL     1      42.046  -9.368  10.056  1.00  0.00     0.736 A 
HETATM    4  N   UNL     1      43.046  -9.414   9.213  1.00  0.00     0.131 NA
HETATM    5  C   UNL     1      44.022 -10.048   9.924  1.00  0.00     0.753 A 
HETATM    6  N   UNL     1      43.712 -10.363  11.181  1.00  0.00     0.037 NA
HETATM    7  N   UNL     1      40.796  -8.905   9.879  1.00  0.00    -0.214 N 
HETATM    8  C   UNL     1      39.807  -8.921  10.946  1.00  0.00     0.135 C 
HETATM    9  C   UNL     1      40.135 -10.026  11.977  1.00  0.00     0.063 C 
HETATM   10  H   UNL     1      40.558  -8.422   9.018  1.00  0.00     0.178 HD
ENDROOT
BRANCH   1  11
HETATM   11  C   UNL     1      41.909  -8.935  13.499  1.00  0.00    -0.030 A 
HETATM   12  C   UNL     1      41.201  -8.838  14.716  1.00  0.00     0.046 A 
HETATM   13  C   UNL     1      41.524  -7.868  15.670  1.00  0.00     0.068 A 
HETATM   14  C   UNL     1      42.560  -6.973  15.411  1.00  0.00     0.037 A 
HETATM   15  C   UNL     1      43.257  -7.028  14.207  1.00  0.00     0.003 A 
HETATM   16  C   UNL     1      42.927  -7.994  13.256  1.00  0.00     0.009 A 
BRANCH  13  17
HETATM   17  O   UNL     1      40.912  -7.699  16.882  1.00  0.00    -0.356 OA
HETATM   18  C   UNL     1      41.733  -7.274  17.963  1.00  0.00     0.210 C 
ENDBRANCH  13  17
ENDBRANCH   1  11
BRANCH   8  19
HETATM   19  C   UNL     1      39.580  -7.551  11.568  1.00  0.00    -0.035 A 
HETATM   20  C   UNL     1      40.307  -6.409  11.194  1.00  0.00     0.010 A 
HETATM   21  C   UNL     1      40.096  -5.182  11.830  1.00  0.00     0.019 A 
HETATM   22  C   UNL     1      39.144  -5.079  12.840  1.00  0.00     0.011 A 
HETATM   23 BR   UNL     1      38.867  -3.423  13.708  1.00  0.00    -0.051 Br
HETATM   24  C   UNL     1      38.395  -6.190  13.214  1.00  0.00     0.019 A 
HETATM   25  C   UNL     1      38.611  -7.417  12.581  1.00  0.00     0.010 A 
ENDBRANCH   8  19
BRANCH   5  26
HETATM   26  N   UNL     1      45.192 -10.273   9.339  1.00  0.00    -0.229 N 
HETATM   27  H   UNL     1      45.180 -10.503   8.355  1.00  0.00     0.174 HD
HETATM   28  H   UNL     1      45.980  -9.721   9.648  1.00  0.00     0.174 HD
ENDBRANCH   5  26
TORSDOF 4
ENDMDL
MODEL 3
REMARK VINA RESULT:      -6.9     15.965     17.210
REMARK  4 active torsions:
REMARK  status: ('A' for Active; 'I' for Inactive)
REMARK    1  A    between atoms: O_2  and  C_3 
REMARK    2  A    between atoms: C_5  and  C_6 
REMARK    3  A    between atoms: C_10  and  N_11 
REMARK    4  A    between atoms: C_14  and  C_15 
ROOT
HETATM    1  C   UNL     1      44.311 -29.031  -1.607  1.00  0.00     0.164 C 
HETATM    2  N   UNL     1      44.782 -29.848  -2.721  1.00  0.00    -0.074 N 
HETATM    3  C   UNL     1      46.062 -29.837  -3.201  1.00  0.00     0.736 A 
HETATM    4  N   UNL     1      46.152 -30.700  -4.181  1.00  0.00     0.131 NA
HETATM    5  C   UNL     1      44.875 -31.165  -4.303  1.00  0.00     0.753 A 
HETATM    6  N   UNL     1      43.996 -30.680  -3.428  1.00  0.00     0.037 NA
HETATM    7  N   UNL     1      47.001 -29.026  -2.684  1.00  0.00    -0.214 N 
HETATM    8  C   UNL     1      46.722 -28.130  -1.572  1.00  0.00     0.135 C 
HETATM    9  C   UNL     1      45.217 -27.783  -1.517  1.00  0.00     0.063 C 
HETATM   10  H   UNL     1      47.965 -29.116  -2.992  1.00  0.00     0.178 HD
ENDROOT
BRANCH   1  11
HETATM   11  C   UNL     1      44.169 -29.795  -0.289  1.00  0.00    -0.030 A 
HETATM   12  C   UNL     1      43.397 -29.328   0.795  1.00  0.00     0.046 A 
HETATM   13  C   UNL     1      43.275 -30.070   1.974  1.00  0.00     0.068 A 
HETATM   14  C   UNL     1      43.935 -31.293   2.084  1.00  0.00     0.037 A 
HETATM   15  C   UNL     1      44.726 -31.764   1.039  1.00  0.00     0.003 A 
HETATM   16  C   UNL     1      44.849 -31.017  -0.132  1.00  0.00     0.009 A 
BRANCH  13  17
HETATM   17  O   UNL     1      42.542 -29.716   3.074  1.00  0.00    -0.356 OA
HETATM   18  C   UNL     1      41.890 -30.766   3.778  1.00  0.00     0.210 C 
ENDBRANCH  13  17
ENDBRANCH   1  11
BRANCH   8  19
HETATM   19  C   UNL     1      47.285 -28.629  -0.249  1.00  0.00    -0.035 A 
HETATM   20  C   UNL     1      48.201 -29.689  -0.156  1.00  0.00     0.010 A 
HETATM   21  C   UNL     1      48.652 -30.143   1.086  1.00  0.00     0.019 A 
HETATM   22  C   UNL     1      48.200 -29.533   2.253  1.00  0.00     0.011 A 
HETATM   23 BR   UNL     1      48.800 -30.155   3.934  1.00  0.00    -0.051 Br
HETATM   24  C   UNL     1      47.310 -28.467   2.188  1.00  0.00     0.019 A 
HETATM   25  C   UNL     1      46.856 -28.017   0.945  1.00  0.00     0.010 A 
ENDBRANCH   8  19
BRANCH   5  26
HETATM   26  N   UNL     1      44.613 -32.068  -5.241  1.00  0.00    -0.229 N 
HETATM   27  H   UNL     1      44.733 -31.782  -6.203  1.00  0.00     0.174 HD
HETATM   28  H   UNL     1      44.848 -33.030  -5.039  1.00  0.00     0.174 HD
ENDBRANCH   5  26
TORSDOF 4
ENDMDL
MODEL 4
REMARK VINA RESULT:      -6.7      3.988      6.372
REMARK  4 active torsions:
REMARK  status: ('A' for Active; 'I' for Inactive)
REMARK    1  A    between atoms: O_2  and  C_3 
REMARK    2  A    between atoms: C_5  and  C_6 
REMARK    3  A    between atoms: C_10  and  N_11 
REMARK    4  A    between atoms: C_14  and  C_15 
ROOT
HETATM    1  C   UNL     1      41.368 -10.187   5.507  1.00  0.00     0.164 C 
HETATM    2  N   UNL     1      40.417 -10.180   6.614  1.00  0.00    -0.074 N 
HETATM    3  C   UNL     1      39.451 -11.128   6.810  1.00  0.00     0.736 A 
HETATM    4  N   UNL     1      38.790 -10.837   7.901  1.00  0.00     0.131 NA
HETATM    5  C   UNL     1      39.351  -9.659   8.298  1.00  0.00     0.753 A 
HETATM    6  N   UNL     1      40.357  -9.214   7.548  1.00  0.00     0.037 NA
HETATM    7  N   UNL     1      39.286 -12.153   5.955  1.00  0.00    -0.214 N 
HETATM    8  C   UNL     1      40.133 -12.328   4.785  1.00  0.00     0.135 C 
HETATM    9  C   UNL     1      40.733 -10.974   4.339  1.00  0.00     0.063 C 
HETATM   10  H   UNL     1      38.632 -12.895   6.183  1.00  0.00     0.178 HD
ENDROOT
BRANCH   1  11
HETATM   11  C   UNL     1      42.769 -10.666   5.893  1.00  0.00    -0.030 A 
HETATM   12  C   UNL     1      43.244 -10.676   7.221  1.00  0.00     0.046 A 
HETATM   13  C   UNL     1      44.524 -11.144   7.533  1.00  0.00     0.068 A 
HETATM   14  C   UNL     1      45.351 -11.603   6.510  1.00  0.00     0.037 A 
HETATM   15  C   UNL     1      44.918 -11.578   5.187  1.00  0.00     0.003 A 
HETATM   16  C   UNL     1      43.643 -11.105   4.881  1.00  0.00     0.009 A 
BRANCH  13  17
HETATM   17  O   UNL     1      45.073 -11.210   8.785  1.00  0.00    -0.356 OA
HETATM   18  C   UNL     1      44.848 -10.100   9.644  1.00  0.00     0.210 C 
ENDBRANCH  13  17
ENDBRANCH   1  11
BRANCH   8  19
HETATM   19  C   UNL     1      41.169 -13.429   4.959  1.00  0.00    -0.035 A 
HETATM   20  C   UNL     1      41.911 -13.960   3.891  1.00  0.00     0.010 A 
HETATM   21  C   UNL     1      42.816 -15.005   4.094  1.00  0.00     0.019 A 
HETATM   22  C   UNL     1      43.001 -15.524   5.372  1.00  0.00     0.011 A 
HETATM   23 BR   UNL     1      44.216 -16.946   5.644  1.00  0.00    -0.051 Br
HETATM   24  C   UNL     1      42.296 -15.001   6.450  1.00  0.00     0.019 A 
HETATM   25  C   UNL     1      41.387 -13.960   6.245  1.00  0.00     0.010 A 
ENDBRANCH   8  19
BRANCH   5  26
HETATM   26  N   UNL     1      38.887  -9.070   9.394  1.00  0.00    -0.229 N 
HETATM   27  H   UNL     1      39.510  -8.437   9.878  1.00  0.00     0.174 HD
HETATM   28  H   UNL     1      37.910  -8.813   9.407  1.00  0.00     0.174 HD
ENDBRANCH   5  26
TORSDOF 4
ENDMDL
MODEL 5
REMARK VINA RESULT:      -6.7      1.338      2.166
REMARK  4 active torsions:
REMARK  status: ('A' for Active; 'I' for Inactive)
REMARK    1  A    between atoms: O_2  and  C_3 
REMARK    2  A    between atoms: C_5  and  C_6 
REMARK    3  A    between atoms: C_10  and  N_11 
REMARK    4  A    between atoms: C_14  and  C_15 
ROOT
HETATM    1  C   UNL     1      39.640 -12.703   2.865  1.00  0.00     0.164 C 
HETATM    2  N   UNL     1      40.117 -12.737   1.486  1.00  0.00    -0.074 N 
HETATM    3  C   UNL     1      40.877 -11.759   0.906  1.00  0.00     0.736 A 
HETATM    4  N   UNL     1      41.152 -12.113  -0.323  1.00  0.00     0.131 NA
HETATM    5  C   UNL     1      40.476 -13.289  -0.466  1.00  0.00     0.753 A 
HETATM    6  N   UNL     1      39.830 -13.721   0.616  1.00  0.00     0.037 NA
HETATM    7  N   UNL     1      41.226 -10.648   1.577  1.00  0.00    -0.214 N 
HETATM    8  C   UNL     1      40.837 -10.426   2.962  1.00  0.00     0.135 C 
HETATM    9  C   UNL     1      39.557 -11.224   3.303  1.00  0.00     0.063 C 
HETATM   10  H   UNL     1      41.875  -9.991   1.155  1.00  0.00     0.178 HD
ENDROOT
BRANCH   1  11
HETATM   11  C   UNL     1      40.433 -13.593   3.823  1.00  0.00    -0.030 A 
HETATM   12  C   UNL     1      41.535 -14.376   3.417  1.00  0.00     0.046 A 
HETATM   13  C   UNL     1      42.248 -15.158   4.330  1.00  0.00     0.068 A 
HETATM   14  C   UNL     1      41.859 -15.171   5.668  1.00  0.00     0.037 A 
HETATM   15  C   UNL     1      40.759 -14.431   6.091  1.00  0.00     0.003 A 
HETATM   16  C   UNL     1      40.047 -13.657   5.174  1.00  0.00     0.009 A 
BRANCH  13  17
HETATM   17  O   UNL     1      43.335 -15.938   4.043  1.00  0.00    -0.356 OA
HETATM   18  C   UNL     1      43.089 -17.314   3.784  1.00  0.00     0.210 C 
ENDBRANCH  13  17
ENDBRANCH   1  11
BRANCH   8  19
HETATM   19  C   UNL     1      41.978 -10.649   3.944  1.00  0.00    -0.035 A 
HETATM   20  C   UNL     1      43.199 -11.239   3.579  1.00  0.00     0.010 A 
HETATM   21  C   UNL     1      44.199 -11.467   4.528  1.00  0.00     0.019 A 
HETATM   22  C   UNL     1      43.995 -11.097   5.854  1.00  0.00     0.011 A 
HETATM   23 BR   UNL     1      45.342 -11.418   7.140  1.00  0.00    -0.051 Br
HETATM   24  C   UNL     1      42.803 -10.491   6.237  1.00  0.00     0.019 A 
HETATM   25  C   UNL     1      41.802 -10.268   5.287  1.00  0.00     0.010 A 
ENDBRANCH   8  19
BRANCH   5  26
HETATM   26  N   UNL     1      40.535 -13.920  -1.633  1.00  0.00    -0.229 N 
HETATM   27  H   UNL     1      40.398 -13.364  -2.466  1.00  0.00     0.174 HD
HETATM   28  H   UNL     1      41.198 -14.678  -1.719  1.00  0.00     0.174 HD
ENDBRANCH   5  26
TORSDOF 4
ENDMDL
MODEL 6
REMARK VINA RESULT:      -6.6      3.454      5.368
REMARK  4 active torsions:
REMARK  status: ('A' for Active; 'I' for Inactive)
REMARK    1  A    between atoms: O_2  and  C_3 
REMARK    2  A    between atoms: C_5  and  C_6 
REMARK    3  A    between atoms: C_10  and  N_11 
REMARK    4  A    between atoms: C_14  and  C_15 
ROOT
HETATM    1  C   UNL     1      39.784 -12.647   4.610  1.00  0.00     0.164 C 
HETATM    2  N   UNL     1      40.653 -11.475   4.655  1.00  0.00    -0.074 N 
HETATM    3  C   UNL     1      41.818 -11.403   5.367  1.00  0.00     0.736 A 
HETATM    4  N   UNL     1      42.360 -10.228   5.171  1.00  0.00     0.131 NA
HETATM    5  C   UNL     1      41.446  -9.594   4.381  1.00  0.00     0.753 A 
HETATM    6  N   UNL     1      40.384 -10.315   4.029  1.00  0.00     0.037 NA
HETATM    7  N   UNL     1      42.246 -12.429   6.123  1.00  0.00    -0.214 N 
HETATM    8  C   UNL     1      41.512 -13.682   6.213  1.00  0.00     0.135 C 
HETATM    9  C   UNL     1      40.014 -13.460   5.904  1.00  0.00     0.063 C 
HETATM   10  H   UNL     1      43.164 -12.384   6.555  1.00  0.00     0.178 HD
ENDROOT
BRANCH   1  11
HETATM   11  C   UNL     1      39.913 -13.470   3.327  1.00  0.00    -0.030 A 
HETATM   12  C   UNL     1      40.366 -12.930   2.105  1.00  0.00     0.046 A 
HETATM   13  C   UNL     1      40.491 -13.723   0.961  1.00  0.00     0.068 A 
HETATM   14  C   UNL     1      40.155 -15.074   1.025  1.00  0.00     0.037 A 
HETATM   15  C   UNL     1      39.679 -15.626   2.211  1.00  0.00     0.003 A 
HETATM   16  C   UNL     1      39.550 -14.829   3.348  1.00  0.00     0.009 A 
BRANCH  13  17
HETATM   17  O   UNL     1      40.933 -13.303  -0.265  1.00  0.00    -0.356 OA
HETATM   18  C   UNL     1      40.093 -13.574  -1.379  1.00  0.00     0.210 C 
ENDBRANCH  13  17
ENDBRANCH   1  11
BRANCH   8  19
HETATM   19  C   UNL     1      42.145 -14.803   5.402  1.00  0.00    -0.035 A 
HETATM   20  C   UNL     1      42.890 -14.577   4.233  1.00  0.00     0.010 A 
HETATM   21  C   UNL     1      43.411 -15.644   3.495  1.00  0.00     0.019 A 
HETATM   22  C   UNL     1      43.203 -16.951   3.925  1.00  0.00     0.011 A 
HETATM   23 BR   UNL     1      43.896 -18.394   2.920  1.00  0.00    -0.051 Br
HETATM   24  C   UNL     1      42.488 -17.202   5.091  1.00  0.00     0.019 A 
HETATM   25  C   UNL     1      41.964 -16.134   5.825  1.00  0.00     0.010 A 
ENDBRANCH   8  19
BRANCH   5  26
HETATM   26  N   UNL     1      41.690  -8.345   4.001  1.00  0.00    -0.229 N 
HETATM   27  H   UNL     1      42.583  -7.949   4.262  1.00  0.00     0.174 HD
HETATM   28  H   UNL     1      41.330  -8.052   3.104  1.00  0.00     0.174 HD
ENDBRANCH   5  26
TORSDOF 4
ENDMDL
MODEL 7
REMARK VINA RESULT:      -6.6      3.319      5.166
REMARK  4 active torsions:
REMARK  status: ('A' for Active; 'I' for Inactive)
REMARK    1  A    between atoms: O_2  and  C_3 
REMARK    2  A    between atoms: C_5  and  C_6 
REMARK    3  A    between atoms: C_10  and  N_11 
REMARK    4  A    between atoms: C_14  and  C_15 
ROOT
HETATM    1  C   UNL     1      40.990 -15.962   4.878  1.00  0.00     0.164 C 
HETATM    2  N   UNL     1      42.107 -16.731   4.340  1.00  0.00    -0.074 N 
HETATM    3  C   UNL     1      42.311 -16.972   3.009  1.00  0.00     0.736 A 
HETATM    4  N   UNL     1      43.410 -17.667   2.869  1.00  0.00     0.131 NA
HETATM    5  C   UNL     1      43.806 -17.883   4.157  1.00  0.00     0.753 A 
HETATM    6  N   UNL     1      43.046 -17.326   5.098  1.00  0.00     0.037 NA
HETATM    7  N   UNL     1      41.453 -16.526   2.074  1.00  0.00    -0.214 N 
HETATM    8  C   UNL     1      40.273 -15.746   2.415  1.00  0.00     0.135 C 
HETATM    9  C   UNL     1      39.826 -16.041   3.866  1.00  0.00     0.063 C 
HETATM   10  H   UNL     1      41.685 -16.630   1.091  1.00  0.00     0.178 HD
ENDROOT
BRANCH   1  11
HETATM   11  C   UNL     1      41.358 -14.537   5.296  1.00  0.00    -0.030 A 
HETATM   12  C   UNL     1      42.671 -14.025   5.225  1.00  0.00     0.046 A 
HETATM   13  C   UNL     1      42.959 -12.708   5.595  1.00  0.00     0.068 A 
HETATM   14  C   UNL     1      41.930 -11.885   6.050  1.00  0.00     0.037 A 
HETATM   15  C   UNL     1      40.631 -12.373   6.157  1.00  0.00     0.003 A 
HETATM   16  C   UNL     1      40.350 -13.690   5.792  1.00  0.00     0.009 A 
BRANCH  13  17
HETATM   17  O   UNL     1      44.190 -12.112   5.549  1.00  0.00    -0.356 OA
HETATM   18  C   UNL     1      44.886 -11.980   6.782  1.00  0.00     0.210 C 
ENDBRANCH  13  17
ENDBRANCH   1  11
BRANCH   8  19
HETATM   19  C   UNL     1      40.431 -14.263   2.113  1.00  0.00    -0.035 A 
HETATM   20  C   UNL     1      41.619 -13.705   1.613  1.00  0.00     0.010 A 
HETATM   21  C   UNL     1      41.731 -12.328   1.397  1.00  0.00     0.019 A 
HETATM   22  C   UNL     1      40.650 -11.494   1.666  1.00  0.00     0.011 A 
HETATM   23 BR   UNL     1      40.806  -9.631   1.386  1.00  0.00    -0.051 Br
HETATM   24  C   UNL     1      39.455 -12.024   2.140  1.00  0.00     0.019 A 
HETATM   25  C   UNL     1      39.346 -13.400   2.360  1.00  0.00     0.010 A 
ENDBRANCH   8  19
BRANCH   5  26
HETATM   26  N   UNL     1      44.909 -18.589   4.374  1.00  0.00    -0.229 N 
HETATM   27  H   UNL     1      45.377 -18.453   5.259  1.00  0.00     0.174 HD
HETATM   28  H   UNL     1      44.941 -19.528   4.003  1.00  0.00     0.174 HD
ENDBRANCH   5  26
TORSDOF 4
ENDMDL
MODEL 8
REMARK VINA RESULT:      -6.4      2.326      4.595
REMARK  4 active torsions:
REMARK  status: ('A' for Active; 'I' for Inactive)
REMARK    1  A    between atoms: O_2  and  C_3 
REMARK    2  A    between atoms: C_5  and  C_6 
REMARK    3  A    between atoms: C_10  and  N_11 
REMARK    4  A    between atoms: C_14  and  C_15 
ROOT
HETATM    1  C   UNL     1      41.334 -11.302   1.715  1.00  0.00     0.164 C 
HETATM    2  N   UNL     1      39.881 -11.165   1.698  1.00  0.00    -0.074 N 
HETATM    3  C   UNL     1      39.011 -12.184   1.428  1.00  0.00     0.736 A 
HETATM    4  N   UNL     1      37.787 -11.730   1.520  1.00  0.00     0.131 NA
HETATM    5  C   UNL     1      37.968 -10.404   1.784  1.00  0.00     0.753 A 
HETATM    6  N   UNL     1      39.233 -10.005   1.910  1.00  0.00     0.037 NA
HETATM    7  N   UNL     1      39.447 -13.419   1.121  1.00  0.00    -0.214 N 
HETATM    8  C   UNL     1      40.863 -13.751   1.078  1.00  0.00     0.135 C 
HETATM    9  C   UNL     1      41.710 -12.489   0.800  1.00  0.00     0.063 C 
HETATM   10  H   UNL     1      38.778 -14.177   1.028  1.00  0.00     0.178 HD
ENDROOT
BRANCH   1  11
HETATM   11  C   UNL     1      41.937 -11.381   3.118  1.00  0.00    -0.030 A 
HETATM   12  C   UNL     1      43.322 -11.293   3.370  1.00  0.00     0.046 A 
HETATM   13  C   UNL     1      43.829 -11.346   4.672  1.00  0.00     0.068 A 
HETATM   14  C   UNL     1      42.950 -11.495   5.743  1.00  0.00     0.037 A 
HETATM   15  C   UNL     1      41.581 -11.613   5.520  1.00  0.00     0.003 A 
HETATM   16  C   UNL     1      41.081 -11.565   4.220  1.00  0.00     0.009 A 
BRANCH  13  17
HETATM   17  O   UNL     1      45.149 -11.255   5.025  1.00  0.00    -0.356 OA
HETATM   18  C   UNL     1      45.476 -11.559   6.375  1.00  0.00     0.210 C 
ENDBRANCH  13  17
ENDBRANCH   1  11
BRANCH   8  19
HETATM   19  C   UNL     1      41.325 -14.545   2.291  1.00  0.00    -0.035 A 
HETATM   20  C   UNL     1      42.679 -14.779   2.583  1.00  0.00     0.010 A 
HETATM   21  C   UNL     1      43.053 -15.555   3.684  1.00  0.00     0.019 A 
HETATM   22  C   UNL     1      42.077 -16.097   4.514  1.00  0.00     0.011 A 
HETATM   23 BR   UNL     1      42.582 -17.157   5.995  1.00  0.00    -0.051 Br
HETATM   24  C   UNL     1      40.730 -15.861   4.260  1.00  0.00     0.019 A 
HETATM   25  C   UNL     1      40.357 -15.089   3.157  1.00  0.00     0.010 A 
ENDBRANCH   8  19
BRANCH   5  26
HETATM   26  N   UNL     1      36.898  -9.631   1.925  1.00  0.00    -0.229 N 
HETATM   27  H   UNL     1      36.989  -8.662   1.650  1.00  0.00     0.174 HD
HETATM   28  H   UNL     1      35.995 -10.050   1.751  1.00  0.00     0.174 HD
ENDBRANCH   5  26
TORSDOF 4
ENDMDL
MODEL 9
REMARK VINA RESULT:      -6.4      9.528     11.972
REMARK  4 active torsions:
REMARK  status: ('A' for Active; 'I' for Inactive)
REMARK    1  A    between atoms: O_2  and  C_3 
REMARK    2  A    between atoms: C_5  and  C_6 
REMARK    3  A    between atoms: C_10  and  N_11 
REMARK    4  A    between atoms: C_14  and  C_15 
ROOT
HETATM    1  C   UNL     1      42.221  -9.634  12.730  1.00  0.00     0.164 C 
HETATM    2  N   UNL     1      42.917  -9.534  11.451  1.00  0.00    -0.074 N 
HETATM    3  C   UNL     1      42.295  -9.499  10.233  1.00  0.00     0.736 A 
HETATM    4  N   UNL     1      43.204  -9.381   9.299  1.00  0.00     0.131 NA
HETATM    5  C   UNL     1      44.374  -9.416  10.000  1.00  0.00     0.753 A 
HETATM    6  N   UNL     1      44.255  -9.502  11.323  1.00  0.00     0.037 NA
HETATM    7  N   UNL     1      40.958  -9.586  10.122  1.00  0.00    -0.214 N 
HETATM    8  C   UNL     1      40.091  -9.701  11.285  1.00  0.00     0.135 C 
HETATM    9  C   UNL     1      40.858 -10.317  12.478  1.00  0.00     0.063 C 
HETATM   10  H   UNL     1      40.521  -9.453   9.215  1.00  0.00     0.178 HD
ENDROOT
BRANCH   1  11
HETATM   11  C   UNL     1      42.124  -8.312  13.493  1.00  0.00    -0.030 A 
HETATM   12  C   UNL     1      42.340  -7.055  12.891  1.00  0.00     0.046 A 
HETATM   13  C   UNL     1      42.218  -5.869  13.621  1.00  0.00     0.068 A 
HETATM   14  C   UNL     1      41.884  -5.929  14.973  1.00  0.00     0.037 A 
HETATM   15  C   UNL     1      41.693  -7.158  15.598  1.00  0.00     0.003 A 
HETATM   16  C   UNL     1      41.822  -8.338  14.867  1.00  0.00     0.009 A 
BRANCH  13  17
HETATM   17  O   UNL     1      42.391  -4.602  13.131  1.00  0.00    -0.356 OA
HETATM   18  C   UNL     1      41.281  -4.013  12.466  1.00  0.00     0.210 C 
ENDBRANCH  13  17
ENDBRANCH   1  11
BRANCH   8  19
HETATM   19  C   UNL     1      39.374  -8.402  11.624  1.00  0.00    -0.035 A 
HETATM   20  C   UNL     1      38.748  -8.172  12.860  1.00  0.00     0.010 A 
HETATM   21  C   UNL     1      38.060  -6.981  13.107  1.00  0.00     0.019 A 
HETATM   22  C   UNL     1      38.000  -5.998  12.123  1.00  0.00     0.011 A 
HETATM   23 BR   UNL     1      37.058  -4.393  12.451  1.00  0.00    -0.051 Br
HETATM   24  C   UNL     1      38.630  -6.192  10.898  1.00  0.00     0.019 A 
HETATM   25  C   UNL     1      39.313  -7.386  10.652  1.00  0.00     0.010 A 
ENDBRANCH   8  19
BRANCH   5  26
HETATM   26  N   UNL     1      45.519  -9.332   9.332  1.00  0.00    -0.229 N 
HETATM   27  H   UNL     1      46.235  -8.730   9.716  1.00  0.00     0.174 HD
HETATM   28  H   UNL     1      45.853 -10.168   8.873  1.00  0.00     0.174 HD
ENDBRANCH   5  26
TORSDOF 4
ENDMDL
MODEL 10
REMARK VINA RESULT:      -6.4      6.834      9.365
REMARK  4 active torsions:
REMARK  status: ('A' for Active; 'I' for Inactive)
REMARK    1  A    between atoms: O_2  and  C_3 
REMARK    2  A    between atoms: C_5  and  C_6 
REMARK    3  A    between atoms: C_10  and  N_11 
REMARK    4  A    between atoms: C_14  and  C_15 
ROOT
HETATM    1  C   UNL     1      43.221  -8.671   7.953  1.00  0.00     0.164 C 
HETATM    2  N   UNL     1      43.384 -10.064   7.549  1.00  0.00    -0.074 N 
HETATM    3  C   UNL     1      44.139 -10.982   8.226  1.00  0.00     0.736 A 
HETATM    4  N   UNL     1      44.051 -12.134   7.613  1.00  0.00     0.131 NA
HETATM    5  C   UNL     1      43.279 -11.848   6.525  1.00  0.00     0.753 A 
HETATM    6  N   UNL     1      42.838 -10.594   6.441  1.00  0.00     0.037 NA
HETATM    7  N   UNL     1      44.830 -10.649   9.330  1.00  0.00    -0.214 N 
HETATM    8  C   UNL     1      44.801  -9.304   9.884  1.00  0.00     0.135 C 
HETATM    9  C   UNL     1      44.458  -8.269   8.788  1.00  0.00     0.063 C 
HETATM   10  H   UNL     1      45.296 -11.374   9.867  1.00  0.00     0.178 HD
ENDROOT
BRANCH   1  11
HETATM   11  C   UNL     1      41.885  -8.371   8.634  1.00  0.00    -0.030 A 
HETATM   12  C   UNL     1      41.458  -7.066   8.957  1.00  0.00     0.046 A 
HETATM   13  C   UNL     1      40.217  -6.834   9.559  1.00  0.00     0.068 A 
HETATM   14  C   UNL     1      39.388  -7.915   9.853  1.00  0.00     0.037 A 
HETATM   15  C   UNL     1      39.797  -9.215   9.570  1.00  0.00     0.003 A 
HETATM   16  C   UNL     1      41.038  -9.441   8.976  1.00  0.00     0.009 A 
BRANCH  13  17
HETATM   17  O   UNL     1      39.704  -5.612   9.898  1.00  0.00    -0.356 OA
HETATM   18  C   UNL     1      38.784  -5.578  10.981  1.00  0.00     0.210 C 
ENDBRANCH  13  17
ENDBRANCH   1  11
BRANCH   8  19
HETATM   19  C   UNL     1      43.930  -9.190  11.127  1.00  0.00    -0.035 A 
HETATM   20  C   UNL     1      43.299 -10.294  11.724  1.00  0.00     0.010 A 
HETATM   21  C   UNL     1      42.469 -10.131  12.837  1.00  0.00     0.019 A 
HETATM   22  C   UNL     1      42.270  -8.863  13.375  1.00  0.00     0.011 A 
HETATM   23 BR   UNL     1      41.138  -8.642  14.871  1.00  0.00    -0.051 Br
HETATM   24  C   UNL     1      42.901  -7.757  12.816  1.00  0.00     0.019 A 
HETATM   25  C   UNL     1      43.727  -7.920  11.700  1.00  0.00     0.010 A 
ENDBRANCH   8  19
BRANCH   5  26
HETATM   26  N   UNL     1      43.003 -12.822   5.666  1.00  0.00    -0.229 N 
HETATM   27  H   UNL     1      43.162 -12.632   4.685  1.00  0.00     0.174 HD
HETATM   28  H   UNL     1      43.190 -13.770   5.961  1.00  0.00     0.174 HD
ENDBRANCH   5  26
TORSDOF 4
ENDMDL
