MODEL 1
REMARK VINA RESULT:      -8.2      0.000      0.000
REMARK  6 active torsions:
REMARK  status: ('A' for Active; 'I' for Inactive)
REMARK    1  A    between atoms: C_8  and  N_9 
REMARK       I    between atoms: N_9  and  C_10 
REMARK    2  A    between atoms: C_10  and  C_11 
REMARK    3  A    between atoms: C_11  and  N_12 
REMARK    4  A    between atoms: N_12  and  C_13 
REMARK    5  A    between atoms: C_13  and  C_14 
REMARK    6  A    between atoms: C_15  and  C_16 
ROOT
HETATM    1  N   UNL     1      42.377 -17.004   6.758  1.00  0.00     0.100 N 
HETATM    2  H   UNL     1      41.658 -17.293   6.087  1.00  0.00     0.317 HD
ENDROOT
BRANCH   1   3
HETATM    3  C   UNL     1      42.220 -15.548   6.943  1.00  0.00     0.372 C 
BRANCH   3   4
HETATM    4  C   UNL     1      40.948 -15.001   6.275  1.00  0.00     0.250 C 
HETATM    5  N   UNL     1      41.232 -14.348   5.091  1.00  0.00    -0.322 N 
HETATM    6  H   UNL     1      42.206 -14.266   4.828  1.00  0.00     0.169 HD
HETATM    7  O   UNL     1      39.845 -15.146   6.792  1.00  0.00    -0.271 OA
BRANCH   5   8
HETATM    8  C   UNL     1      40.337 -13.760   4.213  1.00  0.00     0.085 A 
HETATM    9  C   UNL     1      39.863 -14.445   3.108  1.00  0.00     0.052 A 
HETATM   10  C   UNL     1      40.126 -15.806   2.583  1.00  0.00     0.072 C 
HETATM   11  N   UNL     1      39.019 -13.585   2.468  1.00  0.00    -0.280 N 
HETATM   12  H   UNL     1      38.493 -13.741   1.614  1.00  0.00     0.189 HD
HETATM   13  N   UNL     1      38.894 -12.403   3.073  1.00  0.00    -0.177 NA
HETATM   14  C   UNL     1      39.697 -12.488   4.145  1.00  0.00     0.079 A 
HETATM   15  C   UNL     1      39.774 -11.313   5.048  1.00  0.00     0.075 C 
ENDBRANCH   5   8
ENDBRANCH   3   4
ENDBRANCH   1   3
BRANCH   1  16
HETATM   16  C   UNL     1      43.680 -17.396   6.210  1.00  0.00     0.250 C 
HETATM   17  C   UNL     1      44.686 -16.248   6.360  1.00  0.00     0.048 C 
BRANCH  16  18
HETATM   18  C   UNL     1      43.633 -17.882   4.765  1.00  0.00    -0.011 A 
HETATM   19  C   UNL     1      43.733 -19.235   4.357  1.00  0.00     0.056 A 
HETATM   20  C   UNL     1      43.680 -19.529   2.975  1.00  0.00     0.017 A 
HETATM   21  C   UNL     1      43.509 -18.528   2.018  1.00  0.00     0.001 A 
HETATM   22  C   UNL     1      43.393 -17.207   2.420  1.00  0.00     0.001 A 
HETATM   23  C   UNL     1      43.454 -16.888   3.776  1.00  0.00     0.010 A 
BRANCH  19  24
HETATM   24  C   UNL     1      43.951 -20.403   5.307  1.00  0.00     0.418 C 
HETATM   25  F   UNL     1      43.547 -20.192   6.586  1.00  0.00    -0.166 F 
HETATM   26  F   UNL     1      43.256 -21.518   4.913  1.00  0.00    -0.166 F 
HETATM   27  F   UNL     1      45.251 -20.813   5.353  1.00  0.00    -0.166 F 
ENDBRANCH  19  24
ENDBRANCH  16  18
ENDBRANCH   1  16
TORSDOF 6
ENDMDL
MODEL 2
REMARK VINA RESULT:      -8.0      2.229      3.526
REMARK  6 active torsions:
REMARK  status: ('A' for Active; 'I' for Inactive)
REMARK    1  A    between atoms: C_8  and  N_9 
REMARK       I    between atoms: N_9  and  C_10 
REMARK    2  A    between atoms: C_10  and  C_11 
REMARK    3  A    between atoms: C_11  and  N_12 
REMARK    4  A    between atoms: N_12  and  C_13 
REMARK    5  A    between atoms: C_13  and  C_14 
REMARK    6  A    between atoms: C_15  and  C_16 
ROOT
HETATM    1  N   UNL     1      41.279 -16.480   2.411  1.00  0.00     0.100 N 
HETATM    2  H   UNL     1      41.199 -15.845   1.610  1.00  0.00     0.317 HD
ENDROOT
BRANCH   1   3
HETATM    3  C   UNL     1      40.439 -15.913   3.485  1.00  0.00     0.372 C 
BRANCH   3   4
HETATM    4  C   UNL     1      40.733 -14.425   3.739  1.00  0.00     0.250 C 
HETATM    5  N   UNL     1      40.972 -14.171   5.075  1.00  0.00    -0.322 N 
HETATM    6  H   UNL     1      40.888 -14.949   5.718  1.00  0.00     0.169 HD
HETATM    7  O   UNL     1      40.723 -13.609   2.823  1.00  0.00    -0.271 OA
BRANCH   5   8
HETATM    8  C   UNL     1      41.297 -12.959   5.662  1.00  0.00     0.085 A 
HETATM    9  C   UNL     1      42.520 -12.768   6.280  1.00  0.00     0.052 A 
HETATM   10  C   UNL     1      43.687 -13.656   6.492  1.00  0.00     0.072 C 
HETATM   11  N   UNL     1      42.507 -11.485   6.746  1.00  0.00    -0.280 N 
HETATM   12  H   UNL     1      43.234 -10.996   7.260  1.00  0.00     0.189 HD
HETATM   13  N   UNL     1      41.383 -10.822   6.470  1.00  0.00    -0.177 NA
HETATM   14  C   UNL     1      40.625 -11.710   5.807  1.00  0.00     0.079 A 
HETATM   15  C   UNL     1      39.286 -11.268   5.343  1.00  0.00     0.075 C 
ENDBRANCH   5   8
ENDBRANCH   3   4
ENDBRANCH   1   3
BRANCH   1  16
HETATM   16  C   UNL     1      42.700 -16.582   2.760  1.00  0.00     0.250 C 
HETATM   17  C   UNL     1      43.566 -15.992   1.641  1.00  0.00     0.048 C 
BRANCH  16  18
HETATM   18  C   UNL     1      43.161 -17.995   3.105  1.00  0.00    -0.011 A 
HETATM   19  C   UNL     1      43.601 -18.419   4.383  1.00  0.00     0.056 A 
HETATM   20  C   UNL     1      44.007 -19.764   4.546  1.00  0.00     0.017 A 
HETATM   21  C   UNL     1      43.959 -20.677   3.492  1.00  0.00     0.001 A 
HETATM   22  C   UNL     1      43.511 -20.265   2.247  1.00  0.00     0.001 A 
HETATM   23  C   UNL     1      43.117 -18.942   2.056  1.00  0.00     0.010 A 
BRANCH  19  24
HETATM   24  C   UNL     1      43.723 -17.507   5.594  1.00  0.00     0.418 C 
HETATM   25  F   UNL     1      42.622 -16.761   5.870  1.00  0.00    -0.166 F 
HETATM   26  F   UNL     1      43.948 -18.215   6.747  1.00  0.00    -0.166 F 
HETATM   27  F   UNL     1      44.783 -16.652   5.510  1.00  0.00    -0.166 F 
ENDBRANCH  19  24
ENDBRANCH  16  18
ENDBRANCH   1  16
TORSDOF 6
ENDMDL
MODEL 3
REMARK VINA RESULT:      -7.9      2.340      3.955
REMARK  6 active torsions:
REMARK  status: ('A' for Active; 'I' for Inactive)
REMARK    1  A    between atoms: C_8  and  N_9 
REMARK       I    between atoms: N_9  and  C_10 
REMARK    2  A    between atoms: C_10  and  C_11 
REMARK    3  A    between atoms: C_11  and  N_12 
REMARK    4  A    between atoms: N_12  and  C_13 
REMARK    5  A    between atoms: C_13  and  C_14 
REMARK    6  A    between atoms: C_15  and  C_16 
ROOT
HETATM    1  N   UNL     1      41.402 -16.534   3.077  1.00  0.00     0.100 N 
HETATM    2  H   UNL     1      40.912 -17.067   2.351  1.00  0.00     0.317 HD
ENDROOT
BRANCH   1   3
HETATM    3  C   UNL     1      41.017 -15.120   2.895  1.00  0.00     0.372 C 
BRANCH   3   4
HETATM    4  C   UNL     1      41.242 -14.280   4.163  1.00  0.00     0.250 C 
HETATM    5  N   UNL     1      42.585 -14.145   4.456  1.00  0.00    -0.322 N 
HETATM    6  H   UNL     1      43.242 -14.628   3.857  1.00  0.00     0.169 HD
HETATM    7  O   UNL     1      40.298 -13.828   4.802  1.00  0.00    -0.271 OA
BRANCH   5   8
HETATM    8  C   UNL     1      43.157 -13.436   5.500  1.00  0.00     0.085 A 
HETATM    9  C   UNL     1      43.655 -12.159   5.310  1.00  0.00     0.052 A 
HETATM   10  C   UNL     1      43.737 -11.281   4.118  1.00  0.00     0.072 C 
HETATM   11  N   UNL     1      44.140 -11.762   6.522  1.00  0.00    -0.280 N 
HETATM   12  H   UNL     1      44.588 -10.883   6.762  1.00  0.00     0.189 HD
HETATM   13  N   UNL     1      43.986 -12.669   7.487  1.00  0.00    -0.177 NA
HETATM   14  C   UNL     1      43.387 -13.706   6.881  1.00  0.00     0.079 A 
HETATM   15  C   UNL     1      43.063 -14.898   7.703  1.00  0.00     0.075 C 
ENDBRANCH   5   8
ENDBRANCH   3   4
ENDBRANCH   1   3
BRANCH   1  16
HETATM   16  C   UNL     1      42.840 -16.783   2.919  1.00  0.00     0.250 C 
HETATM   17  C   UNL     1      43.313 -16.303   1.541  1.00  0.00     0.048 C 
BRANCH  16  18
HETATM   18  C   UNL     1      43.255 -18.232   3.153  1.00  0.00    -0.011 A 
HETATM   19  C   UNL     1      43.614 -18.783   4.408  1.00  0.00     0.056 A 
HETATM   20  C   UNL     1      43.986 -20.146   4.464  1.00  0.00     0.017 A 
HETATM   21  C   UNL     1      43.981 -20.956   3.328  1.00  0.00     0.001 A 
HETATM   22  C   UNL     1      43.611 -20.419   2.105  1.00  0.00     0.001 A 
HETATM   23  C   UNL     1      43.252 -19.076   2.018  1.00  0.00     0.010 A 
BRANCH  19  24
HETATM   24  C   UNL     1      43.685 -17.991   5.704  1.00  0.00     0.418 C 
HETATM   25  F   UNL     1      44.668 -17.055   5.758  1.00  0.00    -0.166 F 
HETATM   26  F   UNL     1      42.533 -17.283   5.933  1.00  0.00    -0.166 F 
HETATM   27  F   UNL     1      43.819 -18.785   6.805  1.00  0.00    -0.166 F 
ENDBRANCH  19  24
ENDBRANCH  16  18
ENDBRANCH   1  16
TORSDOF 6
ENDMDL
MODEL 4
REMARK VINA RESULT:      -7.8      3.212      4.229
REMARK  6 active torsions:
REMARK  status: ('A' for Active; 'I' for Inactive)
REMARK    1  A    between atoms: C_8  and  N_9 
REMARK       I    between atoms: N_9  and  C_10 
REMARK    2  A    between atoms: C_10  and  C_11 
REMARK    3  A    between atoms: C_11  and  N_12 
REMARK    4  A    between atoms: N_12  and  C_13 
REMARK    5  A    between atoms: C_13  and  C_14 
REMARK    6  A    between atoms: C_15  and  C_16 
ROOT
HETATM    1  N   UNL     1      41.608 -15.908   3.050  1.00  0.00     0.100 N 
HETATM    2  H   UNL     1      41.187 -16.540   3.738  1.00  0.00     0.317 HD
ENDROOT
BRANCH   1   3
HETATM    3  C   UNL     1      40.847 -16.082   1.797  1.00  0.00     0.372 C 
BRANCH   3   4
HETATM    4  C   UNL     1      40.223 -14.768   1.299  1.00  0.00     0.250 C 
HETATM    5  N   UNL     1      40.435 -14.580  -0.053  1.00  0.00    -0.322 N 
HETATM    6  H   UNL     1      40.991 -15.274  -0.537  1.00  0.00     0.169 HD
HETATM    7  O   UNL     1      39.635 -14.013   2.066  1.00  0.00    -0.271 OA
BRANCH   5   8
HETATM    8  C   UNL     1      39.994 -13.530  -0.842  1.00  0.00     0.085 A 
HETATM    9  C   UNL     1      39.218 -13.756  -1.965  1.00  0.00     0.052 A 
HETATM   10  C   UNL     1      38.701 -14.993  -2.596  1.00  0.00     0.072 C 
HETATM   11  N   UNL     1      38.967 -12.525  -2.500  1.00  0.00    -0.280 N 
HETATM   12  H   UNL     1      38.435 -12.300  -3.335  1.00  0.00     0.189 HD
HETATM   13  N   UNL     1      39.504 -11.518  -1.809  1.00  0.00    -0.177 NA
HETATM   14  C   UNL     1      40.141 -12.113  -0.788  1.00  0.00     0.079 A 
HETATM   15  C   UNL     1      40.846 -11.247   0.189  1.00  0.00     0.075 C 
ENDBRANCH   5   8
ENDBRANCH   3   4
ENDBRANCH   1   3
BRANCH   1  16
HETATM   16  C   UNL     1      43.029 -16.256   2.935  1.00  0.00     0.250 C 
HETATM   17  C   UNL     1      43.540 -15.943   1.523  1.00  0.00     0.048 C 
BRANCH  16  18
HETATM   18  C   UNL     1      43.354 -17.698   3.314  1.00  0.00    -0.011 A 
HETATM   19  C   UNL     1      43.679 -18.142   4.620  1.00  0.00     0.056 A 
HETATM   20  C   UNL     1      43.966 -19.513   4.814  1.00  0.00     0.017 A 
HETATM   21  C   UNL     1      43.911 -20.430   3.763  1.00  0.00     0.001 A 
HETATM   22  C   UNL     1      43.574 -19.996   2.491  1.00  0.00     0.001 A 
HETATM   23  C   UNL     1      43.299 -18.648   2.269  1.00  0.00     0.010 A 
BRANCH  19  24
HETATM   24  C   UNL     1      43.799 -17.230   5.831  1.00  0.00     0.418 C 
HETATM   25  F   UNL     1      42.741 -16.405   6.041  1.00  0.00    -0.166 F 
HETATM   26  F   UNL     1      43.907 -17.943   6.998  1.00  0.00    -0.166 F 
HETATM   27  F   UNL     1      44.921 -16.455   5.803  1.00  0.00    -0.166 F 
ENDBRANCH  19  24
ENDBRANCH  16  18
ENDBRANCH   1  16
TORSDOF 6
ENDMDL
MODEL 5
REMARK VINA RESULT:      -7.7      4.617      5.720
REMARK  6 active torsions:
REMARK  status: ('A' for Active; 'I' for Inactive)
REMARK    1  A    between atoms: C_8  and  N_9 
REMARK       I    between atoms: N_9  and  C_10 
REMARK    2  A    between atoms: C_10  and  C_11 
REMARK    3  A    between atoms: C_11  and  N_12 
REMARK    4  A    between atoms: N_12  and  C_13 
REMARK    5  A    between atoms: C_13  and  C_14 
REMARK    6  A    between atoms: C_15  and  C_16 
ROOT
HETATM    1  N   UNL     1      42.989 -14.191   5.540  1.00  0.00     0.100 N 
HETATM    2  H   UNL     1      43.802 -14.319   4.928  1.00  0.00     0.317 HD
ENDROOT
BRANCH   1   3
HETATM    3  C   UNL     1      43.500 -13.636   6.809  1.00  0.00     0.372 C 
BRANCH   3   4
HETATM    4  C   UNL     1      43.945 -12.170   6.675  1.00  0.00     0.250 C 
HETATM    5  N   UNL     1      43.766 -11.471   7.853  1.00  0.00    -0.322 N 
HETATM    6  H   UNL     1      43.341 -11.966   8.626  1.00  0.00     0.169 HD
HETATM    7  O   UNL     1      44.381 -11.732   5.615  1.00  0.00    -0.271 OA
BRANCH   5   8
HETATM    8  C   UNL     1      44.082 -10.147   8.107  1.00  0.00     0.085 A 
HETATM    9  C   UNL     1      43.101  -9.225   8.428  1.00  0.00     0.052 A 
HETATM   10  C   UNL     1      41.630  -9.334   8.569  1.00  0.00     0.072 C 
HETATM   11  N   UNL     1      43.748  -8.037   8.609  1.00  0.00    -0.280 N 
HETATM   12  H   UNL     1      43.349  -7.135   8.847  1.00  0.00     0.189 HD
HETATM   13  N   UNL     1      45.070  -8.113   8.446  1.00  0.00    -0.177 NA
HETATM   14  C   UNL     1      45.296  -9.399   8.135  1.00  0.00     0.079 A 
HETATM   15  C   UNL     1      46.700  -9.818   7.896  1.00  0.00     0.075 C 
ENDBRANCH   5   8
ENDBRANCH   3   4
ENDBRANCH   1   3
BRANCH   1  16
HETATM   16  C   UNL     1      42.330 -15.494   5.685  1.00  0.00     0.250 C 
HETATM   17  C   UNL     1      42.457 -15.996   7.128  1.00  0.00     0.048 C 
BRANCH  16  18
HETATM   18  C   UNL     1      42.818 -16.556   4.704  1.00  0.00    -0.011 A 
HETATM   19  C   UNL     1      42.296 -16.763   3.403  1.00  0.00     0.056 A 
HETATM   20  C   UNL     1      42.849 -17.797   2.612  1.00  0.00     0.017 A 
HETATM   21  C   UNL     1      43.901 -18.590   3.071  1.00  0.00     0.001 A 
HETATM   22  C   UNL     1      44.422 -18.372   4.336  1.00  0.00     0.001 A 
HETATM   23  C   UNL     1      43.888 -17.369   5.142  1.00  0.00     0.010 A 
BRANCH  19  24
HETATM   24  C   UNL     1      41.133 -15.982   2.811  1.00  0.00     0.418 C 
HETATM   25  F   UNL     1      41.368 -14.660   2.607  1.00  0.00    -0.166 F 
HETATM   26  F   UNL     1      40.777 -16.456   1.574  1.00  0.00    -0.166 F 
HETATM   27  F   UNL     1      39.993 -16.083   3.553  1.00  0.00    -0.166 F 
ENDBRANCH  19  24
ENDBRANCH  16  18
ENDBRANCH   1  16
TORSDOF 6
ENDMDL
MODEL 6
REMARK VINA RESULT:      -7.5      2.696      3.361
REMARK  6 active torsions:
REMARK  status: ('A' for Active; 'I' for Inactive)
REMARK    1  A    between atoms: C_8  and  N_9 
REMARK       I    between atoms: N_9  and  C_10 
REMARK    2  A    between atoms: C_10  and  C_11 
REMARK    3  A    between atoms: C_11  and  N_12 
REMARK    4  A    between atoms: N_12  and  C_13 
REMARK    5  A    between atoms: C_13  and  C_14 
REMARK    6  A    between atoms: C_15  and  C_16 
ROOT
HETATM    1  N   UNL     1      44.661 -16.934   5.603  1.00  0.00     0.100 N 
HETATM    2  H   UNL     1      45.537 -17.452   5.489  1.00  0.00     0.317 HD
ENDROOT
BRANCH   1   3
HETATM    3  C   UNL     1      44.744 -16.245   6.906  1.00  0.00     0.372 C 
BRANCH   3   4
HETATM    4  C   UNL     1      43.524 -15.351   7.180  1.00  0.00     0.250 C 
HETATM    5  N   UNL     1      42.963 -14.877   6.010  1.00  0.00    -0.322 N 
HETATM    6  H   UNL     1      43.421 -15.124   5.143  1.00  0.00     0.169 HD
HETATM    7  O   UNL     1      43.155 -15.111   8.326  1.00  0.00    -0.271 OA
BRANCH   5   8
HETATM    8  C   UNL     1      41.842 -14.074   5.873  1.00  0.00     0.085 A 
HETATM    9  C   UNL     1      40.570 -14.580   6.073  1.00  0.00     0.052 A 
HETATM   10  C   UNL     1      40.071 -15.929   6.430  1.00  0.00     0.072 C 
HETATM   11  N   UNL     1      39.715 -13.538   5.857  1.00  0.00    -0.280 N 
HETATM   12  H   UNL     1      38.701 -13.538   5.906  1.00  0.00     0.189 HD
HETATM   13  N   UNL     1      40.327 -12.395   5.546  1.00  0.00    -0.177 NA
HETATM   14  C   UNL     1      41.633 -12.702   5.548  1.00  0.00     0.079 A 
HETATM   15  C   UNL     1      42.601 -11.619   5.242  1.00  0.00     0.075 C 
ENDBRANCH   5   8
ENDBRANCH   3   4
ENDBRANCH   1   3
BRANCH   1  16
HETATM   16  C   UNL     1      43.558 -17.897   5.510  1.00  0.00     0.250 C 
HETATM   17  C   UNL     1      43.547 -18.813   6.740  1.00  0.00     0.048 C 
BRANCH  16  18
HETATM   18  C   UNL     1      43.552 -18.722   4.228  1.00  0.00    -0.011 A 
HETATM   19  C   UNL     1      43.177 -18.238   2.950  1.00  0.00     0.056 A 
HETATM   20  C   UNL     1      43.216 -19.130   1.853  1.00  0.00     0.017 A 
HETATM   21  C   UNL     1      43.635 -20.453   1.997  1.00  0.00     0.001 A 
HETATM   22  C   UNL     1      44.019 -20.919   3.245  1.00  0.00     0.001 A 
HETATM   23  C   UNL     1      43.978 -20.065   4.345  1.00  0.00     0.010 A 
BRANCH  19  24
HETATM   24  C   UNL     1      42.677 -16.828   2.679  1.00  0.00     0.418 C 
HETATM   25  F   UNL     1      42.221 -16.607   1.420  1.00  0.00    -0.166 F 
HETATM   26  F   UNL     1      41.617 -16.499   3.485  1.00  0.00    -0.166 F 
HETATM   27  F   UNL     1      43.614 -15.872   2.945  1.00  0.00    -0.166 F 
ENDBRANCH  19  24
ENDBRANCH  16  18
ENDBRANCH   1  16
TORSDOF 6
ENDMDL
MODEL 7
REMARK VINA RESULT:      -7.5      2.018      2.318
REMARK  6 active torsions:
REMARK  status: ('A' for Active; 'I' for Inactive)
REMARK    1  A    between atoms: C_8  and  N_9 
REMARK       I    between atoms: N_9  and  C_10 
REMARK    2  A    between atoms: C_10  and  C_11 
REMARK    3  A    between atoms: C_11  and  N_12 
REMARK    4  A    between atoms: N_12  and  C_13 
REMARK    5  A    between atoms: C_13  and  C_14 
REMARK    6  A    between atoms: C_15  and  C_16 
ROOT
HETATM    1  N   UNL     1      42.357 -16.578   6.638  1.00  0.00     0.100 N 
HETATM    2  H   UNL     1      41.731 -16.480   5.832  1.00  0.00     0.317 HD
ENDROOT
BRANCH   1   3
HETATM    3  C   UNL     1      42.612 -15.215   7.144  1.00  0.00     0.372 C 
BRANCH   3   4
HETATM    4  C   UNL     1      41.993 -14.128   6.248  1.00  0.00     0.250 C 
HETATM    5  N   UNL     1      42.879 -13.097   6.008  1.00  0.00    -0.322 N 
HETATM    6  H   UNL     1      43.782 -13.145   6.462  1.00  0.00     0.169 HD
HETATM    7  O   UNL     1      40.838 -14.220   5.844  1.00  0.00    -0.271 OA
BRANCH   5   8
HETATM    8  C   UNL     1      42.677 -11.972   5.225  1.00  0.00     0.085 A 
HETATM    9  C   UNL     1      42.862 -12.010   3.854  1.00  0.00     0.052 A 
HETATM   10  C   UNL     1      43.280 -13.089   2.928  1.00  0.00     0.072 C 
HETATM   11  N   UNL     1      42.585 -10.752   3.404  1.00  0.00    -0.280 N 
HETATM   12  H   UNL     1      42.622 -10.404   2.451  1.00  0.00     0.189 HD
HETATM   13  N   UNL     1      42.222  -9.902   4.367  1.00  0.00    -0.177 NA
HETATM   14  C   UNL     1      42.274 -10.630   5.493  1.00  0.00     0.079 A 
HETATM   15  C   UNL     1      41.910  -9.963   6.768  1.00  0.00     0.075 C 
ENDBRANCH   5   8
ENDBRANCH   3   4
ENDBRANCH   1   3
BRANCH   1  16
HETATM   16  C   UNL     1      43.564 -17.277   6.183  1.00  0.00     0.250 C 
HETATM   17  C   UNL     1      44.808 -16.421   6.454  1.00  0.00     0.048 C 
BRANCH  16  18
HETATM   18  C   UNL     1      43.523 -17.712   4.721  1.00  0.00    -0.011 A 
HETATM   19  C   UNL     1      43.683 -19.044   4.264  1.00  0.00     0.056 A 
HETATM   20  C   UNL     1      43.628 -19.290   2.872  1.00  0.00     0.017 A 
HETATM   21  C   UNL     1      43.397 -18.265   1.954  1.00  0.00     0.001 A 
HETATM   22  C   UNL     1      43.222 -16.966   2.405  1.00  0.00     0.001 A 
HETATM   23  C   UNL     1      43.284 -16.694   3.770  1.00  0.00     0.010 A 
BRANCH  19  24
HETATM   24  C   UNL     1      43.969 -20.233   5.168  1.00  0.00     0.418 C 
HETATM   25  F   UNL     1      45.283 -20.542   5.319  1.00  0.00    -0.166 F 
HETATM   26  F   UNL     1      43.523 -20.021   6.447  1.00  0.00    -0.166 F 
HETATM   27  F   UNL     1      43.327 -21.369   4.769  1.00  0.00    -0.166 F 
ENDBRANCH  19  24
ENDBRANCH  16  18
ENDBRANCH   1  16
TORSDOF 6
ENDMDL
MODEL 8
REMARK VINA RESULT:      -7.4      2.340      3.635
REMARK  6 active torsions:
REMARK  status: ('A' for Active; 'I' for Inactive)
REMARK    1  A    between atoms: C_8  and  N_9 
REMARK       I    between atoms: N_9  and  C_10 
REMARK    2  A    between atoms: C_10  and  C_11 
REMARK    3  A    between atoms: C_11  and  N_12 
REMARK    4  A    between atoms: N_12  and  C_13 
REMARK    5  A    between atoms: C_13  and  C_14 
REMARK    6  A    between atoms: C_15  and  C_16 
ROOT
HETATM    1  N   UNL     1      41.237 -16.508   2.010  1.00  0.00     0.100 N 
HETATM    2  H   UNL     1      41.309 -16.015   1.114  1.00  0.00     0.317 HD
ENDROOT
BRANCH   1   3
HETATM    3  C   UNL     1      40.188 -15.819   2.787  1.00  0.00     0.372 C 
BRANCH   3   4
HETATM    4  C   UNL     1      40.113 -14.315   2.474  1.00  0.00     0.250 C 
HETATM    5  N   UNL     1      39.426 -13.622   3.451  1.00  0.00    -0.322 N 
HETATM    6  H   UNL     1      39.028 -14.161   4.210  1.00  0.00     0.169 HD
HETATM    7  O   UNL     1      40.609 -13.853   1.451  1.00  0.00    -0.271 OA
BRANCH   5   8
HETATM    8  C   UNL     1      39.190 -12.258   3.515  1.00  0.00     0.085 A 
HETATM    9  C   UNL     1      39.608 -11.509   4.601  1.00  0.00     0.052 A 
HETATM   10  C   UNL     1      40.317 -11.865   5.852  1.00  0.00     0.072 C 
HETATM   11  N   UNL     1      39.217 -10.227   4.343  1.00  0.00    -0.280 N 
HETATM   12  H   UNL     1      39.346  -9.403   4.922  1.00  0.00     0.189 HD
HETATM   13  N   UNL     1      38.592 -10.078   3.174  1.00  0.00    -0.177 NA
HETATM   14  C   UNL     1      38.563 -11.314   2.650  1.00  0.00     0.079 A 
HETATM   15  C   UNL     1      37.929 -11.488   1.319  1.00  0.00     0.075 C 
ENDBRANCH   5   8
ENDBRANCH   3   4
ENDBRANCH   1   3
BRANCH   1  16
HETATM   16  C   UNL     1      42.560 -16.478   2.643  1.00  0.00     0.250 C 
HETATM   17  C   UNL     1      43.573 -15.784   1.724  1.00  0.00     0.048 C 
BRANCH  16  18
HETATM   18  C   UNL     1      43.079 -17.846   3.075  1.00  0.00    -0.011 A 
HETATM   19  C   UNL     1      43.526 -18.172   4.379  1.00  0.00     0.056 A 
HETATM   20  C   UNL     1      43.988 -19.486   4.625  1.00  0.00     0.017 A 
HETATM   21  C   UNL     1      43.990 -20.462   3.628  1.00  0.00     0.001 A 
HETATM   22  C   UNL     1      43.535 -20.146   2.357  1.00  0.00     0.001 A 
HETATM   23  C   UNL     1      43.086 -18.855   2.084  1.00  0.00     0.010 A 
BRANCH  19  24
HETATM   24  C   UNL     1      43.597 -17.185   5.534  1.00  0.00     0.418 C 
HETATM   25  F   UNL     1      44.453 -16.146   5.355  1.00  0.00    -0.166 F 
HETATM   26  F   UNL     1      42.385 -16.587   5.770  1.00  0.00    -0.166 F 
HETATM   27  F   UNL     1      43.919 -17.777   6.720  1.00  0.00    -0.166 F 
ENDBRANCH  19  24
ENDBRANCH  16  18
ENDBRANCH   1  16
TORSDOF 6
ENDMDL
MODEL 9
REMARK VINA RESULT:      -7.2      3.823      6.880
REMARK  6 active torsions:
REMARK  status: ('A' for Active; 'I' for Inactive)
REMARK    1  A    between atoms: C_8  and  N_9 
REMARK       I    between atoms: N_9  and  C_10 
REMARK    2  A    between atoms: C_10  and  C_11 
REMARK    3  A    between atoms: C_11  and  N_12 
REMARK    4  A    between atoms: N_12  and  C_13 
REMARK    5  A    between atoms: C_13  and  C_14 
REMARK    6  A    between atoms: C_15  and  C_16 
ROOT
HETATM    1  N   UNL     1      41.704 -13.665   0.956  1.00  0.00     0.100 N 
HETATM    2  H   UNL     1      41.287 -13.397   0.059  1.00  0.00     0.317 HD
ENDROOT
BRANCH   1   3
HETATM    3  C   UNL     1      41.475 -15.115   1.112  1.00  0.00     0.372 C 
BRANCH   3   4
HETATM    4  C   UNL     1      42.682 -15.840   1.729  1.00  0.00     0.250 C 
HETATM    5  N   UNL     1      42.290 -16.847   2.589  1.00  0.00    -0.322 N 
HETATM    6  H   UNL     1      41.297 -16.963   2.746  1.00  0.00     0.169 HD
HETATM    7  O   UNL     1      43.831 -15.504   1.461  1.00  0.00    -0.271 OA
BRANCH   5   8
HETATM    8  C   UNL     1      43.100 -17.721   3.295  1.00  0.00     0.085 A 
HETATM    9  C   UNL     1      43.635 -17.370   4.522  1.00  0.00     0.052 A 
HETATM   10  C   UNL     1      43.540 -16.140   5.343  1.00  0.00     0.072 C 
HETATM   11  N   UNL     1      44.373 -18.443   4.929  1.00  0.00    -0.280 N 
HETATM   12  H   UNL     1      44.916 -18.545   5.781  1.00  0.00     0.189 HD
HETATM   13  N   UNL     1      44.352 -19.468   4.076  1.00  0.00    -0.177 NA
HETATM   14  C   UNL     1      43.578 -19.045   3.064  1.00  0.00     0.079 A 
HETATM   15  C   UNL     1      43.344 -19.977   1.933  1.00  0.00     0.075 C 
ENDBRANCH   5   8
ENDBRANCH   3   4
ENDBRANCH   1   3
BRANCH   1  16
HETATM   16  C   UNL     1      41.077 -12.849   2.001  1.00  0.00     0.250 C 
HETATM   17  C   UNL     1      40.550 -11.537   1.406  1.00  0.00     0.048 C 
BRANCH  16  18
HETATM   18  C   UNL     1      41.975 -12.569   3.202  1.00  0.00    -0.011 A 
HETATM   19  C   UNL     1      41.700 -12.968   4.534  1.00  0.00     0.056 A 
HETATM   20  C   UNL     1      42.628 -12.626   5.545  1.00  0.00     0.017 A 
HETATM   21  C   UNL     1      43.806 -11.936   5.257  1.00  0.00     0.001 A 
HETATM   22  C   UNL     1      44.081 -11.564   3.951  1.00  0.00     0.001 A 
HETATM   23  C   UNL     1      43.178 -11.876   2.937  1.00  0.00     0.010 A 
BRANCH  19  24
HETATM   24  C   UNL     1      40.438 -13.695   4.968  1.00  0.00     0.418 C 
HETATM   25  F   UNL     1      39.273 -13.062   4.672  1.00  0.00    -0.166 F 
HETATM   26  F   UNL     1      40.319 -14.920   4.362  1.00  0.00    -0.166 F 
HETATM   27  F   UNL     1      40.419 -13.976   6.303  1.00  0.00    -0.166 F 
ENDBRANCH  19  24
ENDBRANCH  16  18
ENDBRANCH   1  16
TORSDOF 6
ENDMDL
MODEL 10
REMARK VINA RESULT:      -7.2      4.569      5.722
REMARK  6 active torsions:
REMARK  status: ('A' for Active; 'I' for Inactive)
REMARK    1  A    between atoms: C_8  and  N_9 
REMARK       I    between atoms: N_9  and  C_10 
REMARK    2  A    between atoms: C_10  and  C_11 
REMARK    3  A    between atoms: C_11  and  N_12 
REMARK    4  A    between atoms: N_12  and  C_13 
REMARK    5  A    between atoms: C_13  and  C_14 
REMARK    6  A    between atoms: C_15  and  C_16 
ROOT
HETATM    1  N   UNL     1      42.584 -13.881   6.027  1.00  0.00     0.100 N 
HETATM    2  H   UNL     1      42.791 -14.160   6.992  1.00  0.00     0.317 HD
ENDROOT
BRANCH   1   3
HETATM    3  C   UNL     1      41.880 -12.586   6.104  1.00  0.00     0.372 C 
BRANCH   3   4
HETATM    4  C   UNL     1      42.843 -11.388   6.068  1.00  0.00     0.250 C 
HETATM    5  N   UNL     1      43.404 -11.145   7.307  1.00  0.00    -0.322 N 
HETATM    6  H   UNL     1      43.101 -11.728   8.076  1.00  0.00     0.169 HD
HETATM    7  O   UNL     1      43.032 -10.755   5.034  1.00  0.00    -0.271 OA
BRANCH   5   8
HETATM    8  C   UNL     1      44.332 -10.172   7.639  1.00  0.00     0.085 A 
HETATM    9  C   UNL     1      45.663 -10.299   7.282  1.00  0.00     0.052 A 
HETATM   10  C   UNL     1      46.411 -11.353   6.557  1.00  0.00     0.072 C 
HETATM   11  N   UNL     1      46.287  -9.184   7.762  1.00  0.00    -0.280 N 
HETATM   12  H   UNL     1      47.270  -8.938   7.695  1.00  0.00     0.189 HD
HETATM   13  N   UNL     1      45.471  -8.337   8.389  1.00  0.00    -0.177 NA
HETATM   14  C   UNL     1      44.265  -8.924   8.327  1.00  0.00     0.079 A 
HETATM   15  C   UNL     1      43.115  -8.214   8.939  1.00  0.00     0.075 C 
ENDBRANCH   5   8
ENDBRANCH   3   4
ENDBRANCH   1   3
BRANCH   1  16
HETATM   16  C   UNL     1      41.790 -14.953   5.415  1.00  0.00     0.250 C 
HETATM   17  C   UNL     1      40.551 -15.251   6.268  1.00  0.00     0.048 C 
BRANCH  16  18
HETATM   18  C   UNL     1      42.572 -16.234   5.140  1.00  0.00    -0.011 A 
HETATM   19  C   UNL     1      43.119 -16.600   3.886  1.00  0.00     0.056 A 
HETATM   20  C   UNL     1      43.814 -17.828   3.786  1.00  0.00     0.017 A 
HETATM   21  C   UNL     1      43.990 -18.663   4.890  1.00  0.00     0.001 A 
HETATM   22  C   UNL     1      43.469 -18.294   6.120  1.00  0.00     0.001 A 
HETATM   23  C   UNL     1      42.770 -17.095   6.244  1.00  0.00     0.010 A 
BRANCH  19  24
HETATM   24  C   UNL     1      42.965 -15.786   2.611  1.00  0.00     0.418 C 
HETATM   25  F   UNL     1      41.684 -15.579   2.209  1.00  0.00    -0.166 F 
HETATM   26  F   UNL     1      43.483 -14.523   2.745  1.00  0.00    -0.166 F 
HETATM   27  F   UNL     1      43.642 -16.319   1.555  1.00  0.00    -0.166 F 
ENDBRANCH  19  24
ENDBRANCH  16  18
ENDBRANCH   1  16
TORSDOF 6
ENDMDL
