MODEL 1
REMARK VINA RESULT:      -9.4      0.000      0.000
REMARK  2 active torsions:
REMARK  status: ('A' for Active; 'I' for Inactive)
REMARK    1  A    between atoms: C_4  and  C_5 
REMARK       I    between atoms: N_12  and  C_13 
REMARK    2  A    between atoms: C_13  and  C_14 
ROOT
HETATM    1  C   UNL     1      44.899  -9.122   8.787  1.00  0.00     0.097 A 
HETATM    2  N   UNL     1      46.181  -8.709   8.718  1.00  0.00    -0.173 NA
HETATM    3  N   UNL     1      46.746  -9.464   7.764  1.00  0.00    -0.281 N 
HETATM    4  H   UNL     1      47.724  -9.306   7.545  1.00  0.00     0.189 HD
HETATM    5  C   UNL     1      45.879 -10.345   7.211  1.00  0.00     0.039 A 
HETATM    6  C   UNL     1      44.670 -10.167   7.841  1.00  0.00     0.015 A 
HETATM    7  C   UNL     1      43.454 -10.953   7.506  1.00  0.00     0.168 C 
HETATM    8  N   UNL     1      43.672 -11.842   6.340  1.00  0.00    -0.347 N 
HETATM    9  C   UNL     1      42.522 -12.505   5.910  1.00  0.00     0.226 C 
HETATM   10  O   UNL     1      41.415 -12.234   6.383  1.00  0.00    -0.273 OA
HETATM   11  C   UNL     1      45.042 -12.378   6.132  1.00  0.00     0.132 C 
HETATM   12  C   UNL     1      46.141 -11.296   6.116  1.00  0.00     0.079 C 
ENDROOT
BRANCH   9  13
HETATM   13  C   UNL     1      42.654 -13.555   4.819  1.00  0.00     0.106 C 
HETATM   14  C   UNL     1      41.323 -13.763   4.109  1.00  0.00     0.190 C 
HETATM   15  O   UNL     1      41.462 -14.616   2.965  1.00  0.00    -0.350 OA
HETATM   16  C   UNL     1      42.172 -15.767   3.196  1.00  0.00     0.075 A 
HETATM   17  C   UNL     1      42.977 -15.966   4.324  1.00  0.00    -0.024 A 
HETATM   18  C   UNL     1      42.091 -16.748   2.208  1.00  0.00     0.037 A 
HETATM   19  C   UNL     1      43.077 -14.910   5.390  1.00  0.00     0.057 C 
HETATM   20  C   UNL     1      43.669 -17.175   4.468  1.00  0.00     0.010 A 
HETATM   21  C   UNL     1      43.580 -18.160   3.482  1.00  0.00     0.001 A 
HETATM   22  C   UNL     1      42.793 -17.945   2.352  1.00  0.00     0.003 A 
ENDBRANCH   9  13
BRANCH   1  23
HETATM   23  C   UNL     1      43.964  -8.484   9.724  1.00  0.00    -0.005 A 
HETATM   24  C   UNL     1      43.837  -8.986  11.030  1.00  0.00     0.014 A 
HETATM   25  C   UNL     1      42.967  -8.391  11.949  1.00  0.00     0.001 A 
HETATM   26  C   UNL     1      42.209  -7.286  11.575  1.00  0.00     0.000 A 
HETATM   27  C   UNL     1      42.313  -6.783  10.280  1.00  0.00     0.001 A 
HETATM   28  C   UNL     1      43.179  -7.382   9.359  1.00  0.00     0.014 A 
ENDBRANCH   1  23
TORSDOF 2
ENDMDL
MODEL 2
REMARK VINA RESULT:      -9.0      6.570      8.052
REMARK  2 active torsions:
REMARK  status: ('A' for Active; 'I' for Inactive)
REMARK    1  A    between atoms: C_4  and  C_5 
REMARK       I    between atoms: N_12  and  C_13 
REMARK    2  A    between atoms: C_13  and  C_14 
ROOT
HETATM    1  C   UNL     1      39.823 -11.172   0.617  1.00  0.00     0.097 A 
HETATM    2  N   UNL     1      38.584 -10.818   1.015  1.00  0.00    -0.173 NA
HETATM    3  N   UNL     1      38.204 -11.771   1.878  1.00  0.00    -0.281 N 
HETATM    4  H   UNL     1      37.288 -11.690   2.309  1.00  0.00     0.189 HD
HETATM    5  C   UNL     1      39.148 -12.725   2.057  1.00  0.00     0.039 A 
HETATM    6  C   UNL     1      40.216 -12.386   1.259  1.00  0.00     0.015 A 
HETATM    7  C   UNL     1      41.462 -13.191   1.183  1.00  0.00     0.168 C 
HETATM    8  N   UNL     1      41.460 -14.310   2.155  1.00  0.00    -0.347 N 
HETATM    9  C   UNL     1      42.662 -15.017   2.208  1.00  0.00     0.226 C 
HETATM   10  O   UNL     1      43.661 -14.622   1.600  1.00  0.00    -0.273 OA
HETATM   11  C   UNL     1      40.149 -14.915   2.502  1.00  0.00     0.132 C 
HETATM   12  C   UNL     1      39.089 -13.891   2.957  1.00  0.00     0.079 C 
ENDROOT
BRANCH   9  13
HETATM   13  C   UNL     1      42.728 -16.275   3.058  1.00  0.00     0.106 C 
HETATM   14  C   UNL     1      43.629 -16.061   4.267  1.00  0.00     0.190 C 
HETATM   15  O   UNL     1      43.569 -17.170   5.173  1.00  0.00    -0.350 OA
HETATM   16  C   UNL     1      43.695 -18.399   4.578  1.00  0.00     0.075 A 
HETATM   17  C   UNL     1      43.561 -18.609   3.200  1.00  0.00    -0.024 A 
HETATM   18  C   UNL     1      43.927 -19.475   5.434  1.00  0.00     0.037 A 
HETATM   19  C   UNL     1      43.302 -17.456   2.272  1.00  0.00     0.057 C 
HETATM   20  C   UNL     1      43.701 -19.905   2.687  1.00  0.00     0.010 A 
HETATM   21  C   UNL     1      43.942 -20.980   3.545  1.00  0.00     0.001 A 
HETATM   22  C   UNL     1      44.052 -20.765   4.917  1.00  0.00     0.003 A 
ENDBRANCH   9  13
BRANCH   1  23
HETATM   23  C   UNL     1      40.569 -10.326  -0.325  1.00  0.00    -0.005 A 
HETATM   24  C   UNL     1      41.468  -9.364   0.164  1.00  0.00     0.014 A 
HETATM   25  C   UNL     1      42.203  -8.555  -0.708  1.00  0.00     0.001 A 
HETATM   26  C   UNL     1      42.048  -8.695  -2.084  1.00  0.00     0.000 A 
HETATM   27  C   UNL     1      41.152  -9.636  -2.586  1.00  0.00     0.001 A 
HETATM   28  C   UNL     1      40.412 -10.441  -1.713  1.00  0.00     0.014 A 
ENDBRANCH   1  23
TORSDOF 2
ENDMDL
MODEL 3
REMARK VINA RESULT:      -9.0      4.972      8.991
REMARK  2 active torsions:
REMARK  status: ('A' for Active; 'I' for Inactive)
REMARK    1  A    between atoms: C_4  and  C_5 
REMARK       I    between atoms: N_12  and  C_13 
REMARK    2  A    between atoms: C_13  and  C_14 
ROOT
HETATM    1  C   UNL     1      43.682 -17.043   4.865  1.00  0.00     0.097 A 
HETATM    2  N   UNL     1      44.297 -16.683   6.010  1.00  0.00    -0.173 NA
HETATM    3  N   UNL     1      43.991 -15.390   6.186  1.00  0.00    -0.281 N 
HETATM    4  H   UNL     1      44.354 -14.919   7.008  1.00  0.00     0.189 HD
HETATM    5  C   UNL     1      43.199 -14.900   5.203  1.00  0.00     0.039 A 
HETATM    6  C   UNL     1      42.973 -15.929   4.319  1.00  0.00     0.015 A 
HETATM    7  C   UNL     1      42.137 -15.785   3.100  1.00  0.00     0.168 C 
HETATM    8  N   UNL     1      41.485 -14.457   3.028  1.00  0.00    -0.347 N 
HETATM    9  C   UNL     1      40.589 -14.321   1.965  1.00  0.00     0.226 C 
HETATM   10  O   UNL     1      40.281 -15.290   1.265  1.00  0.00    -0.273 OA
HETATM   11  C   UNL     1      42.201 -13.306   3.634  1.00  0.00     0.132 C 
HETATM   12  C   UNL     1      42.638 -13.541   5.094  1.00  0.00     0.079 C 
ENDROOT
BRANCH   9  13
HETATM   13  C   UNL     1      39.974 -12.957   1.703  1.00  0.00     0.106 C 
HETATM   14  C   UNL     1      38.805 -12.704   2.646  1.00  0.00     0.190 C 
HETATM   15  O   UNL     1      38.321 -11.359   2.537  1.00  0.00    -0.350 OA
HETATM   16  C   UNL     1      38.121 -10.927   1.251  1.00  0.00     0.075 A 
HETATM   17  C   UNL     1      38.640 -11.581   0.126  1.00  0.00    -0.024 A 
HETATM   18  C   UNL     1      37.391  -9.748   1.105  1.00  0.00     0.037 A 
HETATM   19  C   UNL     1      39.434 -12.848   0.275  1.00  0.00     0.057 C 
HETATM   20  C   UNL     1      38.385 -11.058  -1.148  1.00  0.00     0.010 A 
HETATM   21  C   UNL     1      37.647  -9.882  -1.293  1.00  0.00     0.001 A 
HETATM   22  C   UNL     1      37.153  -9.226  -0.167  1.00  0.00     0.003 A 
ENDBRANCH   9  13
BRANCH   1  23
HETATM   23  C   UNL     1      43.781 -18.423   4.371  1.00  0.00    -0.005 A 
HETATM   24  C   UNL     1      43.949 -19.478   5.284  1.00  0.00     0.014 A 
HETATM   25  C   UNL     1      44.031 -20.803   4.846  1.00  0.00     0.001 A 
HETATM   26  C   UNL     1      43.949 -21.094   3.488  1.00  0.00     0.000 A 
HETATM   27  C   UNL     1      43.795 -20.059   2.568  1.00  0.00     0.001 A 
HETATM   28  C   UNL     1      43.718 -18.732   3.006  1.00  0.00     0.014 A 
ENDBRANCH   1  23
TORSDOF 2
ENDMDL
MODEL 4
REMARK VINA RESULT:      -8.9      6.438      9.777
REMARK  2 active torsions:
REMARK  status: ('A' for Active; 'I' for Inactive)
REMARK    1  A    between atoms: C_4  and  C_5 
REMARK       I    between atoms: N_12  and  C_13 
REMARK    2  A    between atoms: C_13  and  C_14 
ROOT
HETATM    1  C   UNL     1      41.423 -15.536   3.873  1.00  0.00     0.097 A 
HETATM    2  N   UNL     1      41.045 -15.241   5.133  1.00  0.00    -0.173 NA
HETATM    3  N   UNL     1      40.233 -14.180   5.020  1.00  0.00    -0.281 N 
HETATM    4  H   UNL     1      39.825 -13.797   5.867  1.00  0.00     0.189 HD
HETATM    5  C   UNL     1      40.069 -13.779   3.737  1.00  0.00     0.039 A 
HETATM    6  C   UNL     1      40.822 -14.622   2.954  1.00  0.00     0.015 A 
HETATM    7  C   UNL     1      40.898 -14.507   1.475  1.00  0.00     0.168 C 
HETATM    8  N   UNL     1      39.974 -13.473   0.951  1.00  0.00    -0.347 N 
HETATM    9  C   UNL     1      39.918 -13.417  -0.443  1.00  0.00     0.226 C 
HETATM   10  O   UNL     1      40.481 -14.268  -1.138  1.00  0.00    -0.273 OA
HETATM   11  C   UNL     1      39.688 -12.304   1.820  1.00  0.00     0.132 C 
HETATM   12  C   UNL     1      39.221 -12.680   3.241  1.00  0.00     0.079 C 
ENDROOT
BRANCH   9  13
HETATM   13  C   UNL     1      39.120 -12.300  -1.094  1.00  0.00     0.106 C 
HETATM   14  C   UNL     1      37.848 -12.846  -1.728  1.00  0.00     0.190 C 
HETATM   15  O   UNL     1      36.996 -11.792  -2.194  1.00  0.00    -0.350 OA
HETATM   16  C   UNL     1      37.633 -10.827  -2.931  1.00  0.00     0.075 A 
HETATM   17  C   UNL     1      39.025 -10.673  -2.966  1.00  0.00    -0.024 A 
HETATM   18  C   UNL     1      36.811  -9.949  -3.636  1.00  0.00     0.037 A 
HETATM   19  C   UNL     1      39.918 -11.610  -2.202  1.00  0.00     0.057 C 
HETATM   20  C   UNL     1      39.582  -9.651  -3.746  1.00  0.00     0.010 A 
HETATM   21  C   UNL     1      38.758  -8.779  -4.458  1.00  0.00     0.001 A 
HETATM   22  C   UNL     1      37.373  -8.926  -4.401  1.00  0.00     0.003 A 
ENDBRANCH   9  13
BRANCH   1  23
HETATM   23  C   UNL     1      42.309 -16.679   3.612  1.00  0.00    -0.005 A 
HETATM   24  C   UNL     1      43.314 -17.006   4.538  1.00  0.00     0.014 A 
HETATM   25  C   UNL     1      44.162 -18.097   4.326  1.00  0.00     0.001 A 
HETATM   26  C   UNL     1      44.020 -18.876   3.182  1.00  0.00     0.000 A 
HETATM   27  C   UNL     1      43.038 -18.559   2.247  1.00  0.00     0.001 A 
HETATM   28  C   UNL     1      42.192 -17.464   2.457  1.00  0.00     0.014 A 
ENDBRANCH   1  23
TORSDOF 2
ENDMDL
MODEL 5
REMARK VINA RESULT:      -8.8      2.073      2.527
REMARK  2 active torsions:
REMARK  status: ('A' for Active; 'I' for Inactive)
REMARK    1  A    between atoms: C_4  and  C_5 
REMARK       I    between atoms: N_12  and  C_13 
REMARK    2  A    between atoms: C_13  and  C_14 
ROOT
HETATM    1  C   UNL     1      42.475  -9.261   7.551  1.00  0.00     0.097 A 
HETATM    2  N   UNL     1      41.985  -8.220   6.848  1.00  0.00    -0.173 NA
HETATM    3  N   UNL     1      41.803  -8.686   5.604  1.00  0.00    -0.281 N 
HETATM    4  H   UNL     1      41.426  -8.053   4.906  1.00  0.00     0.189 HD
HETATM    5  C   UNL     1      42.152  -9.988   5.476  1.00  0.00     0.039 A 
HETATM    6  C   UNL     1      42.598 -10.407   6.707  1.00  0.00     0.015 A 
HETATM    7  C   UNL     1      43.069 -11.790   6.974  1.00  0.00     0.168 C 
HETATM    8  N   UNL     1      42.878 -12.677   5.802  1.00  0.00    -0.347 N 
HETATM    9  C   UNL     1      43.188 -14.016   6.048  1.00  0.00     0.226 C 
HETATM   10  O   UNL     1      43.447 -14.412   7.188  1.00  0.00    -0.273 OA
HETATM   11  C   UNL     1      42.961 -12.061   4.454  1.00  0.00     0.132 C 
HETATM   12  C   UNL     1      42.048 -10.831   4.271  1.00  0.00     0.079 C 
ENDROOT
BRANCH   9  13
HETATM   13  C   UNL     1      43.173 -14.991   4.882  1.00  0.00     0.106 C 
HETATM   14  C   UNL     1      41.745 -15.266   4.430  1.00  0.00     0.190 C 
HETATM   15  O   UNL     1      41.713 -16.042   3.225  1.00  0.00    -0.350 OA
HETATM   16  C   UNL     1      42.530 -17.143   3.234  1.00  0.00     0.075 A 
HETATM   17  C   UNL     1      43.555 -17.338   4.170  1.00  0.00    -0.024 A 
HETATM   18  C   UNL     1      42.323 -18.072   2.216  1.00  0.00     0.037 A 
HETATM   19  C   UNL     1      43.791 -16.337   5.266  1.00  0.00     0.057 C 
HETATM   20  C   UNL     1      44.343 -18.494   4.093  1.00  0.00     0.010 A 
HETATM   21  C   UNL     1      44.127 -19.427   3.077  1.00  0.00     0.001 A 
HETATM   22  C   UNL     1      43.119 -19.215   2.138  1.00  0.00     0.003 A 
ENDBRANCH   9  13
BRANCH   1  23
HETATM   23  C   UNL     1      42.772  -9.116   8.983  1.00  0.00    -0.005 A 
HETATM   24  C   UNL     1      41.721  -8.924   9.895  1.00  0.00     0.014 A 
HETATM   25  C   UNL     1      41.970  -8.797  11.265  1.00  0.00     0.001 A 
HETATM   26  C   UNL     1      43.276  -8.859  11.743  1.00  0.00     0.000 A 
HETATM   27  C   UNL     1      44.331  -9.036  10.851  1.00  0.00     0.001 A 
HETATM   28  C   UNL     1      44.081  -9.157   9.480  1.00  0.00     0.014 A 
ENDBRANCH   1  23
TORSDOF 2
ENDMDL
MODEL 6
REMARK VINA RESULT:      -8.8      5.011      9.022
REMARK  2 active torsions:
REMARK  status: ('A' for Active; 'I' for Inactive)
REMARK    1  A    between atoms: C_4  and  C_5 
REMARK       I    between atoms: N_12  and  C_13 
REMARK    2  A    between atoms: C_13  and  C_14 
ROOT
HETATM    1  C   UNL     1      43.608 -16.920   4.847  1.00  0.00     0.097 A 
HETATM    2  N   UNL     1      44.003 -16.583   6.091  1.00  0.00    -0.173 NA
HETATM    3  N   UNL     1      43.748 -15.271   6.201  1.00  0.00    -0.281 N 
HETATM    4  H   UNL     1      43.968 -14.812   7.079  1.00  0.00     0.189 HD
HETATM    5  C   UNL     1      43.200 -14.748   5.079  1.00  0.00     0.039 A 
HETATM    6  C   UNL     1      43.092 -15.773   4.169  1.00  0.00     0.015 A 
HETATM    7  C   UNL     1      42.525 -15.596   2.807  1.00  0.00     0.168 C 
HETATM    8  N   UNL     1      41.983 -14.232   2.605  1.00  0.00    -0.347 N 
HETATM    9  C   UNL     1      41.328 -14.057   1.385  1.00  0.00     0.226 C 
HETATM   10  O   UNL     1      41.106 -15.015   0.638  1.00  0.00    -0.273 OA
HETATM   11  C   UNL     1      42.634 -13.118   3.341  1.00  0.00     0.132 C 
HETATM   12  C   UNL     1      42.756 -13.359   4.859  1.00  0.00     0.079 C 
ENDROOT
BRANCH   9  13
HETATM   13  C   UNL     1      40.862 -12.662   1.003  1.00  0.00     0.106 C 
HETATM   14  C   UNL     1      39.408 -12.452   1.406  1.00  0.00     0.190 C 
HETATM   15  O   UNL     1      39.000 -11.091   1.216  1.00  0.00    -0.350 OA
HETATM   16  C   UNL     1      39.337 -10.559  -0.001  1.00  0.00     0.075 A 
HETATM   17  C   UNL     1      40.274 -11.139  -0.866  1.00  0.00    -0.024 A 
HETATM   18  C   UNL     1      38.721  -9.354  -0.338  1.00  0.00     0.037 A 
HETATM   19  C   UNL     1      40.949 -12.433  -0.507  1.00  0.00     0.057 C 
HETATM   20  C   UNL     1      40.557 -10.515  -2.088  1.00  0.00     0.010 A 
HETATM   21  C   UNL     1      39.932  -9.314  -2.428  1.00  0.00     0.001 A 
HETATM   22  C   UNL     1      39.017  -8.732  -1.552  1.00  0.00     0.003 A 
ENDBRANCH   9  13
BRANCH   1  23
HETATM   23  C   UNL     1      43.718 -18.311   4.384  1.00  0.00    -0.005 A 
HETATM   24  C   UNL     1      43.586 -18.602   3.016  1.00  0.00     0.014 A 
HETATM   25  C   UNL     1      43.701 -19.913   2.544  1.00  0.00     0.001 A 
HETATM   26  C   UNL     1      43.948 -20.954   3.435  1.00  0.00     0.000 A 
HETATM   27  C   UNL     1      44.069 -20.685   4.796  1.00  0.00     0.001 A 
HETATM   28  C   UNL     1      43.948 -19.373   5.269  1.00  0.00     0.014 A 
ENDBRANCH   1  23
TORSDOF 2
ENDMDL
MODEL 7
REMARK VINA RESULT:      -8.7      4.481      8.948
REMARK  2 active torsions:
REMARK  status: ('A' for Active; 'I' for Inactive)
REMARK    1  A    between atoms: C_4  and  C_5 
REMARK       I    between atoms: N_12  and  C_13 
REMARK    2  A    between atoms: C_13  and  C_14 
ROOT
HETATM    1  C   UNL     1      43.892 -17.155   4.994  1.00  0.00     0.097 A 
HETATM    2  N   UNL     1      44.749 -17.208   6.034  1.00  0.00    -0.173 NA
HETATM    3  N   UNL     1      44.633 -16.022   6.650  1.00  0.00    -0.281 N 
HETATM    4  H   UNL     1      45.197 -15.854   7.477  1.00  0.00     0.189 HD
HETATM    5  C   UNL     1      43.733 -15.206   6.051  1.00  0.00     0.039 A 
HETATM    6  C   UNL     1      43.228 -15.891   4.971  1.00  0.00     0.015 A 
HETATM    7  C   UNL     1      42.200 -15.326   4.059  1.00  0.00     0.168 C 
HETATM    8  N   UNL     1      41.704 -14.011   4.528  1.00  0.00    -0.347 N 
HETATM    9  C   UNL     1      40.647 -13.500   3.772  1.00  0.00     0.226 C 
HETATM   10  O   UNL     1      40.103 -14.180   2.898  1.00  0.00    -0.273 OA
HETATM   11  C   UNL     1      42.651 -13.149   5.281  1.00  0.00     0.132 C 
HETATM   12  C   UNL     1      43.324 -13.855   6.475  1.00  0.00     0.079 C 
ENDROOT
BRANCH   9  13
HETATM   13  C   UNL     1      40.157 -12.093   4.066  1.00  0.00     0.106 C 
HETATM   14  C   UNL     1      39.291 -12.077   5.319  1.00  0.00     0.190 C 
HETATM   15  O   UNL     1      38.961 -10.739   5.715  1.00  0.00    -0.350 OA
HETATM   16  C   UNL     1      38.509  -9.938   4.699  1.00  0.00     0.075 A 
HETATM   17  C   UNL     1      38.656 -10.253   3.342  1.00  0.00    -0.024 A 
HETATM   18  C   UNL     1      37.914  -8.736   5.080  1.00  0.00     0.037 A 
HETATM   19  C   UNL     1      39.304 -11.543   2.921  1.00  0.00     0.057 C 
HETATM   20  C   UNL     1      38.165  -9.366   2.375  1.00  0.00     0.010 A 
HETATM   21  C   UNL     1      37.562  -8.167   2.759  1.00  0.00     0.001 A 
HETATM   22  C   UNL     1      37.439  -7.852   4.111  1.00  0.00     0.003 A 
ENDBRANCH   9  13
BRANCH   1  23
HETATM   23  C   UNL     1      43.735 -18.312   4.103  1.00  0.00    -0.005 A 
HETATM   24  C   UNL     1      44.066 -19.597   4.565  1.00  0.00     0.014 A 
HETATM   25  C   UNL     1      43.913 -20.719   3.745  1.00  0.00     0.001 A 
HETATM   26  C   UNL     1      43.430 -20.573   2.449  1.00  0.00     0.000 A 
HETATM   27  C   UNL     1      43.109 -19.305   1.969  1.00  0.00     0.001 A 
HETATM   28  C   UNL     1      43.267 -18.182   2.788  1.00  0.00     0.014 A 
ENDBRANCH   1  23
TORSDOF 2
ENDMDL
MODEL 8
REMARK VINA RESULT:      -8.7      2.609      9.322
REMARK  2 active torsions:
REMARK  status: ('A' for Active; 'I' for Inactive)
REMARK    1  A    between atoms: C_4  and  C_5 
REMARK       I    between atoms: N_12  and  C_13 
REMARK    2  A    between atoms: C_13  and  C_14 
ROOT
HETATM    1  C   UNL     1      41.262 -15.863   3.298  1.00  0.00     0.097 A 
HETATM    2  N   UNL     1      40.205 -15.989   2.471  1.00  0.00    -0.173 NA
HETATM    3  N   UNL     1      39.490 -14.866   2.636  1.00  0.00    -0.281 N 
HETATM    4  H   UNL     1      38.642 -14.754   2.090  1.00  0.00     0.189 HD
HETATM    5  C   UNL     1      40.046 -14.018   3.533  1.00  0.00     0.039 A 
HETATM    6  C   UNL     1      41.194 -14.618   3.995  1.00  0.00     0.015 A 
HETATM    7  C   UNL     1      42.092 -13.990   4.997  1.00  0.00     0.168 C 
HETATM    8  N   UNL     1      41.673 -12.609   5.331  1.00  0.00    -0.347 N 
HETATM    9  C   UNL     1      42.559 -11.935   6.173  1.00  0.00     0.226 C 
HETATM   10  O   UNL     1      43.655 -12.422   6.466  1.00  0.00    -0.273 OA
HETATM   11  C   UNL     1      40.222 -12.297   5.267  1.00  0.00     0.132 C 
HETATM   12  C   UNL     1      39.559 -12.684   3.929  1.00  0.00     0.079 C 
ENDROOT
BRANCH   9  13
HETATM   13  C   UNL     1      42.161 -10.567   6.702  1.00  0.00     0.106 C 
HETATM   14  C   UNL     1      42.074  -9.556   5.567  1.00  0.00     0.190 C 
HETATM   15  O   UNL     1      41.532  -8.306   6.014  1.00  0.00    -0.350 OA
HETATM   16  C   UNL     1      42.092  -7.822   7.169  1.00  0.00     0.075 A 
HETATM   17  C   UNL     1      42.876  -8.598   8.032  1.00  0.00    -0.024 A 
HETATM   18  C   UNL     1      41.805  -6.494   7.482  1.00  0.00     0.037 A 
HETATM   19  C   UNL     1      43.183 -10.032   7.707  1.00  0.00     0.057 C 
HETATM   20  C   UNL     1      43.400  -8.013   9.193  1.00  0.00     0.010 A 
HETATM   21  C   UNL     1      43.119  -6.681   9.500  1.00  0.00     0.001 A 
HETATM   22  C   UNL     1      42.320  -5.923   8.646  1.00  0.00     0.003 A 
ENDBRANCH   9  13
BRANCH   1  23
HETATM   23  C   UNL     1      42.286 -16.915   3.358  1.00  0.00    -0.005 A 
HETATM   24  C   UNL     1      42.440 -17.800   2.278  1.00  0.00     0.014 A 
HETATM   25  C   UNL     1      43.415 -18.802   2.300  1.00  0.00     0.001 A 
HETATM   26  C   UNL     1      44.250 -18.935   3.405  1.00  0.00     0.000 A 
HETATM   27  C   UNL     1      44.104 -18.075   4.490  1.00  0.00     0.001 A 
HETATM   28  C   UNL     1      43.124 -17.076   4.470  1.00  0.00     0.014 A 
ENDBRANCH   1  23
TORSDOF 2
ENDMDL
MODEL 9
REMARK VINA RESULT:      -8.6      2.309      9.114
REMARK  2 active torsions:
REMARK  status: ('A' for Active; 'I' for Inactive)
REMARK    1  A    between atoms: C_4  and  C_5 
REMARK       I    between atoms: N_12  and  C_13 
REMARK    2  A    between atoms: C_13  and  C_14 
ROOT
HETATM    1  C   UNL     1      42.810 -14.818   2.906  1.00  0.00     0.097 A 
HETATM    2  N   UNL     1      42.392 -14.553   1.652  1.00  0.00    -0.173 NA
HETATM    3  N   UNL     1      42.146 -13.235   1.631  1.00  0.00    -0.281 N 
HETATM    4  H   UNL     1      41.823 -12.822   0.762  1.00  0.00     0.189 HD
HETATM    5  C   UNL     1      42.390 -12.637   2.820  1.00  0.00     0.039 A 
HETATM    6  C   UNL     1      42.819 -13.619   3.682  1.00  0.00     0.015 A 
HETATM    7  C   UNL     1      43.195 -13.353   5.095  1.00  0.00     0.168 C 
HETATM    8  N   UNL     1      43.175 -11.906   5.412  1.00  0.00    -0.347 N 
HETATM    9  C   UNL     1      43.643 -11.599   6.691  1.00  0.00     0.226 C 
HETATM   10  O   UNL     1      44.161 -12.463   7.404  1.00  0.00    -0.273 OA
HETATM   11  C   UNL     1      42.201 -11.056   4.681  1.00  0.00     0.132 C 
HETATM   12  C   UNL     1      42.269 -11.205   3.148  1.00  0.00     0.079 C 
ENDROOT
BRANCH   9  13
HETATM   13  C   UNL     1      43.531 -10.165   7.181  1.00  0.00     0.106 C 
HETATM   14  C   UNL     1      44.781  -9.760   7.950  1.00  0.00     0.190 C 
HETATM   15  O   UNL     1      44.774  -8.363   8.271  1.00  0.00    -0.350 OA
HETATM   16  C   UNL     1      43.599  -7.908   8.812  1.00  0.00     0.075 A 
HETATM   17  C   UNL     1      42.396  -8.624   8.762  1.00  0.00    -0.024 A 
HETATM   18  C   UNL     1      43.640  -6.643   9.396  1.00  0.00     0.037 A 
HETATM   19  C   UNL     1      42.342  -9.985   8.127  1.00  0.00     0.057 C 
HETATM   20  C   UNL     1      41.245  -8.072   9.339  1.00  0.00     0.010 A 
HETATM   21  C   UNL     1      41.290  -6.809   9.931  1.00  0.00     0.001 A 
HETATM   22  C   UNL     1      42.486  -6.094   9.957  1.00  0.00     0.003 A 
ENDBRANCH   9  13
BRANCH   1  23
HETATM   23  C   UNL     1      43.199 -16.183   3.286  1.00  0.00    -0.005 A 
HETATM   24  C   UNL     1      43.196 -17.202   2.319  1.00  0.00     0.014 A 
HETATM   25  C   UNL     1      43.576 -18.507   2.646  1.00  0.00     0.001 A 
HETATM   26  C   UNL     1      43.962 -18.814   3.948  1.00  0.00     0.000 A 
HETATM   27  C   UNL     1      43.959 -17.818   4.922  1.00  0.00     0.001 A 
HETATM   28  C   UNL     1      43.573 -16.513   4.595  1.00  0.00     0.014 A 
ENDBRANCH   1  23
TORSDOF 2
ENDMDL
MODEL 10
REMARK VINA RESULT:      -8.2      5.169      6.307
REMARK  2 active torsions:
REMARK  status: ('A' for Active; 'I' for Inactive)
REMARK    1  A    between atoms: C_4  and  C_5 
REMARK       I    between atoms: N_12  and  C_13 
REMARK    2  A    between atoms: C_13  and  C_14 
ROOT
HETATM    1  C   UNL     1      39.417 -10.508   4.345  1.00  0.00     0.097 A 
HETATM    2  N   UNL     1      38.908 -10.140   5.538  1.00  0.00    -0.173 NA
HETATM    3  N   UNL     1      39.091 -11.197   6.343  1.00  0.00    -0.281 N 
HETATM    4  H   UNL     1      38.780 -11.125   7.306  1.00  0.00     0.189 HD
HETATM    5  C   UNL     1      39.702 -12.231   5.719  1.00  0.00     0.039 A 
HETATM    6  C   UNL     1      39.931 -11.838   4.421  1.00  0.00     0.015 A 
HETATM    7  C   UNL     1      40.595 -12.705   3.414  1.00  0.00     0.168 C 
HETATM    8  N   UNL     1      41.086 -13.970   4.008  1.00  0.00    -0.347 N 
HETATM    9  C   UNL     1      41.828 -14.760   3.127  1.00  0.00     0.226 C 
HETATM   10  O   UNL     1      42.154 -14.339   2.014  1.00  0.00    -0.273 OA
HETATM   11  C   UNL     1      40.327 -14.531   5.154  1.00  0.00     0.132 C 
HETATM   12  C   UNL     1      40.095 -13.527   6.302  1.00  0.00     0.079 C 
ENDROOT
BRANCH   9  13
HETATM   13  C   UNL     1      42.257 -16.146   3.579  1.00  0.00     0.106 C 
HETATM   14  C   UNL     1      43.550 -16.074   4.380  1.00  0.00     0.190 C 
HETATM   15  O   UNL     1      43.880 -17.342   4.964  1.00  0.00    -0.350 OA
HETATM   16  C   UNL     1      43.800 -18.405   4.101  1.00  0.00     0.075 A 
HETATM   17  C   UNL     1      43.147 -18.349   2.864  1.00  0.00    -0.024 A 
HETATM   18  C   UNL     1      44.379 -19.596   4.538  1.00  0.00     0.037 A 
HETATM   19  C   UNL     1      42.513 -17.072   2.389  1.00  0.00     0.057 C 
HETATM   20  C   UNL     1      43.114 -19.492   2.054  1.00  0.00     0.010 A 
HETATM   21  C   UNL     1      43.701 -20.682   2.490  1.00  0.00     0.001 A 
HETATM   22  C   UNL     1      44.331 -20.734   3.732  1.00  0.00     0.003 A 
ENDBRANCH   9  13
BRANCH   1  23
HETATM   23  C   UNL     1      39.410  -9.569   3.214  1.00  0.00    -0.005 A 
HETATM   24  C   UNL     1      40.624  -9.054   2.729  1.00  0.00     0.014 A 
HETATM   25  C   UNL     1      40.650  -8.171   1.646  1.00  0.00     0.001 A 
HETATM   26  C   UNL     1      39.462  -7.787   1.032  1.00  0.00     0.000 A 
HETATM   27  C   UNL     1      38.248  -8.278   1.507  1.00  0.00     0.001 A 
HETATM   28  C   UNL     1      38.221  -9.158   2.596  1.00  0.00     0.014 A 
ENDBRANCH   1  23
TORSDOF 2
ENDMDL
