MODEL 1
REMARK VINA RESULT:      -8.8      0.000      0.000
REMARK  4 active torsions:
REMARK  status: ('A' for Active; 'I' for Inactive)
REMARK    1  A    between atoms: C_2  and  C_3 
REMARK    2  A    between atoms: C_8  and  N_9 
REMARK       I    between atoms: N_9  and  C_10 
REMARK       I    between atoms: C_10  and  N_11 
REMARK    3  A    between atoms: N_11  and  C_12 
REMARK    4  A    between atoms: C_12  and  C_13 
ROOT
HETATM    1  N   UNL     1      40.973 -13.543   0.146  1.00  0.00    -0.305 N 
HETATM    2  C   UNL     1      41.175 -13.705   1.493  1.00  0.00     0.321 C 
HETATM    3  N   UNL     1      42.421 -14.240   1.759  1.00  0.00    -0.339 N 
HETATM    4  O   UNL     1      40.382 -13.444   2.386  1.00  0.00    -0.247 OA
HETATM    5  H   UNL     1      41.637 -13.998  -0.462  1.00  0.00     0.171 HD
HETATM    6  H   UNL     1      43.158 -14.000   1.113  1.00  0.00     0.164 HD
ENDROOT
BRANCH   3   7
HETATM    7  C   UNL     1      42.822 -14.369   3.145  1.00  0.00     0.162 C 
BRANCH   7   8
HETATM    8  C   UNL     1      43.240 -15.770   3.502  1.00  0.00    -0.040 A 
HETATM    9  C   UNL     1      43.081 -16.821   2.584  1.00  0.00     0.021 A 
HETATM   10  C   UNL     1      43.378 -18.149   2.936  1.00  0.00    -0.025 A 
HETATM   11  C   UNL     1      43.844 -18.432   4.239  1.00  0.00    -0.026 A 
HETATM   12  C   UNL     1      43.204 -19.206   2.027  1.00  0.00     0.012 A 
HETATM   13  C   UNL     1      44.014 -17.378   5.149  1.00  0.00     0.013 A 
HETATM   14  C   UNL     1      44.115 -19.762   4.601  1.00  0.00     0.012 A 
HETATM   15  C   UNL     1      43.713 -16.063   4.786  1.00  0.00     0.010 A 
HETATM   16  C   UNL     1      43.930 -20.800   3.688  1.00  0.00     0.001 A 
HETATM   17  C   UNL     1      43.478 -20.523   2.401  1.00  0.00     0.001 A 
ENDBRANCH   7   8
ENDBRANCH   3   7
BRANCH   1  18
HETATM   18  C   UNL     1      39.871 -12.952  -0.464  1.00  0.00     0.095 A 
HETATM   19  C   UNL     1      39.080 -13.610  -1.388  1.00  0.00     0.107 A 
HETATM   20  O   UNL     1      38.100 -12.780  -1.824  1.00  0.00    -0.215 OA
HETATM   21  N   UNL     1      38.213 -11.562  -1.200  1.00  0.00    -0.131 NA
HETATM   22  C   UNL     1      39.275 -11.656  -0.385  1.00  0.00     0.087 A 
HETATM   23  C   UNL     1      39.637 -10.457   0.407  1.00  0.00     0.075 C 
BRANCH  19  24
HETATM   24  C   UNL     1      39.067 -14.966  -1.989  1.00  0.00     0.065 C 
HETATM   25  C   UNL     1      38.320 -14.987  -3.314  1.00  0.00     0.012 C 
ENDBRANCH  19  24
ENDBRANCH   1  18
TORSDOF 4
ENDMDL
MODEL 2
REMARK VINA RESULT:      -8.8      0.959      2.184
REMARK  4 active torsions:
REMARK  status: ('A' for Active; 'I' for Inactive)
REMARK    1  A    between atoms: C_2  and  C_3 
REMARK    2  A    between atoms: C_8  and  N_9 
REMARK       I    between atoms: N_9  and  C_10 
REMARK       I    between atoms: C_10  and  N_11 
REMARK    3  A    between atoms: N_11  and  C_12 
REMARK    4  A    between atoms: C_12  and  C_13 
ROOT
HETATM    1  N   UNL     1      40.960 -13.956  -0.577  1.00  0.00    -0.305 N 
HETATM    2  C   UNL     1      41.056 -13.968   0.792  1.00  0.00     0.321 C 
HETATM    3  N   UNL     1      42.270 -14.477   1.211  1.00  0.00    -0.339 N 
HETATM    4  O   UNL     1      40.202 -13.603   1.587  1.00  0.00    -0.247 OA
HETATM    5  H   UNL     1      41.661 -14.480  -1.077  1.00  0.00     0.171 HD
HETATM    6  H   UNL     1      43.058 -14.315   0.602  1.00  0.00     0.164 HD
ENDROOT
BRANCH   3   7
HETATM    7  C   UNL     1      42.562 -14.452   2.630  1.00  0.00     0.162 C 
BRANCH   7   8
HETATM    8  C   UNL     1      43.040 -15.782   3.148  1.00  0.00    -0.040 A 
HETATM    9  C   UNL     1      42.986 -16.929   2.339  1.00  0.00     0.021 A 
HETATM   10  C   UNL     1      43.338 -18.193   2.840  1.00  0.00    -0.025 A 
HETATM   11  C   UNL     1      43.754 -18.313   4.185  1.00  0.00    -0.026 A 
HETATM   12  C   UNL     1      43.268 -19.346   2.040  1.00  0.00     0.012 A 
HETATM   13  C   UNL     1      43.820 -17.164   4.987  1.00  0.00     0.013 A 
HETATM   14  C   UNL     1      44.081 -19.581   4.695  1.00  0.00     0.012 A 
HETATM   15  C   UNL     1      43.464 -15.913   4.476  1.00  0.00     0.010 A 
HETATM   16  C   UNL     1      43.999 -20.716   3.889  1.00  0.00     0.001 A 
HETATM   17  C   UNL     1      43.596 -20.598   2.562  1.00  0.00     0.001 A 
ENDBRANCH   7   8
ENDBRANCH   3   7
BRANCH   1  18
HETATM   18  C   UNL     1      39.916 -13.430  -1.332  1.00  0.00     0.095 A 
HETATM   19  C   UNL     1      39.627 -12.079  -1.377  1.00  0.00     0.107 A 
HETATM   20  O   UNL     1      38.549 -11.869  -2.174  1.00  0.00    -0.215 OA
HETATM   21  N   UNL     1      38.105 -13.067  -2.678  1.00  0.00    -0.131 NA
HETATM   22  C   UNL     1      38.918 -14.009  -2.175  1.00  0.00     0.087 A 
HETATM   23  C   UNL     1      38.648 -15.417  -2.551  1.00  0.00     0.075 C 
BRANCH  19  24
HETATM   24  C   UNL     1      40.204 -10.856  -0.768  1.00  0.00     0.065 C 
HETATM   25  C   UNL     1      41.456 -10.400  -1.500  1.00  0.00     0.012 C 
ENDBRANCH  19  24
ENDBRANCH   1  18
TORSDOF 4
ENDMDL
MODEL 3
REMARK VINA RESULT:      -8.4      5.471      7.663
REMARK  4 active torsions:
REMARK  status: ('A' for Active; 'I' for Inactive)
REMARK    1  A    between atoms: C_2  and  C_3 
REMARK    2  A    between atoms: C_8  and  N_9 
REMARK       I    between atoms: N_9  and  C_10 
REMARK       I    between atoms: C_10  and  N_11 
REMARK    3  A    between atoms: N_11  and  C_12 
REMARK    4  A    between atoms: C_12  and  C_13 
ROOT
HETATM    1  N   UNL     1      43.322 -10.976   7.846  1.00  0.00    -0.305 N 
HETATM    2  C   UNL     1      43.023 -11.473   6.602  1.00  0.00     0.321 C 
HETATM    3  N   UNL     1      42.493 -12.747   6.678  1.00  0.00    -0.339 N 
HETATM    4  O   UNL     1      43.198 -10.911   5.531  1.00  0.00    -0.247 OA
HETATM    5  H   UNL     1      43.313 -11.640   8.604  1.00  0.00     0.171 HD
HETATM    6  H   UNL     1      41.953 -12.958   7.503  1.00  0.00     0.164 HD
ENDROOT
BRANCH   3   7
HETATM    7  C   UNL     1      42.026 -13.361   5.451  1.00  0.00     0.162 C 
BRANCH   7   8
HETATM    8  C   UNL     1      42.720 -14.663   5.153  1.00  0.00    -0.040 A 
HETATM    9  C   UNL     1      42.420 -15.385   3.986  1.00  0.00     0.021 A 
HETATM   10  C   UNL     1      42.988 -16.646   3.742  1.00  0.00    -0.025 A 
HETATM   11  C   UNL     1      43.879 -17.199   4.688  1.00  0.00    -0.026 A 
HETATM   12  C   UNL     1      42.677 -17.380   2.585  1.00  0.00     0.012 A 
HETATM   13  C   UNL     1      44.187 -16.470   5.846  1.00  0.00     0.013 A 
HETATM   14  C   UNL     1      44.427 -18.472   4.459  1.00  0.00     0.012 A 
HETATM   15  C   UNL     1      43.613 -15.218   6.078  1.00  0.00     0.010 A 
HETATM   16  C   UNL     1      44.102 -19.190   3.307  1.00  0.00     0.001 A 
HETATM   17  C   UNL     1      43.230 -18.644   2.370  1.00  0.00     0.001 A 
ENDBRANCH   7   8
ENDBRANCH   3   7
BRANCH   1  18
HETATM   18  C   UNL     1      43.785  -9.698   8.141  1.00  0.00     0.095 A 
HETATM   19  C   UNL     1      42.942  -8.646   8.452  1.00  0.00     0.107 A 
HETATM   20  O   UNL     1      43.673  -7.524   8.669  1.00  0.00    -0.215 OA
HETATM   21  N   UNL     1      45.008  -7.804   8.517  1.00  0.00    -0.131 NA
HETATM   22  C   UNL     1      45.084  -9.105   8.197  1.00  0.00     0.087 A 
HETATM   23  C   UNL     1      46.431  -9.673   7.955  1.00  0.00     0.075 C 
BRANCH  19  24
HETATM   24  C   UNL     1      41.475  -8.475   8.588  1.00  0.00     0.065 C 
HETATM   25  C   UNL     1      40.983  -8.904   9.961  1.00  0.00     0.012 C 
ENDBRANCH  19  24
ENDBRANCH   1  18
TORSDOF 4
ENDMDL
MODEL 4
REMARK VINA RESULT:      -7.8      2.450      7.763
REMARK  4 active torsions:
REMARK  status: ('A' for Active; 'I' for Inactive)
REMARK    1  A    between atoms: C_2  and  C_3 
REMARK    2  A    between atoms: C_8  and  N_9 
REMARK       I    between atoms: N_9  and  C_10 
REMARK       I    between atoms: C_10  and  N_11 
REMARK    3  A    between atoms: N_11  and  C_12 
REMARK    4  A    between atoms: C_12  and  C_13 
ROOT
HETATM    1  N   UNL     1      43.519 -15.991   3.404  1.00  0.00    -0.305 N 
HETATM    2  C   UNL     1      42.486 -15.097   3.528  1.00  0.00     0.321 C 
HETATM    3  N   UNL     1      42.601 -14.059   2.623  1.00  0.00    -0.339 N 
HETATM    4  O   UNL     1      41.565 -15.153   4.330  1.00  0.00    -0.247 OA
HETATM    5  H   UNL     1      44.301 -15.693   2.842  1.00  0.00     0.171 HD
HETATM    6  H   UNL     1      43.040 -14.281   1.742  1.00  0.00     0.164 HD
ENDROOT
BRANCH   3   7
HETATM    7  C   UNL     1      41.524 -13.092   2.560  1.00  0.00     0.162 C 
BRANCH   7   8
HETATM    8  C   UNL     1      40.925 -12.979   1.184  1.00  0.00    -0.040 A 
HETATM    9  C   UNL     1      40.306 -14.084   0.577  1.00  0.00     0.021 A 
HETATM   10  C   UNL     1      39.828 -14.020  -0.742  1.00  0.00    -0.025 A 
HETATM   11  C   UNL     1      39.973 -12.820  -1.474  1.00  0.00    -0.026 A 
HETATM   12  C   UNL     1      39.224 -15.129  -1.359  1.00  0.00     0.012 A 
HETATM   13  C   UNL     1      40.580 -11.714  -0.861  1.00  0.00     0.013 A 
HETATM   14  C   UNL     1      39.520 -12.764  -2.802  1.00  0.00     0.012 A 
HETATM   15  C   UNL     1      41.053 -11.793   0.451  1.00  0.00     0.010 A 
HETATM   16  C   UNL     1      38.929 -13.876  -3.402  1.00  0.00     0.001 A 
HETATM   17  C   UNL     1      38.779 -15.057  -2.680  1.00  0.00     0.001 A 
ENDBRANCH   7   8
ENDBRANCH   3   7
BRANCH   1  18
HETATM   18  C   UNL     1      43.667 -17.191   4.093  1.00  0.00     0.095 A 
HETATM   19  C   UNL     1      43.480 -18.426   3.501  1.00  0.00     0.107 A 
HETATM   20  O   UNL     1      43.670 -19.406   4.420  1.00  0.00    -0.215 OA
HETATM   21  N   UNL     1      43.993 -18.849   5.632  1.00  0.00    -0.131 NA
HETATM   22  C   UNL     1      43.990 -17.520   5.446  1.00  0.00     0.087 A 
HETATM   23  C   UNL     1      44.295 -16.665   6.617  1.00  0.00     0.075 C 
BRANCH  19  24
HETATM   24  C   UNL     1      43.124 -18.901   2.142  1.00  0.00     0.065 C 
HETATM   25  C   UNL     1      43.542 -20.347   1.924  1.00  0.00     0.012 C 
ENDBRANCH  19  24
ENDBRANCH   1  18
TORSDOF 4
ENDMDL
MODEL 5
REMARK VINA RESULT:      -7.5      2.225      3.734
REMARK  4 active torsions:
REMARK  status: ('A' for Active; 'I' for Inactive)
REMARK    1  A    between atoms: C_2  and  C_3 
REMARK    2  A    between atoms: C_8  and  N_9 
REMARK       I    between atoms: N_9  and  C_10 
REMARK       I    between atoms: C_10  and  N_11 
REMARK    3  A    between atoms: N_11  and  C_12 
REMARK    4  A    between atoms: C_12  and  C_13 
ROOT
HETATM    1  N   UNL     1      41.069 -12.201   2.647  1.00  0.00    -0.305 N 
HETATM    2  C   UNL     1      41.283 -13.189   3.574  1.00  0.00     0.321 C 
HETATM    3  N   UNL     1      42.612 -13.567   3.616  1.00  0.00    -0.339 N 
HETATM    4  O   UNL     1      40.441 -13.715   4.287  1.00  0.00    -0.247 OA
HETATM    5  H   UNL     1      41.823 -12.026   2.000  1.00  0.00     0.171 HD
HETATM    6  H   UNL     1      43.288 -12.849   3.405  1.00  0.00     0.164 HD
ENDROOT
BRANCH   3   7
HETATM    7  C   UNL     1      43.012 -14.526   4.626  1.00  0.00     0.162 C 
BRANCH   7   8
HETATM    8  C   UNL     1      43.109 -15.928   4.089  1.00  0.00    -0.040 A 
HETATM    9  C   UNL     1      43.419 -17.002   4.939  1.00  0.00     0.021 A 
HETATM   10  C   UNL     1      43.606 -18.301   4.437  1.00  0.00    -0.025 A 
HETATM   11  C   UNL     1      43.482 -18.530   3.048  1.00  0.00    -0.026 A 
HETATM   12  C   UNL     1      43.934 -19.375   5.281  1.00  0.00     0.012 A 
HETATM   13  C   UNL     1      43.160 -17.459   2.203  1.00  0.00     0.013 A 
HETATM   14  C   UNL     1      43.696 -19.823   2.541  1.00  0.00     0.012 A 
HETATM   15  C   UNL     1      42.978 -16.172   2.716  1.00  0.00     0.010 A 
HETATM   16  C   UNL     1      44.027 -20.877   3.393  1.00  0.00     0.001 A 
HETATM   17  C   UNL     1      44.143 -20.654   4.762  1.00  0.00     0.001 A 
ENDBRANCH   7   8
ENDBRANCH   3   7
BRANCH   1  18
HETATM   18  C   UNL     1      39.873 -11.530   2.407  1.00  0.00     0.095 A 
HETATM   19  C   UNL     1      39.310 -10.651   3.313  1.00  0.00     0.107 A 
HETATM   20  O   UNL     1      38.142 -10.171   2.817  1.00  0.00    -0.215 OA
HETATM   21  N   UNL     1      37.908 -10.710   1.577  1.00  0.00    -0.131 NA
HETATM   22  C   UNL     1      38.941 -11.529   1.324  1.00  0.00     0.087 A 
HETATM   23  C   UNL     1      38.932 -12.265   0.038  1.00  0.00     0.075 C 
BRANCH  19  24
HETATM   24  C   UNL     1      39.678 -10.142   4.657  1.00  0.00     0.065 C 
HETATM   25  C   UNL     1      38.967 -10.906   5.763  1.00  0.00     0.012 C 
ENDBRANCH  19  24
ENDBRANCH   1  18
TORSDOF 4
ENDMDL
MODEL 6
REMARK VINA RESULT:      -7.5      5.286      7.612
REMARK  4 active torsions:
REMARK  status: ('A' for Active; 'I' for Inactive)
REMARK    1  A    between atoms: C_2  and  C_3 
REMARK    2  A    between atoms: C_8  and  N_9 
REMARK       I    between atoms: N_9  and  C_10 
REMARK       I    between atoms: C_10  and  N_11 
REMARK    3  A    between atoms: N_11  and  C_12 
REMARK    4  A    between atoms: C_12  and  C_13 
ROOT
HETATM    1  N   UNL     1      42.420 -10.678   7.373  1.00  0.00    -0.305 N 
HETATM    2  C   UNL     1      42.080 -11.175   6.141  1.00  0.00     0.321 C 
HETATM    3  N   UNL     1      41.563 -12.453   6.234  1.00  0.00    -0.339 N 
HETATM    4  O   UNL     1      42.212 -10.611   5.065  1.00  0.00    -0.247 OA
HETATM    5  H   UNL     1      42.444 -11.343   8.131  1.00  0.00     0.171 HD
HETATM    6  H   UNL     1      41.055 -12.670   7.079  1.00  0.00     0.164 HD
ENDROOT
BRANCH   3   7
HETATM    7  C   UNL     1      41.057 -13.070   5.025  1.00  0.00     0.162 C 
BRANCH   7   8
HETATM    8  C   UNL     1      41.752 -14.364   4.697  1.00  0.00    -0.040 A 
HETATM    9  C   UNL     1      41.905 -15.363   5.672  1.00  0.00     0.021 A 
HETATM   10  C   UNL     1      42.634 -16.534   5.409  1.00  0.00    -0.025 A 
HETATM   11  C   UNL     1      43.226 -16.711   4.139  1.00  0.00    -0.026 A 
HETATM   12  C   UNL     1      42.805 -17.528   6.387  1.00  0.00     0.012 A 
HETATM   13  C   UNL     1      43.060 -15.717   3.162  1.00  0.00     0.013 A 
HETATM   14  C   UNL     1      43.978 -17.869   3.883  1.00  0.00     0.012 A 
HETATM   15  C   UNL     1      42.334 -14.556   3.439  1.00  0.00     0.010 A 
HETATM   16  C   UNL     1      44.143 -18.843   4.868  1.00  0.00     0.001 A 
HETATM   17  C   UNL     1      43.555 -18.674   6.118  1.00  0.00     0.001 A 
ENDBRANCH   7   8
ENDBRANCH   3   7
BRANCH   1  18
HETATM   18  C   UNL     1      42.884  -9.396   7.654  1.00  0.00     0.095 A 
HETATM   19  C   UNL     1      44.093  -9.154   8.279  1.00  0.00     0.107 A 
HETATM   20  O   UNL     1      44.265  -7.817   8.438  1.00  0.00    -0.215 OA
HETATM   21  N   UNL     1      43.186  -7.146   7.920  1.00  0.00    -0.131 NA
HETATM   22  C   UNL     1      42.351  -8.086   7.450  1.00  0.00     0.087 A 
HETATM   23  C   UNL     1      41.078  -7.629   6.844  1.00  0.00     0.075 C 
BRANCH  19  24
HETATM   24  C   UNL     1      45.198  -9.995   8.800  1.00  0.00     0.065 C 
HETATM   25  C   UNL     1      45.378  -9.820  10.300  1.00  0.00     0.012 C 
ENDBRANCH  19  24
ENDBRANCH   1  18
TORSDOF 4
ENDMDL
MODEL 7
REMARK VINA RESULT:      -7.5      2.466      8.007
REMARK  4 active torsions:
REMARK  status: ('A' for Active; 'I' for Inactive)
REMARK    1  A    between atoms: C_2  and  C_3 
REMARK    2  A    between atoms: C_8  and  N_9 
REMARK       I    between atoms: N_9  and  C_10 
REMARK       I    between atoms: C_10  and  N_11 
REMARK    3  A    between atoms: N_11  and  C_12 
REMARK    4  A    between atoms: C_12  and  C_13 
ROOT
HETATM    1  N   UNL     1      43.067 -15.450   4.124  1.00  0.00    -0.305 N 
HETATM    2  C   UNL     1      41.886 -14.766   3.984  1.00  0.00     0.321 C 
HETATM    3  N   UNL     1      42.027 -13.675   3.148  1.00  0.00    -0.339 N 
HETATM    4  O   UNL     1      40.820 -15.033   4.521  1.00  0.00    -0.247 OA
HETATM    5  H   UNL     1      43.895 -14.984   3.786  1.00  0.00     0.171 HD
HETATM    6  H   UNL     1      42.707 -13.764   2.408  1.00  0.00     0.164 HD
ENDROOT
BRANCH   3   7
HETATM    7  C   UNL     1      40.838 -12.917   2.816  1.00  0.00     0.162 C 
BRANCH   7   8
HETATM    8  C   UNL     1      40.320 -13.222   1.436  1.00  0.00    -0.040 A 
HETATM    9  C   UNL     1      39.430 -12.346   0.794  1.00  0.00     0.021 A 
HETATM   10  C   UNL     1      38.865 -12.663  -0.452  1.00  0.00    -0.025 A 
HETATM   11  C   UNL     1      39.199 -13.888  -1.072  1.00  0.00    -0.026 A 
HETATM   12  C   UNL     1      37.960 -11.798  -1.090  1.00  0.00     0.012 A 
HETATM   13  C   UNL     1      40.098 -14.755  -0.434  1.00  0.00     0.013 A 
HETATM   14  C   UNL     1      38.614 -14.219  -2.305  1.00  0.00     0.012 A 
HETATM   15  C   UNL     1      40.651 -14.428   0.806  1.00  0.00     0.010 A 
HETATM   16  C   UNL     1      37.711 -13.351  -2.921  1.00  0.00     0.001 A 
HETATM   17  C   UNL     1      37.387 -12.141  -2.316  1.00  0.00     0.001 A 
ENDBRANCH   7   8
ENDBRANCH   3   7
BRANCH   1  18
HETATM   18  C   UNL     1      43.261 -16.640   4.819  1.00  0.00     0.095 A 
HETATM   19  C   UNL     1      43.596 -17.828   4.196  1.00  0.00     0.107 A 
HETATM   20  O   UNL     1      43.697 -18.816   5.121  1.00  0.00    -0.215 OA
HETATM   21  N   UNL     1      43.440 -18.309   6.370  1.00  0.00    -0.131 NA
HETATM   22  C   UNL     1      43.175 -17.005   6.198  1.00  0.00     0.087 A 
HETATM   23  C   UNL     1      42.842 -16.209   7.403  1.00  0.00     0.075 C 
BRANCH  19  24
HETATM   24  C   UNL     1      43.853 -18.250   2.798  1.00  0.00     0.065 C 
HETATM   25  C   UNL     1      43.555 -19.727   2.592  1.00  0.00     0.012 C 
ENDBRANCH  19  24
ENDBRANCH   1  18
TORSDOF 4
ENDMDL
MODEL 8
REMARK VINA RESULT:      -7.4      2.746      3.653
REMARK  4 active torsions:
REMARK  status: ('A' for Active; 'I' for Inactive)
REMARK    1  A    between atoms: C_2  and  C_3 
REMARK    2  A    between atoms: C_8  and  N_9 
REMARK       I    between atoms: N_9  and  C_10 
REMARK       I    between atoms: C_10  and  N_11 
REMARK    3  A    between atoms: N_11  and  C_12 
REMARK    4  A    between atoms: C_12  and  C_13 
ROOT
HETATM    1  N   UNL     1      41.068 -11.815   3.448  1.00  0.00    -0.305 N 
HETATM    2  C   UNL     1      41.415 -12.831   4.303  1.00  0.00     0.321 C 
HETATM    3  N   UNL     1      42.585 -13.451   3.907  1.00  0.00    -0.339 N 
HETATM    4  O   UNL     1      40.796 -13.194   5.293  1.00  0.00    -0.247 OA
HETATM    5  H   UNL     1      41.567 -11.781   2.572  1.00  0.00     0.171 HD
HETATM    6  H   UNL     1      43.260 -12.871   3.433  1.00  0.00     0.164 HD
ENDROOT
BRANCH   3   7
HETATM    7  C   UNL     1      43.137 -14.473   4.773  1.00  0.00     0.162 C 
BRANCH   7   8
HETATM    8  C   UNL     1      43.137 -15.836   4.136  1.00  0.00    -0.040 A 
HETATM    9  C   UNL     1      43.504 -16.973   4.874  1.00  0.00     0.021 A 
HETATM   10  C   UNL     1      43.601 -18.237   4.268  1.00  0.00    -0.025 A 
HETATM   11  C   UNL     1      43.324 -18.366   2.889  1.00  0.00    -0.026 A 
HETATM   12  C   UNL     1      43.986 -19.374   4.998  1.00  0.00     0.012 A 
HETATM   13  C   UNL     1      42.944 -17.232   2.157  1.00  0.00     0.013 A 
HETATM   14  C   UNL     1      43.446 -19.624   2.275  1.00  0.00     0.012 A 
HETATM   15  C   UNL     1      42.854 -15.980   2.772  1.00  0.00     0.010 A 
HETATM   16  C   UNL     1      43.836 -20.742   3.014  1.00  0.00     0.001 A 
HETATM   17  C   UNL     1      44.103 -20.618   4.374  1.00  0.00     0.001 A 
ENDBRANCH   7   8
ENDBRANCH   3   7
BRANCH   1  18
HETATM   18  C   UNL     1      40.003 -10.932   3.595  1.00  0.00     0.095 A 
HETATM   19  C   UNL     1      38.936 -10.889   2.717  1.00  0.00     0.107 A 
HETATM   20  O   UNL     1      38.068  -9.918   3.101  1.00  0.00    -0.215 OA
HETATM   21  N   UNL     1      38.533  -9.305   4.237  1.00  0.00    -0.131 NA
HETATM   22  C   UNL     1      39.695  -9.905   4.539  1.00  0.00     0.087 A 
HETATM   23  C   UNL     1      40.428  -9.416   5.730  1.00  0.00     0.075 C 
BRANCH  19  24
HETATM   24  C   UNL     1      38.545 -11.631   1.494  1.00  0.00     0.065 C 
HETATM   25  C   UNL     1      38.992 -10.910   0.232  1.00  0.00     0.012 C 
ENDBRANCH  19  24
ENDBRANCH   1  18
TORSDOF 4
ENDMDL
MODEL 9
REMARK VINA RESULT:      -7.3     14.337     17.398
REMARK  4 active torsions:
REMARK  status: ('A' for Active; 'I' for Inactive)
REMARK    1  A    between atoms: C_2  and  C_3 
REMARK    2  A    between atoms: C_8  and  N_9 
REMARK       I    between atoms: N_9  and  C_10 
REMARK       I    between atoms: C_10  and  N_11 
REMARK    3  A    between atoms: N_11  and  C_12 
REMARK    4  A    between atoms: C_12  and  C_13 
ROOT
HETATM    1  N   UNL     1      48.528 -28.917   0.634  1.00  0.00    -0.305 N 
HETATM    2  C   UNL     1      47.173 -29.092   0.509  1.00  0.00     0.321 C 
HETATM    3  N   UNL     1      46.595 -28.074  -0.226  1.00  0.00    -0.339 N 
HETATM    4  O   UNL     1      46.508 -30.003   0.981  1.00  0.00    -0.247 OA
HETATM    5  H   UNL     1      48.887 -28.014   0.368  1.00  0.00     0.171 HD
HETATM    6  H   UNL     1      47.169 -27.660  -0.945  1.00  0.00     0.164 HD
ENDROOT
BRANCH   3   7
HETATM    7  C   UNL     1      45.184 -28.179  -0.536  1.00  0.00     0.162 C 
BRANCH   7   8
HETATM    8  C   UNL     1      44.929 -28.804  -1.881  1.00  0.00    -0.040 A 
HETATM    9  C   UNL     1      44.616 -30.169  -1.990  1.00  0.00     0.021 A 
HETATM   10  C   UNL     1      44.469 -30.786  -3.243  1.00  0.00    -0.025 A 
HETATM   11  C   UNL     1      44.641 -30.019  -4.417  1.00  0.00    -0.026 A 
HETATM   12  C   UNL     1      44.174 -32.155  -3.358  1.00  0.00     0.012 A 
HETATM   13  C   UNL     1      44.941 -28.653  -4.305  1.00  0.00     0.013 A 
HETATM   14  C   UNL     1      44.522 -30.641  -5.671  1.00  0.00     0.012 A 
HETATM   15  C   UNL     1      45.086 -28.053  -3.052  1.00  0.00     0.010 A 
HETATM   16  C   UNL     1      44.236 -32.003  -5.766  1.00  0.00     0.001 A 
HETATM   17  C   UNL     1      44.059 -32.759  -4.611  1.00  0.00     0.001 A 
ENDBRANCH   7   8
ENDBRANCH   3   7
BRANCH   1  18
HETATM   18  C   UNL     1      49.427 -29.795   1.232  1.00  0.00     0.095 A 
HETATM   19  C   UNL     1      49.584 -29.893   2.603  1.00  0.00     0.107 A 
HETATM   20  O   UNL     1      50.542 -30.810   2.888  1.00  0.00    -0.215 OA
HETATM   21  N   UNL     1      51.035 -31.343   1.723  1.00  0.00    -0.131 NA
HETATM   22  C   UNL     1      50.374 -30.737   0.725  1.00  0.00     0.087 A 
HETATM   23  C   UNL     1      50.729 -31.120  -0.662  1.00  0.00     0.075 C 
BRANCH  19  24
HETATM   24  C   UNL     1      48.969 -29.240   3.784  1.00  0.00     0.065 C 
HETATM   25  C   UNL     1      47.811 -30.056   4.338  1.00  0.00     0.012 C 
ENDBRANCH  19  24
ENDBRANCH   1  18
TORSDOF 4
ENDMDL
MODEL 10
REMARK VINA RESULT:      -7.3      2.651      8.127
REMARK  4 active torsions:
REMARK  status: ('A' for Active; 'I' for Inactive)
REMARK    1  A    between atoms: C_2  and  C_3 
REMARK    2  A    between atoms: C_8  and  N_9 
REMARK       I    between atoms: N_9  and  C_10 
REMARK       I    between atoms: C_10  and  N_11 
REMARK    3  A    between atoms: N_11  and  C_12 
REMARK    4  A    between atoms: C_12  and  C_13 
ROOT
HETATM    1  N   UNL     1      42.788 -15.209   4.008  1.00  0.00    -0.305 N 
HETATM    2  C   UNL     1      41.480 -14.808   4.102  1.00  0.00     0.321 C 
HETATM    3  N   UNL     1      41.305 -13.528   3.613  1.00  0.00    -0.339 N 
HETATM    4  O   UNL     1      40.550 -15.454   4.565  1.00  0.00    -0.247 OA
HETATM    5  H   UNL     1      43.461 -14.488   3.799  1.00  0.00     0.171 HD
HETATM    6  H   UNL     1      41.917 -13.248   2.863  1.00  0.00     0.164 HD
ENDROOT
BRANCH   3   7
HETATM    7  C   UNL     1      39.954 -13.007   3.545  1.00  0.00     0.162 C 
BRANCH   7   8
HETATM    8  C   UNL     1      39.472 -12.826   2.131  1.00  0.00    -0.040 A 
HETATM    9  C   UNL     1      39.968 -13.633   1.095  1.00  0.00     0.021 A 
HETATM   10  C   UNL     1      39.600 -13.413  -0.243  1.00  0.00    -0.025 A 
HETATM   11  C   UNL     1      38.712 -12.358  -0.552  1.00  0.00    -0.026 A 
HETATM   12  C   UNL     1      40.108 -14.207  -1.285  1.00  0.00     0.012 A 
HETATM   13  C   UNL     1      38.208 -11.562   0.487  1.00  0.00     0.013 A 
HETATM   14  C   UNL     1      38.364 -12.120  -1.892  1.00  0.00     0.012 A 
HETATM   15  C   UNL     1      38.585 -11.791   1.812  1.00  0.00     0.010 A 
HETATM   16  C   UNL     1      38.884 -12.913  -2.915  1.00  0.00     0.001 A 
HETATM   17  C   UNL     1      39.752 -13.957  -2.612  1.00  0.00     0.001 A 
ENDBRANCH   7   8
ENDBRANCH   3   7
BRANCH   1  18
HETATM   18  C   UNL     1      43.298 -16.465   4.324  1.00  0.00     0.095 A 
HETATM   19  C   UNL     1      43.913 -16.745   5.531  1.00  0.00     0.107 A 
HETATM   20  O   UNL     1      44.325 -18.038   5.543  1.00  0.00    -0.215 OA
HETATM   21  N   UNL     1      43.989 -18.643   4.358  1.00  0.00    -0.131 NA
HETATM   22  C   UNL     1      43.376 -17.706   3.620  1.00  0.00     0.087 A 
HETATM   23  C   UNL     1      42.918 -18.093   2.264  1.00  0.00     0.075 C 
BRANCH  19  24
HETATM   24  C   UNL     1      44.217 -15.977   6.763  1.00  0.00     0.065 C 
HETATM   25  C   UNL     1      42.972 -15.743   7.602  1.00  0.00     0.012 C 
ENDBRANCH  19  24
ENDBRANCH   1  18
TORSDOF 4
ENDMDL
