MODEL 1
REMARK VINA RESULT:      -7.5      0.000      0.000
REMARK  6 active torsions:
REMARK  status: ('A' for Active; 'I' for Inactive)
REMARK    1  A    between atoms: O_2  and  C_3 
REMARK    2  A    between atoms: C_4  and  O_5 
REMARK    3  A    between atoms: C_8  and  C_9 
REMARK    4  A    between atoms: C_13  and  C_14 
REMARK       I    between atoms: C_14  and  N_15 
REMARK    5  A    between atoms: N_15  and  C_16 
REMARK    6  A    between atoms: C_19  and  O_20 
ROOT
HETATM    1  C   UNL     1      41.570 -15.897   2.351  1.00  0.00     0.063 A 
HETATM    2  N   UNL     1      40.422 -15.391   2.906  1.00  0.00    -0.277 N 
HETATM    3  H   UNL     1      40.024 -15.621   3.810  1.00  0.00     0.189 HD
HETATM    4  N   UNL     1      39.762 -14.518   2.122  1.00  0.00    -0.169 NA
HETATM    5  C   UNL     1      40.512 -14.462   1.001  1.00  0.00     0.147 A 
HETATM    6  C   UNL     1      41.643 -15.308   1.104  1.00  0.00     0.071 A 
ENDROOT
BRANCH   5   7
HETATM    7  C   UNL     1      40.132 -13.619  -0.148  1.00  0.00     0.276 C 
HETATM    8  N   UNL     1      41.104 -12.681  -0.438  1.00  0.00    -0.320 N 
HETATM    9  H   UNL     1      41.909 -12.727   0.181  1.00  0.00     0.169 HD
HETATM   10  O   UNL     1      39.067 -13.767  -0.735  1.00  0.00    -0.266 OA
BRANCH   8  11
HETATM   11  C   UNL     1      41.086 -11.707  -1.449  1.00  0.00     0.052 A 
HETATM   12  C   UNL     1      41.061 -11.973  -2.816  1.00  0.00     0.149 A 
HETATM   13  N   UNL     1      41.045 -11.015  -3.779  1.00  0.00    -0.235 NA
HETATM   14  C   UNL     1      41.053  -9.733  -3.361  1.00  0.00     0.163 A 
HETATM   15  C   UNL     1      41.075  -9.364  -2.027  1.00  0.00     0.060 A 
HETATM   16  C   UNL     1      41.094 -10.367  -1.060  1.00  0.00     0.035 A 
BRANCH  14  17
HETATM   17  O   UNL     1      41.039  -8.704  -4.281  1.00  0.00    -0.339 OA
HETATM   18  C   UNL     1      41.754  -7.555  -3.838  1.00  0.00     0.211 C 
ENDBRANCH  14  17
ENDBRANCH   8  11
ENDBRANCH   5   7
BRANCH   1  19
HETATM   19  C   UNL     1      42.420 -16.884   3.009  1.00  0.00    -0.005 A 
HETATM   20  C   UNL     1      42.696 -16.805   4.382  1.00  0.00     0.053 A 
HETATM   21  C   UNL     1      43.492 -17.772   5.011  1.00  0.00     0.102 A 
HETATM   22  C   UNL     1      44.004 -18.849   4.262  1.00  0.00     0.101 A 
HETATM   23  C   UNL     1      43.755 -18.912   2.888  1.00  0.00     0.040 A 
HETATM   24  C   UNL     1      42.971 -17.935   2.269  1.00  0.00     0.017 A 
BRANCH  21  25
HETATM   25  O   UNL     1      43.795 -17.770   6.350  1.00  0.00    -0.353 OA
HETATM   26  C   UNL     1      43.321 -16.682   7.129  1.00  0.00     0.210 C 
ENDBRANCH  21  25
BRANCH  22  27
HETATM   27  O   UNL     1      44.761 -19.765   4.947  1.00  0.00    -0.353 OA
HETATM   28  C   UNL     1      44.149 -21.017   5.229  1.00  0.00     0.210 C 
ENDBRANCH  22  27
ENDBRANCH   1  19
TORSDOF 6
ENDMDL
MODEL 2
REMARK VINA RESULT:      -7.4      2.566      2.865
REMARK  6 active torsions:
REMARK  status: ('A' for Active; 'I' for Inactive)
REMARK    1  A    between atoms: O_2  and  C_3 
REMARK    2  A    between atoms: C_4  and  O_5 
REMARK    3  A    between atoms: C_8  and  C_9 
REMARK    4  A    between atoms: C_13  and  C_14 
REMARK       I    between atoms: C_14  and  N_15 
REMARK    5  A    between atoms: N_15  and  C_16 
REMARK    6  A    between atoms: C_19  and  O_20 
ROOT
HETATM    1  C   UNL     1      41.514 -15.762   2.422  1.00  0.00     0.063 A 
HETATM    2  N   UNL     1      40.341 -15.326   2.985  1.00  0.00    -0.277 N 
HETATM    3  H   UNL     1      39.922 -15.643   3.853  1.00  0.00     0.189 HD
HETATM    4  N   UNL     1      39.687 -14.398   2.263  1.00  0.00    -0.169 NA
HETATM    5  C   UNL     1      40.467 -14.230   1.174  1.00  0.00     0.147 A 
HETATM    6  C   UNL     1      41.611 -15.063   1.235  1.00  0.00     0.071 A 
ENDROOT
BRANCH   5   7
HETATM    7  C   UNL     1      40.104 -13.293   0.094  1.00  0.00     0.276 C 
HETATM    8  N   UNL     1      38.746 -13.044   0.067  1.00  0.00    -0.320 N 
HETATM    9  H   UNL     1      38.229 -13.541   0.788  1.00  0.00     0.169 HD
HETATM   10  O   UNL     1      40.944 -12.827  -0.668  1.00  0.00    -0.266 OA
BRANCH   8  11
HETATM   11  C   UNL     1      38.039 -12.218  -0.821  1.00  0.00     0.052 A 
HETATM   12  C   UNL     1      37.753 -10.872  -0.608  1.00  0.00     0.149 A 
HETATM   13  N   UNL     1      37.066 -10.091  -1.480  1.00  0.00    -0.235 NA
HETATM   14  C   UNL     1      36.646 -10.676  -2.620  1.00  0.00     0.163 A 
HETATM   15  C   UNL     1      36.881 -12.005  -2.928  1.00  0.00     0.060 A 
HETATM   16  C   UNL     1      37.586 -12.785  -2.013  1.00  0.00     0.035 A 
BRANCH  14  17
HETATM   17  O   UNL     1      35.941  -9.946  -3.555  1.00  0.00    -0.339 OA
HETATM   18  C   UNL     1      34.683 -10.529  -3.879  1.00  0.00     0.211 C 
ENDBRANCH  14  17
ENDBRANCH   8  11
ENDBRANCH   5   7
BRANCH   1  19
HETATM   19  C   UNL     1      42.364 -16.789   3.015  1.00  0.00    -0.005 A 
HETATM   20  C   UNL     1      42.768 -16.713   4.356  1.00  0.00     0.053 A 
HETATM   21  C   UNL     1      43.562 -17.717   4.925  1.00  0.00     0.102 A 
HETATM   22  C   UNL     1      43.942 -18.830   4.149  1.00  0.00     0.101 A 
HETATM   23  C   UNL     1      43.566 -18.892   2.805  1.00  0.00     0.040 A 
HETATM   24  C   UNL     1      42.785 -17.878   2.244  1.00  0.00     0.017 A 
BRANCH  21  25
HETATM   25  O   UNL     1      43.987 -17.720   6.231  1.00  0.00    -0.353 OA
HETATM   26  C   UNL     1      44.366 -16.476   6.800  1.00  0.00     0.210 C 
ENDBRANCH  21  25
BRANCH  22  27
HETATM   27  O   UNL     1      44.706 -19.781   4.776  1.00  0.00    -0.353 OA
HETATM   28  C   UNL     1      44.050 -20.989   5.141  1.00  0.00     0.210 C 
ENDBRANCH  22  27
ENDBRANCH   1  19
TORSDOF 6
ENDMDL
MODEL 3
REMARK VINA RESULT:      -7.4      6.410      9.675
REMARK  6 active torsions:
REMARK  status: ('A' for Active; 'I' for Inactive)
REMARK    1  A    between atoms: O_2  and  C_3 
REMARK    2  A    between atoms: C_4  and  O_5 
REMARK    3  A    between atoms: C_8  and  C_9 
REMARK    4  A    between atoms: C_13  and  C_14 
REMARK       I    between atoms: C_14  and  N_15 
REMARK    5  A    between atoms: N_15  and  C_16 
REMARK    6  A    between atoms: C_19  and  O_20 
ROOT
HETATM    1  C   UNL     1      43.153 -13.567   5.481  1.00  0.00     0.063 A 
HETATM    2  N   UNL     1      42.832 -12.319   5.010  1.00  0.00    -0.277 N 
HETATM    3  H   UNL     1      42.446 -12.086   4.102  1.00  0.00     0.189 HD
HETATM    4  N   UNL     1      43.102 -11.314   5.865  1.00  0.00    -0.169 NA
HETATM    5  C   UNL     1      43.633 -11.939   6.938  1.00  0.00     0.147 A 
HETATM    6  C   UNL     1      43.684 -13.340   6.735  1.00  0.00     0.071 A 
ENDROOT
BRANCH   5   7
HETATM    7  C   UNL     1      44.092 -11.193   8.124  1.00  0.00     0.276 C 
HETATM    8  N   UNL     1      43.050 -10.541   8.753  1.00  0.00    -0.320 N 
HETATM    9  H   UNL     1      42.151 -10.681   8.300  1.00  0.00     0.169 HD
HETATM   10  O   UNL     1      45.269 -11.178   8.463  1.00  0.00    -0.266 OA
BRANCH   8  11
HETATM   11  C   UNL     1      43.107  -9.730   9.898  1.00  0.00     0.052 A 
HETATM   12  C   UNL     1      43.119  -8.337   9.894  1.00  0.00     0.149 A 
HETATM   13  N   UNL     1      43.176  -7.572  11.014  1.00  0.00    -0.235 NA
HETATM   14  C   UNL     1      43.221  -8.223  12.194  1.00  0.00     0.163 A 
HETATM   15  C   UNL     1      43.212  -9.602  12.306  1.00  0.00     0.060 A 
HETATM   16  C   UNL     1      43.156 -10.364  11.141  1.00  0.00     0.035 A 
BRANCH  14  17
HETATM   17  O   UNL     1      43.280  -7.513  13.376  1.00  0.00    -0.339 OA
HETATM   18  C   UNL     1      42.404  -8.024  14.374  1.00  0.00     0.211 C 
ENDBRANCH  14  17
ENDBRANCH   8  11
ENDBRANCH   5   7
BRANCH   1  19
HETATM   19  C   UNL     1      42.979 -14.793   4.709  1.00  0.00    -0.005 A 
HETATM   20  C   UNL     1      42.185 -14.816   3.552  1.00  0.00     0.053 A 
HETATM   21  C   UNL     1      42.045 -15.991   2.802  1.00  0.00     0.102 A 
HETATM   22  C   UNL     1      42.725 -17.158   3.199  1.00  0.00     0.101 A 
HETATM   23  C   UNL     1      43.491 -17.145   4.368  1.00  0.00     0.040 A 
HETATM   24  C   UNL     1      43.614 -15.971   5.116  1.00  0.00     0.017 A 
BRANCH  21  25
HETATM   25  O   UNL     1      41.298 -16.090   1.653  1.00  0.00    -0.353 OA
HETATM   26  C   UNL     1      39.997 -15.522   1.666  1.00  0.00     0.210 C 
ENDBRANCH  21  25
BRANCH  22  27
HETATM   27  O   UNL     1      42.553 -18.266   2.408  1.00  0.00    -0.353 OA
HETATM   28  C   UNL     1      43.535 -19.289   2.520  1.00  0.00     0.210 C 
ENDBRANCH  22  27
ENDBRANCH   1  19
TORSDOF 6
ENDMDL
MODEL 4
REMARK VINA RESULT:      -7.4      7.948     11.201
REMARK  6 active torsions:
REMARK  status: ('A' for Active; 'I' for Inactive)
REMARK    1  A    between atoms: O_2  and  C_3 
REMARK    2  A    between atoms: C_4  and  O_5 
REMARK    3  A    between atoms: C_8  and  C_9 
REMARK    4  A    between atoms: C_13  and  C_14 
REMARK       I    between atoms: C_14  and  N_15 
REMARK    5  A    between atoms: N_15  and  C_16 
REMARK    6  A    between atoms: C_19  and  O_20 
ROOT
HETATM    1  C   UNL     1      43.863  -9.996  10.571  1.00  0.00     0.063 A 
HETATM    2  N   UNL     1      45.218  -9.874  10.394  1.00  0.00    -0.277 N 
HETATM    3  H   UNL     1      45.877  -9.404  11.005  1.00  0.00     0.189 HD
HETATM    4  N   UNL     1      45.683 -10.425   9.258  1.00  0.00    -0.169 NA
HETATM    5  C   UNL     1      44.575 -10.919   8.663  1.00  0.00     0.147 A 
HETATM    6  C   UNL     1      43.424 -10.669   9.449  1.00  0.00     0.071 A 
ENDROOT
BRANCH   5   7
HETATM    7  C   UNL     1      44.633 -11.605   7.360  1.00  0.00     0.276 C 
HETATM    8  N   UNL     1      43.666 -12.586   7.253  1.00  0.00    -0.320 N 
HETATM    9  H   UNL     1      43.082 -12.671   8.082  1.00  0.00     0.169 HD
HETATM   10  O   UNL     1      45.464 -11.310   6.509  1.00  0.00    -0.266 OA
BRANCH   8  11
HETATM   11  C   UNL     1      43.425 -13.445   6.170  1.00  0.00     0.052 A 
HETATM   12  C   UNL     1      43.014 -13.040   4.902  1.00  0.00     0.149 A 
HETATM   13  N   UNL     1      42.786 -13.888   3.867  1.00  0.00    -0.235 NA
HETATM   14  C   UNL     1      42.978 -15.201   4.103  1.00  0.00     0.163 A 
HETATM   15  C   UNL     1      43.388 -15.706   5.325  1.00  0.00     0.060 A 
HETATM   16  C   UNL     1      43.612 -14.813   6.372  1.00  0.00     0.035 A 
BRANCH  14  17
HETATM   17  O   UNL     1      42.766 -16.125   3.100  1.00  0.00    -0.339 OA
HETATM   18  C   UNL     1      41.400 -16.509   2.979  1.00  0.00     0.211 C 
ENDBRANCH  14  17
ENDBRANCH   8  11
ENDBRANCH   5   7
BRANCH   1  19
HETATM   19  C   UNL     1      43.143  -9.441  11.714  1.00  0.00    -0.005 A 
HETATM   20  C   UNL     1      41.964 -10.035  12.187  1.00  0.00     0.053 A 
HETATM   21  C   UNL     1      41.293  -9.512  13.301  1.00  0.00     0.102 A 
HETATM   22  C   UNL     1      41.820  -8.390  13.968  1.00  0.00     0.101 A 
HETATM   23  C   UNL     1      42.978  -7.779  13.480  1.00  0.00     0.040 A 
HETATM   24  C   UNL     1      43.632  -8.301  12.360  1.00  0.00     0.017 A 
BRANCH  21  25
HETATM   25  O   UNL     1      40.144 -10.044  13.830  1.00  0.00    -0.353 OA
HETATM   26  C   UNL     1      39.368 -10.892  12.996  1.00  0.00     0.210 C 
ENDBRANCH  21  25
BRANCH  22  27
HETATM   27  O   UNL     1      41.119  -7.943  15.059  1.00  0.00    -0.353 OA
HETATM   28  C   UNL     1      40.582  -6.628  14.978  1.00  0.00     0.210 C 
ENDBRANCH  22  27
ENDBRANCH   1  19
TORSDOF 6
ENDMDL
MODEL 5
REMARK VINA RESULT:      -7.0      7.995     10.685
REMARK  6 active torsions:
REMARK  status: ('A' for Active; 'I' for Inactive)
REMARK    1  A    between atoms: O_2  and  C_3 
REMARK    2  A    between atoms: C_4  and  O_5 
REMARK    3  A    between atoms: C_8  and  C_9 
REMARK    4  A    between atoms: C_13  and  C_14 
REMARK       I    between atoms: C_14  and  N_15 
REMARK    5  A    between atoms: N_15  and  C_16 
REMARK    6  A    between atoms: C_19  and  O_20 
ROOT
HETATM    1  C   UNL     1      44.189 -11.780   6.629  1.00  0.00     0.063 A 
HETATM    2  N   UNL     1      45.529 -11.498   6.719  1.00  0.00    -0.277 N 
HETATM    3  H   UNL     1      46.295 -12.019   6.306  1.00  0.00     0.189 HD
HETATM    4  N   UNL     1      45.822 -10.422   7.473  1.00  0.00    -0.169 NA
HETATM    5  C   UNL     1      44.617  -9.991   7.901  1.00  0.00     0.147 A 
HETATM    6  C   UNL     1      43.577 -10.811   7.399  1.00  0.00     0.071 A 
ENDROOT
BRANCH   5   7
HETATM    7  C   UNL     1      44.479  -8.820   8.786  1.00  0.00     0.276 C 
HETATM    8  N   UNL     1      43.599  -9.061   9.823  1.00  0.00    -0.320 N 
HETATM    9  H   UNL     1      43.196  -9.995   9.803  1.00  0.00     0.169 HD
HETATM   10  O   UNL     1      45.088  -7.777   8.579  1.00  0.00    -0.266 OA
BRANCH   8  11
HETATM   11  C   UNL     1      43.212  -8.183  10.847  1.00  0.00     0.052 A 
HETATM   12  C   UNL     1      42.533  -6.981  10.659  1.00  0.00     0.149 A 
HETATM   13  N   UNL     1      42.169  -6.145  11.664  1.00  0.00    -0.235 NA
HETATM   14  C   UNL     1      42.495  -6.522  12.917  1.00  0.00     0.163 A 
HETATM   15  C   UNL     1      43.166  -7.697  13.211  1.00  0.00     0.060 A 
HETATM   16  C   UNL     1      43.530  -8.536  12.160  1.00  0.00     0.035 A 
BRANCH  14  17
HETATM   17  O   UNL     1      42.159  -5.724  13.991  1.00  0.00    -0.339 OA
HETATM   18  C   UNL     1      41.939  -6.466  15.187  1.00  0.00     0.211 C 
ENDBRANCH  14  17
ENDBRANCH   8  11
ENDBRANCH   5   7
BRANCH   1  19
HETATM   19  C   UNL     1      43.649 -12.920   5.894  1.00  0.00    -0.005 A 
HETATM   20  C   UNL     1      43.419 -14.149   6.528  1.00  0.00     0.053 A 
HETATM   21  C   UNL     1      42.875 -15.230   5.822  1.00  0.00     0.102 A 
HETATM   22  C   UNL     1      42.535 -15.076   4.464  1.00  0.00     0.101 A 
HETATM   23  C   UNL     1      42.793 -13.861   3.823  1.00  0.00     0.040 A 
HETATM   24  C   UNL     1      43.348 -12.794   4.534  1.00  0.00     0.017 A 
BRANCH  21  25
HETATM   25  O   UNL     1      42.608 -16.459   6.374  1.00  0.00    -0.353 OA
HETATM   26  C   UNL     1      43.716 -17.263   6.751  1.00  0.00     0.210 C 
ENDBRANCH  21  25
BRANCH  22  27
HETATM   27  O   UNL     1      41.993 -16.172   3.840  1.00  0.00    -0.353 OA
HETATM   28  C   UNL     1      40.684 -16.020   3.307  1.00  0.00     0.210 C 
ENDBRANCH  22  27
ENDBRANCH   1  19
TORSDOF 6
ENDMDL
MODEL 6
REMARK VINA RESULT:      -7.0      8.672     11.785
REMARK  6 active torsions:
REMARK  status: ('A' for Active; 'I' for Inactive)
REMARK    1  A    between atoms: O_2  and  C_3 
REMARK    2  A    between atoms: C_4  and  O_5 
REMARK    3  A    between atoms: C_8  and  C_9 
REMARK    4  A    between atoms: C_13  and  C_14 
REMARK       I    between atoms: C_14  and  N_15 
REMARK    5  A    between atoms: N_15  and  C_16 
REMARK    6  A    between atoms: C_19  and  O_20 
ROOT
HETATM    1  C   UNL     1      43.939  -9.267  10.217  1.00  0.00     0.063 A 
HETATM    2  N   UNL     1      45.126  -9.916  10.444  1.00  0.00    -0.277 N 
HETATM    3  H   UNL     1      45.753  -9.793  11.231  1.00  0.00     0.189 HD
HETATM    4  N   UNL     1      45.480 -10.784   9.477  1.00  0.00    -0.169 NA
HETATM    5  C   UNL     1      44.480 -10.685   8.575  1.00  0.00     0.147 A 
HETATM    6  C   UNL     1      43.505  -9.750   8.999  1.00  0.00     0.071 A 
ENDROOT
BRANCH   5   7
HETATM    7  C   UNL     1      44.479 -11.470   7.327  1.00  0.00     0.276 C 
HETATM    8  N   UNL     1      43.600 -12.533   7.391  1.00  0.00    -0.320 N 
HETATM    9  H   UNL     1      43.106 -12.598   8.278  1.00  0.00     0.169 HD
HETATM   10  O   UNL     1      45.197 -11.177   6.377  1.00  0.00    -0.266 OA
BRANCH   8  11
HETATM   11  C   UNL     1      43.340 -13.497   6.404  1.00  0.00     0.052 A 
HETATM   12  C   UNL     1      42.662 -13.258   5.210  1.00  0.00     0.149 A 
HETATM   13  N   UNL     1      42.420 -14.206   4.268  1.00  0.00    -0.235 NA
HETATM   14  C   UNL     1      42.876 -15.448   4.525  1.00  0.00     0.163 A 
HETATM   15  C   UNL     1      43.562 -15.788   5.678  1.00  0.00     0.060 A 
HETATM   16  C   UNL     1      43.795 -14.797   6.629  1.00  0.00     0.035 A 
BRANCH  14  17
HETATM   17  O   UNL     1      42.668 -16.465   3.614  1.00  0.00    -0.339 OA
HETATM   18  C   UNL     1      41.362 -16.441   3.045  1.00  0.00     0.211 C 
ENDBRANCH  14  17
ENDBRANCH   8  11
ENDBRANCH   5   7
BRANCH   1  19
HETATM   19  C   UNL     1      43.384  -8.259  11.115  1.00  0.00    -0.005 A 
HETATM   20  C   UNL     1      42.797  -7.087  10.617  1.00  0.00     0.053 A 
HETATM   21  C   UNL     1      42.242  -6.137  11.485  1.00  0.00     0.102 A 
HETATM   22  C   UNL     1      42.252  -6.371  12.874  1.00  0.00     0.101 A 
HETATM   23  C   UNL     1      42.864  -7.524  13.373  1.00  0.00     0.040 A 
HETATM   24  C   UNL     1      43.426  -8.458  12.499  1.00  0.00     0.017 A 
BRANCH  21  25
HETATM   25  O   UNL     1      41.640  -4.974  11.075  1.00  0.00    -0.353 OA
HETATM   26  C   UNL     1      42.463  -3.988  10.468  1.00  0.00     0.210 C 
ENDBRANCH  21  25
BRANCH  22  27
HETATM   27  O   UNL     1      41.678  -5.406  13.661  1.00  0.00    -0.353 OA
HETATM   28  C   UNL     1      40.561  -5.804  14.447  1.00  0.00     0.210 C 
ENDBRANCH  22  27
ENDBRANCH   1  19
TORSDOF 6
ENDMDL
MODEL 7
REMARK VINA RESULT:      -6.9      8.471     11.606
REMARK  6 active torsions:
REMARK  status: ('A' for Active; 'I' for Inactive)
REMARK    1  A    between atoms: O_2  and  C_3 
REMARK    2  A    between atoms: C_4  and  O_5 
REMARK    3  A    between atoms: C_8  and  C_9 
REMARK    4  A    between atoms: C_13  and  C_14 
REMARK       I    between atoms: C_14  and  N_15 
REMARK    5  A    between atoms: N_15  and  C_16 
REMARK    6  A    between atoms: C_19  and  O_20 
ROOT
HETATM    1  C   UNL     1      43.942  -9.318   9.882  1.00  0.00     0.063 A 
HETATM    2  N   UNL     1      45.171  -9.869  10.140  1.00  0.00    -0.277 N 
HETATM    3  H   UNL     1      45.806  -9.629  10.894  1.00  0.00     0.189 HD
HETATM    4  N   UNL     1      45.557 -10.809   9.257  1.00  0.00    -0.169 NA
HETATM    5  C   UNL     1      44.534 -10.863   8.377  1.00  0.00     0.147 A 
HETATM    6  C   UNL     1      43.512  -9.948   8.731  1.00  0.00     0.071 A 
ENDROOT
BRANCH   5   7
HETATM    7  C   UNL     1      44.555 -11.770   7.215  1.00  0.00     0.276 C 
HETATM    8  N   UNL     1      43.586 -12.749   7.313  1.00  0.00    -0.320 N 
HETATM    9  H   UNL     1      43.027 -12.683   8.159  1.00  0.00     0.169 HD
HETATM   10  O   UNL     1      45.361 -11.634   6.302  1.00  0.00    -0.266 OA
BRANCH   8  11
HETATM   11  C   UNL     1      43.315 -13.787   6.406  1.00  0.00     0.052 A 
HETATM   12  C   UNL     1      43.785 -15.094   6.522  1.00  0.00     0.149 A 
HETATM   13  N   UNL     1      43.512 -16.083   5.633  1.00  0.00    -0.235 NA
HETATM   14  C   UNL     1      42.735 -15.758   4.581  1.00  0.00     0.163 A 
HETATM   15  C   UNL     1      42.216 -14.491   4.376  1.00  0.00     0.060 A 
HETATM   16  C   UNL     1      42.514 -13.493   5.303  1.00  0.00     0.035 A 
BRANCH  14  17
HETATM   17  O   UNL     1      42.414 -16.710   3.635  1.00  0.00    -0.339 OA
HETATM   18  C   UNL     1      43.231 -16.632   2.471  1.00  0.00     0.211 C 
ENDBRANCH  14  17
ENDBRANCH   8  11
ENDBRANCH   5   7
BRANCH   1  19
HETATM   19  C   UNL     1      43.344  -8.258  10.689  1.00  0.00    -0.005 A 
HETATM   20  C   UNL     1      43.173  -8.408  12.073  1.00  0.00     0.053 A 
HETATM   21  C   UNL     1      42.624  -7.375  12.844  1.00  0.00     0.102 A 
HETATM   22  C   UNL     1      42.258  -6.163  12.227  1.00  0.00     0.101 A 
HETATM   23  C   UNL     1      42.399  -6.024  10.844  1.00  0.00     0.040 A 
HETATM   24  C   UNL     1      42.936  -7.065  10.082  1.00  0.00     0.017 A 
BRANCH  21  25
HETATM   25  O   UNL     1      42.437  -7.440  14.202  1.00  0.00    -0.353 OA
HETATM   26  C   UNL     1      41.890  -8.639  14.732  1.00  0.00     0.210 C 
ENDBRANCH  21  25
BRANCH  22  27
HETATM   27  O   UNL     1      41.741  -5.191  13.046  1.00  0.00    -0.353 OA
HETATM   28  C   UNL     1      42.312  -3.893  12.937  1.00  0.00     0.210 C 
ENDBRANCH  22  27
ENDBRANCH   1  19
TORSDOF 6
ENDMDL
MODEL 8
REMARK VINA RESULT:      -6.7      1.721      2.385
REMARK  6 active torsions:
REMARK  status: ('A' for Active; 'I' for Inactive)
REMARK    1  A    between atoms: O_2  and  C_3 
REMARK    2  A    between atoms: C_4  and  O_5 
REMARK    3  A    between atoms: C_8  and  C_9 
REMARK    4  A    between atoms: C_13  and  C_14 
REMARK       I    between atoms: C_14  and  N_15 
REMARK    5  A    between atoms: N_15  and  C_16 
REMARK    6  A    between atoms: C_19  and  O_20 
ROOT
HETATM    1  C   UNL     1      40.884 -14.553   0.924  1.00  0.00     0.063 A 
HETATM    2  N   UNL     1      39.841 -14.975   0.139  1.00  0.00    -0.277 N 
HETATM    3  H   UNL     1      39.417 -15.897   0.124  1.00  0.00     0.189 HD
HETATM    4  N   UNL     1      39.374 -14.046  -0.715  1.00  0.00    -0.169 NA
HETATM    5  C   UNL     1      40.159 -12.972  -0.482  1.00  0.00     0.147 A 
HETATM    6  C   UNL     1      41.111 -13.250   0.529  1.00  0.00     0.071 A 
ENDROOT
BRANCH   5   7
HETATM    7  C   UNL     1      39.996 -11.712  -1.230  1.00  0.00     0.276 C 
HETATM    8  N   UNL     1      41.210 -11.098  -1.469  1.00  0.00    -0.320 N 
HETATM    9  H   UNL     1      42.004 -11.609  -1.093  1.00  0.00     0.169 HD
HETATM   10  O   UNL     1      38.893 -11.298  -1.569  1.00  0.00    -0.266 OA
BRANCH   8  11
HETATM   11  C   UNL     1      41.445  -9.886  -2.139  1.00  0.00     0.052 A 
HETATM   12  C   UNL     1      40.953  -9.560  -3.400  1.00  0.00     0.149 A 
HETATM   13  N   UNL     1      41.193  -8.382  -4.031  1.00  0.00    -0.235 NA
HETATM   14  C   UNL     1      41.958  -7.486  -3.375  1.00  0.00     0.163 A 
HETATM   15  C   UNL     1      42.492  -7.712  -2.118  1.00  0.00     0.060 A 
HETATM   16  C   UNL     1      42.232  -8.931  -1.494  1.00  0.00     0.035 A 
BRANCH  14  17
HETATM   17  O   UNL     1      42.246  -6.266  -3.952  1.00  0.00    -0.339 OA
HETATM   18  C   UNL     1      42.450  -5.233  -2.993  1.00  0.00     0.211 C 
ENDBRANCH  14  17
ENDBRANCH   8  11
ENDBRANCH   5   7
BRANCH   1  19
HETATM   19  C   UNL     1      41.565 -15.407   1.893  1.00  0.00    -0.005 A 
HETATM   20  C   UNL     1      41.031 -15.623   3.171  1.00  0.00     0.053 A 
HETATM   21  C   UNL     1      41.677 -16.465   4.086  1.00  0.00     0.102 A 
HETATM   22  C   UNL     1      42.866 -17.120   3.711  1.00  0.00     0.101 A 
HETATM   23  C   UNL     1      43.415 -16.881   2.449  1.00  0.00     0.040 A 
HETATM   24  C   UNL     1      42.769 -16.029   1.549  1.00  0.00     0.017 A 
BRANCH  21  25
HETATM   25  O   UNL     1      41.212 -16.736   5.349  1.00  0.00    -0.353 OA
HETATM   26  C   UNL     1      40.660 -15.658   6.090  1.00  0.00     0.210 C 
ENDBRANCH  21  25
BRANCH  22  27
HETATM   27  O   UNL     1      43.435 -17.940   4.652  1.00  0.00    -0.353 OA
HETATM   28  C   UNL     1      44.196 -19.039   4.165  1.00  0.00     0.210 C 
ENDBRANCH  22  27
ENDBRANCH   1  19
TORSDOF 6
ENDMDL
MODEL 9
REMARK VINA RESULT:      -6.6      1.726      2.918
REMARK  6 active torsions:
REMARK  status: ('A' for Active; 'I' for Inactive)
REMARK    1  A    between atoms: O_2  and  C_3 
REMARK    2  A    between atoms: C_4  and  O_5 
REMARK    3  A    between atoms: C_8  and  C_9 
REMARK    4  A    between atoms: C_13  and  C_14 
REMARK       I    between atoms: C_14  and  N_15 
REMARK    5  A    between atoms: N_15  and  C_16 
REMARK    6  A    between atoms: C_19  and  O_20 
ROOT
HETATM    1  C   UNL     1      40.584 -14.792   0.915  1.00  0.00     0.063 A 
HETATM    2  N   UNL     1      39.619 -15.333   0.105  1.00  0.00    -0.277 N 
HETATM    3  H   UNL     1      39.081 -16.177   0.270  1.00  0.00     0.189 HD
HETATM    4  N   UNL     1      39.411 -14.660  -1.042  1.00  0.00    -0.169 NA
HETATM    5  C   UNL     1      40.292 -13.638  -0.978  1.00  0.00     0.147 A 
HETATM    6  C   UNL     1      41.041 -13.688   0.223  1.00  0.00     0.071 A 
ENDROOT
BRANCH   5   7
HETATM    7  C   UNL     1      40.412 -12.646  -2.062  1.00  0.00     0.276 C 
HETATM    8  N   UNL     1      40.868 -11.429  -1.595  1.00  0.00    -0.320 N 
HETATM    9  H   UNL     1      41.044 -11.419  -0.594  1.00  0.00     0.169 HD
HETATM   10  O   UNL     1      40.120 -12.916  -3.222  1.00  0.00    -0.266 OA
BRANCH   8  11
HETATM   11  C   UNL     1      41.094 -10.254  -2.330  1.00  0.00     0.052 A 
HETATM   12  C   UNL     1      40.617 -10.009  -3.616  1.00  0.00     0.149 A 
HETATM   13  N   UNL     1      40.848  -8.865  -4.309  1.00  0.00    -0.235 NA
HETATM   14  C   UNL     1      41.586  -7.919  -3.694  1.00  0.00     0.163 A 
HETATM   15  C   UNL     1      42.103  -8.064  -2.419  1.00  0.00     0.060 A 
HETATM   16  C   UNL     1      41.854  -9.249  -1.729  1.00  0.00     0.035 A 
BRANCH  14  17
HETATM   17  O   UNL     1      41.863  -6.729  -4.336  1.00  0.00    -0.339 OA
HETATM   18  C   UNL     1      42.479  -5.770  -3.483  1.00  0.00     0.211 C 
ENDBRANCH  14  17
ENDBRANCH   8  11
ENDBRANCH   5   7
BRANCH   1  19
HETATM   19  C   UNL     1      40.995 -15.377   2.187  1.00  0.00    -0.005 A 
HETATM   20  C   UNL     1      41.939 -16.414   2.239  1.00  0.00     0.053 A 
HETATM   21  C   UNL     1      42.348 -16.952   3.466  1.00  0.00     0.102 A 
HETATM   22  C   UNL     1      41.822 -16.432   4.665  1.00  0.00     0.101 A 
HETATM   23  C   UNL     1      40.859 -15.421   4.614  1.00  0.00     0.040 A 
HETATM   24  C   UNL     1      40.449 -14.901   3.384  1.00  0.00     0.017 A 
BRANCH  21  25
HETATM   25  O   UNL     1      43.274 -17.956   3.599  1.00  0.00    -0.353 OA
HETATM   26  C   UNL     1      43.418 -18.863   2.516  1.00  0.00     0.210 C 
ENDBRANCH  21  25
BRANCH  22  27
HETATM   27  O   UNL     1      42.280 -16.998   5.829  1.00  0.00    -0.353 OA
HETATM   28  C   UNL     1      42.130 -16.227   7.015  1.00  0.00     0.210 C 
ENDBRANCH  22  27
ENDBRANCH   1  19
TORSDOF 6
ENDMDL
MODEL 10
REMARK VINA RESULT:      -6.6     15.672     17.298
REMARK  6 active torsions:
REMARK  status: ('A' for Active; 'I' for Inactive)
REMARK    1  A    between atoms: O_2  and  C_3 
REMARK    2  A    between atoms: C_4  and  O_5 
REMARK    3  A    between atoms: C_8  and  C_9 
REMARK    4  A    between atoms: C_13  and  C_14 
REMARK       I    between atoms: C_14  and  N_15 
REMARK    5  A    between atoms: N_15  and  C_16 
REMARK    6  A    between atoms: C_19  and  O_20 
ROOT
HETATM    1  C   UNL     1      48.634 -29.539   2.550  1.00  0.00     0.063 A 
HETATM    2  N   UNL     1      48.056 -28.313   2.759  1.00  0.00    -0.277 N 
HETATM    3  H   UNL     1      48.013 -27.795   3.630  1.00  0.00     0.189 HD
HETATM    4  N   UNL     1      47.464 -27.784   1.673  1.00  0.00    -0.169 NA
HETATM    5  C   UNL     1      47.657 -28.715   0.715  1.00  0.00     0.147 A 
HETATM    6  C   UNL     1      48.379 -29.823   1.223  1.00  0.00     0.071 A 
ENDROOT
BRANCH   5   7
HETATM    7  C   UNL     1      47.143 -28.540  -0.656  1.00  0.00     0.276 C 
HETATM    8  N   UNL     1      46.418 -29.639  -1.076  1.00  0.00    -0.320 N 
HETATM    9  H   UNL     1      46.361 -30.377  -0.379  1.00  0.00     0.169 HD
HETATM   10  O   UNL     1      47.367 -27.526  -1.306  1.00  0.00    -0.266 OA
BRANCH   8  11
HETATM   11  C   UNL     1      45.791 -29.834  -2.316  1.00  0.00     0.052 A 
HETATM   12  C   UNL     1      46.340 -30.533  -3.390  1.00  0.00     0.149 A 
HETATM   13  N   UNL     1      45.716 -30.710  -4.583  1.00  0.00    -0.235 NA
HETATM   14  C   UNL     1      44.489 -30.168  -4.714  1.00  0.00     0.163 A 
HETATM   15  C   UNL     1      43.856 -29.459  -3.708  1.00  0.00     0.060 A 
HETATM   16  C   UNL     1      44.519 -29.289  -2.494  1.00  0.00     0.035 A 
BRANCH  14  17
HETATM   17  O   UNL     1      43.793 -30.305  -5.897  1.00  0.00    -0.339 OA
HETATM   18  C   UNL     1      44.047 -31.546  -6.549  1.00  0.00     0.211 C 
ENDBRANCH  14  17
ENDBRANCH   8  11
ENDBRANCH   5   7
BRANCH   1  19
HETATM   19  C   UNL     1      49.298 -30.310   3.596  1.00  0.00    -0.005 A 
HETATM   20  C   UNL     1      48.579 -31.191   4.418  1.00  0.00     0.053 A 
HETATM   21  C   UNL     1      49.229 -31.947   5.402  1.00  0.00     0.102 A 
HETATM   22  C   UNL     1      50.625 -31.839   5.556  1.00  0.00     0.101 A 
HETATM   23  C   UNL     1      51.338 -30.940   4.759  1.00  0.00     0.040 A 
HETATM   24  C   UNL     1      50.678 -30.181   3.789  1.00  0.00     0.017 A 
BRANCH  21  25
HETATM   25  O   UNL     1      48.598 -32.838   6.234  1.00  0.00    -0.353 OA
HETATM   26  C   UNL     1      47.818 -33.860   5.630  1.00  0.00     0.210 C 
ENDBRANCH  21  25
BRANCH  22  27
HETATM   27  O   UNL     1      51.195 -32.621   6.529  1.00  0.00    -0.353 OA
HETATM   28  C   UNL     1      52.443 -32.181   7.051  1.00  0.00     0.210 C 
ENDBRANCH  22  27
ENDBRANCH   1  19
TORSDOF 6
ENDMDL
