MODEL 1
REMARK VINA RESULT:      -9.2      0.000      0.000
REMARK  6 active torsions:
REMARK  status: ('A' for Active; 'I' for Inactive)
REMARK    1  A    between atoms: C_2  and  O_3 
REMARK    2  A    between atoms: O_3  and  C_4 
REMARK    3  A    between atoms: C_5  and  O_6 
REMARK    4  A    between atoms: C_9  and  C_10 
REMARK       I    between atoms: C_10  and  N_11 
REMARK    5  A    between atoms: N_11  and  N_12 
REMARK       I    between atoms: N_12  and  C_13 
REMARK    6  A    between atoms: C_13  and  C_14 
ROOT
HETATM    1  N   UNL     1      42.894 -12.643   6.105  1.00  0.00    -0.263 N 
HETATM    2  C   UNL     1      43.063 -13.975   6.421  1.00  0.00     0.270 C 
HETATM    3  O   UNL     1      43.160 -14.358   7.586  1.00  0.00    -0.266 OA
HETATM    4  H   UNL     1      42.737 -12.271   5.171  1.00  0.00     0.190 HD
ENDROOT
BRANCH   1   5
HETATM    5  N   UNL     1      42.802 -11.719   7.149  1.00  0.00    -0.263 N 
HETATM    6  C   UNL     1      43.972 -11.162   7.621  1.00  0.00     0.270 C 
HETATM    7  O   UNL     1      45.069 -11.406   7.123  1.00  0.00    -0.266 OA
HETATM    8  H   UNL     1      41.914 -11.702   7.649  1.00  0.00     0.190 HD
BRANCH   6   9
HETATM    9  C   UNL     1      43.854 -10.252   8.790  1.00  0.00     0.036 A 
HETATM   10  C   UNL     1      42.716  -9.441   8.885  1.00  0.00     0.056 A 
HETATM   11  C   UNL     1      42.544  -8.584   9.978  1.00  0.00     0.102 A 
HETATM   12  C   UNL     1      43.517  -8.555  11.000  1.00  0.00     0.102 A 
HETATM   13  C   UNL     1      44.649  -9.371  10.900  1.00  0.00     0.040 A 
HETATM   14  C   UNL     1      44.818 -10.218   9.802  1.00  0.00     0.020 A 
BRANCH  11  15
HETATM   15  O   UNL     1      41.465  -7.752  10.149  1.00  0.00    -0.353 OA
HETATM   16  C   UNL     1      40.231  -8.342  10.532  1.00  0.00     0.210 C 
ENDBRANCH  11  15
BRANCH  12  17
HETATM   17  O   UNL     1      43.270  -7.698  12.042  1.00  0.00    -0.349 OA
BRANCH  17  18
HETATM   18  C   UNL     1      42.935  -8.263  13.306  1.00  0.00     0.171 C 
HETATM   19  C   UNL     1      43.087  -7.180  14.359  1.00  0.00     0.034 C 
ENDBRANCH  17  18
ENDBRANCH  12  17
ENDBRANCH   6   9
ENDBRANCH   1   5
BRANCH   2  20
HETATM   20  C   UNL     1      43.098 -14.946   5.286  1.00  0.00     0.034 A 
HETATM   21  C   UNL     1      43.345 -16.316   5.474  1.00  0.00     0.031 A 
HETATM   22  C   UNL     1      43.392 -17.175   4.356  1.00  0.00    -0.000 A 
HETATM   23  C   UNL     1      43.171 -16.640   3.084  1.00  0.00     0.043 A 
HETATM   24  C   UNL     1      43.634 -18.566   4.188  1.00  0.00    -0.023 A 
HETATM   25  N   UNL     1      43.273 -17.676   2.179  1.00  0.00    -0.358 N 
HETATM   26  C   UNL     1      42.902 -15.284   2.874  1.00  0.00     0.031 A 
HETATM   27  H   UNL     1      43.155 -17.578   1.180  1.00  0.00     0.166 HD
HETATM   28  C   UNL     1      43.562 -18.836   2.837  1.00  0.00     0.017 A 
HETATM   29  C   UNL     1      43.743 -20.166   2.196  1.00  0.00     0.057 C 
HETATM   30  C   UNL     1      44.418 -21.131   3.189  1.00  0.00     0.006 C 
HETATM   31  C   UNL     1      43.811 -21.029   4.602  1.00  0.00     0.005 C 
HETATM   32  C   UNL     1      43.956 -19.616   5.199  1.00  0.00     0.041 C 
HETATM   33  C   UNL     1      42.871 -14.449   3.996  1.00  0.00     0.019 A 
ENDBRANCH   2  20
TORSDOF 6
ENDMDL
MODEL 2
REMARK VINA RESULT:      -8.9      2.278     11.263
REMARK  6 active torsions:
REMARK  status: ('A' for Active; 'I' for Inactive)
REMARK    1  A    between atoms: C_2  and  O_3 
REMARK    2  A    between atoms: O_3  and  C_4 
REMARK    3  A    between atoms: C_5  and  O_6 
REMARK    4  A    between atoms: C_9  and  C_10 
REMARK       I    between atoms: C_10  and  N_11 
REMARK    5  A    between atoms: N_11  and  N_12 
REMARK       I    between atoms: N_12  and  C_13 
REMARK    6  A    between atoms: C_13  and  C_14 
ROOT
HETATM    1  N   UNL     1      43.215 -11.555   7.775  1.00  0.00    -0.263 N 
HETATM    2  C   UNL     1      44.149 -10.817   8.474  1.00  0.00     0.270 C 
HETATM    3  O   UNL     1      45.307 -11.207   8.618  1.00  0.00    -0.266 OA
HETATM    4  H   UNL     1      42.266 -11.258   7.561  1.00  0.00     0.190 HD
ENDROOT
BRANCH   1   5
HETATM    5  N   UNL     1      43.618 -12.760   7.196  1.00  0.00    -0.263 N 
HETATM    6  C   UNL     1      42.748 -13.377   6.322  1.00  0.00     0.270 C 
HETATM    7  O   UNL     1      41.671 -12.880   5.998  1.00  0.00    -0.266 OA
HETATM    8  H   UNL     1      44.412 -13.221   7.638  1.00  0.00     0.190 HD
BRANCH   6   9
HETATM    9  C   UNL     1      43.163 -14.702   5.790  1.00  0.00     0.036 A 
HETATM   10  C   UNL     1      42.789 -15.037   4.482  1.00  0.00     0.056 A 
HETATM   11  C   UNL     1      43.176 -16.261   3.926  1.00  0.00     0.102 A 
HETATM   12  C   UNL     1      43.965 -17.152   4.683  1.00  0.00     0.102 A 
HETATM   13  C   UNL     1      44.339 -16.809   5.986  1.00  0.00     0.040 A 
HETATM   14  C   UNL     1      43.942 -15.588   6.539  1.00  0.00     0.020 A 
BRANCH  11  15
HETATM   15  O   UNL     1      42.849 -16.673   2.657  1.00  0.00    -0.353 OA
HETATM   16  C   UNL     1      43.367 -15.924   1.567  1.00  0.00     0.210 C 
ENDBRANCH  11  15
BRANCH  12  17
HETATM   17  O   UNL     1      44.312 -18.326   4.061  1.00  0.00    -0.349 OA
BRANCH  17  18
HETATM   18  C   UNL     1      44.270 -19.525   4.829  1.00  0.00     0.171 C 
HETATM   19  C   UNL     1      43.925 -20.668   3.891  1.00  0.00     0.034 C 
ENDBRANCH  17  18
ENDBRANCH  12  17
ENDBRANCH   6   9
ENDBRANCH   1   5
BRANCH   2  20
HETATM   20  C   UNL     1      43.704  -9.505   9.030  1.00  0.00     0.034 A 
HETATM   21  C   UNL     1      43.564  -9.279  10.410  1.00  0.00     0.031 A 
HETATM   22  C   UNL     1      43.112  -8.024  10.868  1.00  0.00    -0.000 A 
HETATM   23  C   UNL     1      42.831  -7.025   9.933  1.00  0.00     0.043 A 
HETATM   24  C   UNL     1      42.844  -7.479  12.154  1.00  0.00    -0.023 A 
HETATM   25  N   UNL     1      42.411  -5.913  10.632  1.00  0.00    -0.358 N 
HETATM   26  C   UNL     1      42.982  -7.217   8.556  1.00  0.00     0.031 A 
HETATM   27  H   UNL     1      42.144  -5.035  10.208  1.00  0.00     0.166 HD
HETATM   28  C   UNL     1      42.407  -6.185  11.970  1.00  0.00     0.017 A 
HETATM   29  C   UNL     1      42.017  -5.228  13.040  1.00  0.00     0.057 C 
HETATM   30  C   UNL     1      41.778  -5.993  14.355  1.00  0.00     0.006 C 
HETATM   31  C   UNL     1      42.870  -7.048  14.620  1.00  0.00     0.005 C 
HETATM   32  C   UNL     1      42.941  -8.108  13.505  1.00  0.00     0.041 C 
HETATM   33  C   UNL     1      43.422  -8.474   8.124  1.00  0.00     0.019 A 
ENDBRANCH   2  20
TORSDOF 6
ENDMDL
MODEL 3
REMARK VINA RESULT:      -8.9      1.587      2.051
REMARK  6 active torsions:
REMARK  status: ('A' for Active; 'I' for Inactive)
REMARK    1  A    between atoms: C_2  and  O_3 
REMARK    2  A    between atoms: O_3  and  C_4 
REMARK    3  A    between atoms: C_5  and  O_6 
REMARK    4  A    between atoms: C_9  and  C_10 
REMARK       I    between atoms: C_10  and  N_11 
REMARK    5  A    between atoms: N_11  and  N_12 
REMARK       I    between atoms: N_12  and  C_13 
REMARK    6  A    between atoms: C_13  and  C_14 
ROOT
HETATM    1  N   UNL     1      42.785 -12.745   6.430  1.00  0.00    -0.263 N 
HETATM    2  C   UNL     1      42.647 -12.760   5.057  1.00  0.00     0.270 C 
HETATM    3  O   UNL     1      42.369 -11.744   4.422  1.00  0.00    -0.266 OA
HETATM    4  H   UNL     1      43.081 -13.531   7.004  1.00  0.00     0.190 HD
ENDROOT
BRANCH   1   5
HETATM    5  N   UNL     1      42.631 -11.528   7.100  1.00  0.00    -0.263 N 
HETATM    6  C   UNL     1      43.682 -11.084   7.875  1.00  0.00     0.270 C 
HETATM    7  O   UNL     1      44.751 -11.685   7.950  1.00  0.00    -0.266 OA
HETATM    8  H   UNL     1      41.678 -11.176   7.166  1.00  0.00     0.190 HD
BRANCH   6   9
HETATM    9  C   UNL     1      43.458  -9.833   8.647  1.00  0.00     0.036 A 
HETATM   10  C   UNL     1      43.447  -9.911  10.046  1.00  0.00     0.056 A 
HETATM   11  C   UNL     1      43.266  -8.760  10.819  1.00  0.00     0.102 A 
HETATM   12  C   UNL     1      43.113  -7.510  10.183  1.00  0.00     0.102 A 
HETATM   13  C   UNL     1      43.130  -7.438   8.786  1.00  0.00     0.040 A 
HETATM   14  C   UNL     1      43.303  -8.594   8.019  1.00  0.00     0.020 A 
BRANCH  11  15
HETATM   15  O   UNL     1      43.236  -8.745  12.192  1.00  0.00    -0.353 OA
HETATM   16  C   UNL     1      42.438  -9.723  12.844  1.00  0.00     0.210 C 
ENDBRANCH  11  15
BRANCH  12  17
HETATM   17  O   UNL     1      42.952  -6.428  11.012  1.00  0.00    -0.349 OA
BRANCH  17  18
HETATM   18  C   UNL     1      42.038  -5.412  10.612  1.00  0.00     0.171 C 
HETATM   19  C   UNL     1      42.740  -4.072  10.743  1.00  0.00     0.034 C 
ENDBRANCH  17  18
ENDBRANCH  12  17
ENDBRANCH   6   9
ENDBRANCH   1   5
BRANCH   2  20
HETATM   20  C   UNL     1      42.876 -14.063   4.364  1.00  0.00     0.034 A 
HETATM   21  C   UNL     1      43.032 -15.272   5.063  1.00  0.00     0.031 A 
HETATM   22  C   UNL     1      43.273 -16.464   4.348  1.00  0.00    -0.000 A 
HETATM   23  C   UNL     1      43.333 -16.414   2.953  1.00  0.00     0.043 A 
HETATM   24  C   UNL     1      43.494 -17.816   4.727  1.00  0.00    -0.023 A 
HETATM   25  N   UNL     1      43.580 -17.695   2.505  1.00  0.00    -0.358 N 
HETATM   26  C   UNL     1      43.161 -15.227   2.233  1.00  0.00     0.031 A 
HETATM   27  H   UNL     1      43.669 -17.956   1.532  1.00  0.00     0.166 HD
HETATM   28  C   UNL     1      43.688 -18.542   3.570  1.00  0.00     0.017 A 
HETATM   29  C   UNL     1      43.947 -20.004   3.483  1.00  0.00     0.057 C 
HETATM   30  C   UNL     1      44.373 -20.537   4.864  1.00  0.00     0.006 C 
HETATM   31  C   UNL     1      43.497 -19.972   5.999  1.00  0.00     0.005 C 
HETATM   32  C   UNL     1      43.568 -18.436   6.083  1.00  0.00     0.041 C 
HETATM   33  C   UNL     1      42.933 -14.055   2.964  1.00  0.00     0.019 A 
ENDBRANCH   2  20
TORSDOF 6
ENDMDL
MODEL 4
REMARK VINA RESULT:      -8.8      2.349     11.123
REMARK  6 active torsions:
REMARK  status: ('A' for Active; 'I' for Inactive)
REMARK    1  A    between atoms: C_2  and  O_3 
REMARK    2  A    between atoms: O_3  and  C_4 
REMARK    3  A    between atoms: C_5  and  O_6 
REMARK    4  A    between atoms: C_9  and  C_10 
REMARK       I    between atoms: C_10  and  N_11 
REMARK    5  A    between atoms: N_11  and  N_12 
REMARK       I    between atoms: N_12  and  C_13 
REMARK    6  A    between atoms: C_13  and  C_14 
ROOT
HETATM    1  N   UNL     1      43.217 -11.854   7.549  1.00  0.00    -0.263 N 
HETATM    2  C   UNL     1      44.238 -11.107   8.099  1.00  0.00     0.270 C 
HETATM    3  O   UNL     1      45.421 -11.404   7.933  1.00  0.00    -0.266 OA
HETATM    4  H   UNL     1      42.227 -11.624   7.590  1.00  0.00     0.190 HD
ENDROOT
BRANCH   1   5
HETATM    5  N   UNL     1      43.551 -12.957   6.760  1.00  0.00    -0.263 N 
HETATM    6  C   UNL     1      42.684 -13.310   5.747  1.00  0.00     0.270 C 
HETATM    7  O   UNL     1      41.672 -12.662   5.485  1.00  0.00    -0.266 OA
HETATM    8  H   UNL     1      44.277 -13.566   7.134  1.00  0.00     0.190 HD
BRANCH   6   9
HETATM    9  C   UNL     1      43.018 -14.540   4.981  1.00  0.00     0.036 A 
HETATM   10  C   UNL     1      43.500 -15.649   5.687  1.00  0.00     0.056 A 
HETATM   11  C   UNL     1      43.805 -16.839   5.017  1.00  0.00     0.102 A 
HETATM   12  C   UNL     1      43.606 -16.924   3.623  1.00  0.00     0.102 A 
HETATM   13  C   UNL     1      43.120 -15.813   2.924  1.00  0.00     0.040 A 
HETATM   14  C   UNL     1      42.824 -14.625   3.599  1.00  0.00     0.020 A 
BRANCH  11  15
HETATM   15  O   UNL     1      44.287 -17.970   5.627  1.00  0.00    -0.353 OA
HETATM   16  C   UNL     1      43.374 -18.749   6.388  1.00  0.00     0.210 C 
ENDBRANCH  11  15
BRANCH  12  17
HETATM   17  O   UNL     1      43.918 -18.128   3.043  1.00  0.00    -0.349 OA
BRANCH  17  18
HETATM   18  C   UNL     1      42.917 -18.769   2.257  1.00  0.00     0.171 C 
HETATM   19  C   UNL     1      43.392 -20.179   1.955  1.00  0.00     0.034 C 
ENDBRANCH  17  18
ENDBRANCH  12  17
ENDBRANCH   6   9
ENDBRANCH   1   5
BRANCH   2  20
HETATM   20  C   UNL     1      43.851  -9.899   8.888  1.00  0.00     0.034 A 
HETATM   21  C   UNL     1      43.424  -9.977  10.224  1.00  0.00     0.031 A 
HETATM   22  C   UNL     1      43.046  -8.800  10.904  1.00  0.00    -0.000 A 
HETATM   23  C   UNL     1      43.124  -7.577  10.232  1.00  0.00     0.043 A 
HETATM   24  C   UNL     1      42.559  -8.527  12.211  1.00  0.00    -0.023 A 
HETATM   25  N   UNL     1      42.702  -6.598  11.107  1.00  0.00    -0.358 N 
HETATM   26  C   UNL     1      43.567  -7.471   8.910  1.00  0.00     0.031 A 
HETATM   27  H   UNL     1      42.658  -5.612  10.888  1.00  0.00     0.166 HD
HETATM   28  C   UNL     1      42.349  -7.166  12.298  1.00  0.00     0.017 A 
HETATM   29  C   UNL     1      41.849  -6.427  13.488  1.00  0.00     0.057 C 
HETATM   30  C   UNL     1      41.211  -7.417  14.480  1.00  0.00     0.006 C 
HETATM   31  C   UNL     1      42.063  -8.689  14.660  1.00  0.00     0.005 C 
HETATM   32  C   UNL     1      42.253  -9.457  13.338  1.00  0.00     0.041 C 
HETATM   33  C   UNL     1      43.926  -8.653   8.251  1.00  0.00     0.019 A 
ENDBRANCH   2  20
TORSDOF 6
ENDMDL
MODEL 5
REMARK VINA RESULT:      -8.7      6.637      9.998
REMARK  6 active torsions:
REMARK  status: ('A' for Active; 'I' for Inactive)
REMARK    1  A    between atoms: C_2  and  O_3 
REMARK    2  A    between atoms: O_3  and  C_4 
REMARK    3  A    between atoms: C_5  and  O_6 
REMARK    4  A    between atoms: C_9  and  C_10 
REMARK       I    between atoms: C_10  and  N_11 
REMARK    5  A    between atoms: N_11  and  N_12 
REMARK       I    between atoms: N_12  and  C_13 
REMARK    6  A    between atoms: C_13  and  C_14 
ROOT
HETATM    1  N   UNL     1      41.742 -13.923   0.788  1.00  0.00    -0.263 N 
HETATM    2  C   UNL     1      42.151 -13.554   2.053  1.00  0.00     0.270 C 
HETATM    3  O   UNL     1      42.104 -12.385   2.434  1.00  0.00    -0.266 OA
HETATM    4  H   UNL     1      41.690 -14.876   0.437  1.00  0.00     0.190 HD
ENDROOT
BRANCH   1   5
HETATM    5  N   UNL     1      41.236 -12.936  -0.062  1.00  0.00    -0.263 N 
HETATM    6  C   UNL     1      40.127 -13.246  -0.820  1.00  0.00     0.270 C 
HETATM    7  O   UNL     1      39.546 -14.326  -0.732  1.00  0.00    -0.266 OA
HETATM    8  H   UNL     1      41.856 -12.148  -0.244  1.00  0.00     0.190 HD
BRANCH   6   9
HETATM    9  C   UNL     1      39.664 -12.210  -1.780  1.00  0.00     0.036 A 
HETATM   10  C   UNL     1      38.288 -11.971  -1.883  1.00  0.00     0.056 A 
HETATM   11  C   UNL     1      37.801 -10.989  -2.753  1.00  0.00     0.102 A 
HETATM   12  C   UNL     1      38.708 -10.224  -3.517  1.00  0.00     0.102 A 
HETATM   13  C   UNL     1      40.082 -10.465  -3.406  1.00  0.00     0.040 A 
HETATM   14  C   UNL     1      40.560 -11.453  -2.540  1.00  0.00     0.020 A 
BRANCH  11  15
HETATM   15  O   UNL     1      36.471 -10.693  -2.921  1.00  0.00    -0.353 OA
HETATM   16  C   UNL     1      35.806 -10.022  -1.860  1.00  0.00     0.210 C 
ENDBRANCH  11  15
BRANCH  12  17
HETATM   17  O   UNL     1      38.153  -9.274  -4.337  1.00  0.00    -0.349 OA
BRANCH  17  18
HETATM   18  C   UNL     1      38.993  -8.656  -5.306  1.00  0.00     0.171 C 
HETATM   19  C   UNL     1      38.235  -8.606  -6.620  1.00  0.00     0.034 C 
ENDBRANCH  17  18
ENDBRANCH  12  17
ENDBRANCH   6   9
ENDBRANCH   1   5
BRANCH   2  20
HETATM   20  C   UNL     1      42.630 -14.640   2.959  1.00  0.00     0.034 A 
HETATM   21  C   UNL     1      42.826 -15.960   2.516  1.00  0.00     0.031 A 
HETATM   22  C   UNL     1      43.255 -16.944   3.430  1.00  0.00    -0.000 A 
HETATM   23  C   UNL     1      43.493 -16.577   4.756  1.00  0.00     0.043 A 
HETATM   24  C   UNL     1      43.522 -18.337   3.328  1.00  0.00    -0.023 A 
HETATM   25  N   UNL     1      43.894 -17.711   5.433  1.00  0.00    -0.358 N 
HETATM   26  C   UNL     1      43.326 -15.267   5.217  1.00  0.00     0.031 A 
HETATM   27  H   UNL     1      44.137 -17.738   6.413  1.00  0.00     0.166 HD
HETATM   28  C   UNL     1      43.903 -18.776   4.579  1.00  0.00     0.017 A 
HETATM   29  C   UNL     1      44.285 -20.167   4.945  1.00  0.00     0.057 C 
HETATM   30  C   UNL     1      43.815 -21.137   3.845  1.00  0.00     0.006 C 
HETATM   31  C   UNL     1      44.110 -20.600   2.431  1.00  0.00     0.005 C 
HETATM   32  C   UNL     1      43.406 -19.257   2.158  1.00  0.00     0.041 C 
HETATM   33  C   UNL     1      42.890 -14.308   4.295  1.00  0.00     0.019 A 
ENDBRANCH   2  20
TORSDOF 6
ENDMDL
MODEL 6
REMARK VINA RESULT:      -8.6      1.824      2.206
REMARK  6 active torsions:
REMARK  status: ('A' for Active; 'I' for Inactive)
REMARK    1  A    between atoms: C_2  and  O_3 
REMARK    2  A    between atoms: O_3  and  C_4 
REMARK    3  A    between atoms: C_5  and  O_6 
REMARK    4  A    between atoms: C_9  and  C_10 
REMARK       I    between atoms: C_10  and  N_11 
REMARK    5  A    between atoms: N_11  and  N_12 
REMARK       I    between atoms: N_12  and  C_13 
REMARK    6  A    between atoms: C_13  and  C_14 
ROOT
HETATM    1  N   UNL     1      43.043 -12.824   5.339  1.00  0.00    -0.263 N 
HETATM    2  C   UNL     1      42.854 -13.034   3.989  1.00  0.00     0.270 C 
HETATM    3  O   UNL     1      42.586 -12.111   3.220  1.00  0.00    -0.266 OA
HETATM    4  H   UNL     1      43.334 -13.528   6.013  1.00  0.00     0.190 HD
ENDROOT
BRANCH   1   5
HETATM    5  N   UNL     1      42.955 -11.518   5.828  1.00  0.00    -0.263 N 
HETATM    6  C   UNL     1      43.647 -11.214   6.981  1.00  0.00     0.270 C 
HETATM    7  O   UNL     1      44.372 -12.026   7.552  1.00  0.00    -0.266 OA
HETATM    8  H   UNL     1      42.201 -10.951   5.443  1.00  0.00     0.190 HD
BRANCH   6   9
HETATM    9  C   UNL     1      43.464  -9.844   7.528  1.00  0.00     0.036 A 
HETATM   10  C   UNL     1      42.326  -9.123   7.141  1.00  0.00     0.056 A 
HETATM   11  C   UNL     1      42.094  -7.839   7.647  1.00  0.00     0.102 A 
HETATM   12  C   UNL     1      43.004  -7.278   8.567  1.00  0.00     0.102 A 
HETATM   13  C   UNL     1      44.136  -8.005   8.952  1.00  0.00     0.040 A 
HETATM   14  C   UNL     1      44.366  -9.284   8.438  1.00  0.00     0.020 A 
BRANCH  11  15
HETATM   15  O   UNL     1      41.011  -7.061   7.318  1.00  0.00    -0.353 OA
HETATM   16  C   UNL     1      39.718  -7.576   7.604  1.00  0.00     0.210 C 
ENDBRANCH  11  15
BRANCH  12  17
HETATM   17  O   UNL     1      42.699  -6.020   9.024  1.00  0.00    -0.349 OA
BRANCH  17  18
HETATM   18  C   UNL     1      42.635  -5.820  10.433  1.00  0.00     0.171 C 
HETATM   19  C   UNL     1      41.325  -6.407  10.930  1.00  0.00     0.034 C 
ENDBRANCH  17  18
ENDBRANCH  12  17
ENDBRANCH   6   9
ENDBRANCH   1   5
BRANCH   2  20
HETATM   20  C   UNL     1      43.014 -14.431   3.487  1.00  0.00     0.034 A 
HETATM   21  C   UNL     1      43.171 -15.529   4.351  1.00  0.00     0.031 A 
HETATM   22  C   UNL     1      43.345 -16.820   3.810  1.00  0.00    -0.000 A 
HETATM   23  C   UNL     1      43.339 -16.978   2.422  1.00  0.00     0.043 A 
HETATM   24  C   UNL     1      43.549 -18.109   4.376  1.00  0.00    -0.023 A 
HETATM   25  N   UNL     1      43.529 -18.319   2.159  1.00  0.00    -0.358 N 
HETATM   26  C   UNL     1      43.164 -15.905   1.543  1.00  0.00     0.031 A 
HETATM   27  H   UNL     1      43.564 -18.723   1.233  1.00  0.00     0.166 HD
HETATM   28  C   UNL     1      43.667 -19.003   3.333  1.00  0.00     0.017 A 
HETATM   29  C   UNL     1      43.882 -20.470   3.452  1.00  0.00     0.057 C 
HETATM   30  C   UNL     1      44.360 -20.808   4.877  1.00  0.00     0.006 C 
HETATM   31  C   UNL     1      43.556 -20.053   5.953  1.00  0.00     0.005 C 
HETATM   32  C   UNL     1      43.671 -18.524   5.805  1.00  0.00     0.041 C 
HETATM   33  C   UNL     1      43.003 -14.632   2.101  1.00  0.00     0.019 A 
ENDBRANCH   2  20
TORSDOF 6
ENDMDL
MODEL 7
REMARK VINA RESULT:      -8.3      6.810     11.079
REMARK  6 active torsions:
REMARK  status: ('A' for Active; 'I' for Inactive)
REMARK    1  A    between atoms: C_2  and  O_3 
REMARK    2  A    between atoms: O_3  and  C_4 
REMARK    3  A    between atoms: C_5  and  O_6 
REMARK    4  A    between atoms: C_9  and  C_10 
REMARK       I    between atoms: C_10  and  N_11 
REMARK    5  A    between atoms: N_11  and  N_12 
REMARK       I    between atoms: N_12  and  C_13 
REMARK    6  A    between atoms: C_13  and  C_14 
ROOT
HETATM    1  N   UNL     1      40.945 -13.743  -0.187  1.00  0.00    -0.263 N 
HETATM    2  C   UNL     1      39.839 -14.079  -0.940  1.00  0.00     0.270 C 
HETATM    3  O   UNL     1      39.386 -15.224  -0.952  1.00  0.00    -0.266 OA
HETATM    4  H   UNL     1      41.324 -12.806  -0.079  1.00  0.00     0.190 HD
ENDROOT
BRANCH   1   5
HETATM    5  N   UNL     1      41.539 -14.733   0.600  1.00  0.00    -0.263 N 
HETATM    6  C   UNL     1      41.289 -14.712   1.956  1.00  0.00     0.270 C 
HETATM    7  O   UNL     1      40.528 -13.899   2.478  1.00  0.00    -0.266 OA
HETATM    8  H   UNL     1      42.301 -15.249   0.164  1.00  0.00     0.190 HD
BRANCH   6   9
HETATM    9  C   UNL     1      42.004 -15.721   2.782  1.00  0.00     0.036 A 
HETATM   10  C   UNL     1      41.733 -15.764   4.156  1.00  0.00     0.056 A 
HETATM   11  C   UNL     1      42.361 -16.710   4.973  1.00  0.00     0.102 A 
HETATM   12  C   UNL     1      43.257 -17.638   4.403  1.00  0.00     0.102 A 
HETATM   13  C   UNL     1      43.519 -17.593   3.029  1.00  0.00     0.040 A 
HETATM   14  C   UNL     1      42.895 -16.639   2.220  1.00  0.00     0.020 A 
BRANCH  11  15
HETATM   15  O   UNL     1      42.160 -16.820   6.327  1.00  0.00    -0.353 OA
HETATM   16  C   UNL     1      42.573 -15.734   7.145  1.00  0.00     0.210 C 
ENDBRANCH  11  15
BRANCH  12  17
HETATM   17  O   UNL     1      43.822 -18.540   5.269  1.00  0.00    -0.349 OA
BRANCH  17  18
HETATM   18  C   UNL     1      44.459 -19.688   4.716  1.00  0.00     0.171 C 
HETATM   19  C   UNL     1      43.841 -20.919   5.353  1.00  0.00     0.034 C 
ENDBRANCH  17  18
ENDBRANCH  12  17
ENDBRANCH   6   9
ENDBRANCH   1   5
BRANCH   2  20
HETATM   20  C   UNL     1      39.190 -12.986  -1.724  1.00  0.00     0.034 A 
HETATM   21  C   UNL     1      39.920 -11.923  -2.282  1.00  0.00     0.031 A 
HETATM   22  C   UNL     1      39.242 -10.908  -2.988  1.00  0.00    -0.000 A 
HETATM   23  C   UNL     1      37.855 -10.996  -3.132  1.00  0.00     0.043 A 
HETATM   24  C   UNL     1      39.654  -9.714  -3.641  1.00  0.00    -0.023 A 
HETATM   25  N   UNL     1      37.444  -9.893  -3.850  1.00  0.00    -0.358 N 
HETATM   26  C   UNL     1      37.108 -12.054  -2.604  1.00  0.00     0.031 A 
HETATM   27  H   UNL     1      36.486  -9.699  -4.107  1.00  0.00     0.166 HD
HETATM   28  C   UNL     1      38.523  -9.111  -4.151  1.00  0.00     0.017 A 
HETATM   29  C   UNL     1      38.475  -7.839  -4.920  1.00  0.00     0.057 C 
HETATM   30  C   UNL     1      39.796  -7.071  -4.731  1.00  0.00     0.006 C 
HETATM   31  C   UNL     1      41.025  -7.995  -4.837  1.00  0.00     0.005 C 
HETATM   32  C   UNL     1      41.012  -9.110  -3.775  1.00  0.00     0.041 C 
HETATM   33  C   UNL     1      37.801 -13.045  -1.898  1.00  0.00     0.019 A 
ENDBRANCH   2  20
TORSDOF 6
ENDMDL
MODEL 8
REMARK VINA RESULT:      -8.3      2.367      3.454
REMARK  6 active torsions:
REMARK  status: ('A' for Active; 'I' for Inactive)
REMARK    1  A    between atoms: C_2  and  O_3 
REMARK    2  A    between atoms: O_3  and  C_4 
REMARK    3  A    between atoms: C_5  and  O_6 
REMARK    4  A    between atoms: C_9  and  C_10 
REMARK       I    between atoms: C_10  and  N_11 
REMARK    5  A    between atoms: N_11  and  N_12 
REMARK       I    between atoms: N_12  and  C_13 
REMARK    6  A    between atoms: C_13  and  C_14 
ROOT
HETATM    1  N   UNL     1      42.763 -10.628   7.690  1.00  0.00    -0.263 N 
HETATM    2  C   UNL     1      41.847 -10.715   6.662  1.00  0.00     0.270 C 
HETATM    3  O   UNL     1      40.744 -10.174   6.728  1.00  0.00    -0.266 OA
HETATM    4  H   UNL     1      43.713 -10.991   7.669  1.00  0.00     0.190 HD
ENDROOT
BRANCH   1   5
HETATM    5  N   UNL     1      42.426  -9.876   8.818  1.00  0.00    -0.263 N 
HETATM    6  C   UNL     1      43.200 -10.030   9.949  1.00  0.00     0.270 C 
HETATM    7  O   UNL     1      44.194 -10.753   9.978  1.00  0.00    -0.266 OA
HETATM    8  H   UNL     1      41.499  -9.454   8.809  1.00  0.00     0.190 HD
BRANCH   6   9
HETATM    9  C   UNL     1      42.766  -9.286  11.161  1.00  0.00     0.036 A 
HETATM   10  C   UNL     1      41.401  -9.269  11.474  1.00  0.00     0.056 A 
HETATM   11  C   UNL     1      40.943  -8.605  12.617  1.00  0.00     0.102 A 
HETATM   12  C   UNL     1      41.869  -7.966  13.469  1.00  0.00     0.102 A 
HETATM   13  C   UNL     1      43.232  -7.991  13.153  1.00  0.00     0.040 A 
HETATM   14  C   UNL     1      43.681  -8.650  12.005  1.00  0.00     0.020 A 
BRANCH  11  15
HETATM   15  O   UNL     1      39.626  -8.533  12.996  1.00  0.00    -0.353 OA
HETATM   16  C   UNL     1      38.795  -7.601  12.318  1.00  0.00     0.210 C 
ENDBRANCH  11  15
BRANCH  12  17
HETATM   17  O   UNL     1      41.342  -7.348  14.575  1.00  0.00    -0.349 OA
BRANCH  17  18
HETATM   18  C   UNL     1      42.246  -6.862  15.562  1.00  0.00     0.171 C 
HETATM   19  C   UNL     1      41.714  -7.269  16.925  1.00  0.00     0.034 C 
ENDBRANCH  17  18
ENDBRANCH  12  17
ENDBRANCH   6   9
ENDBRANCH   1   5
BRANCH   2  20
HETATM   20  C   UNL     1      42.259 -11.476   5.444  1.00  0.00     0.034 A 
HETATM   21  C   UNL     1      42.148 -12.874   5.355  1.00  0.00     0.031 A 
HETATM   22  C   UNL     1      42.581 -13.534   4.187  1.00  0.00    -0.000 A 
HETATM   23  C   UNL     1      43.097 -12.774   3.134  1.00  0.00     0.043 A 
HETATM   24  C   UNL     1      42.633 -14.896   3.782  1.00  0.00    -0.023 A 
HETATM   25  N   UNL     1      43.445 -13.649   2.126  1.00  0.00    -0.358 N 
HETATM   26  C   UNL     1      43.199 -11.380   3.190  1.00  0.00     0.031 A 
HETATM   27  H   UNL     1      43.842 -13.373   1.238  1.00  0.00     0.166 HD
HETATM   28  C   UNL     1      43.178 -14.930   2.516  1.00  0.00     0.017 A 
HETATM   29  C   UNL     1      43.416 -16.146   1.693  1.00  0.00     0.057 C 
HETATM   30  C   UNL     1      43.352 -17.397   2.589  1.00  0.00     0.006 C 
HETATM   31  C   UNL     1      42.166 -17.347   3.572  1.00  0.00     0.005 C 
HETATM   32  C   UNL     1      42.242 -16.134   4.519  1.00  0.00     0.041 C 
HETATM   33  C   UNL     1      42.772 -10.747   4.363  1.00  0.00     0.019 A 
ENDBRANCH   2  20
TORSDOF 6
ENDMDL
MODEL 9
REMARK VINA RESULT:      -8.1      6.982     10.242
REMARK  6 active torsions:
REMARK  status: ('A' for Active; 'I' for Inactive)
REMARK    1  A    between atoms: C_2  and  O_3 
REMARK    2  A    between atoms: O_3  and  C_4 
REMARK    3  A    between atoms: C_5  and  O_6 
REMARK    4  A    between atoms: C_9  and  C_10 
REMARK       I    between atoms: C_10  and  N_11 
REMARK    5  A    between atoms: N_11  and  N_12 
REMARK       I    between atoms: N_12  and  C_13 
REMARK    6  A    between atoms: C_13  and  C_14 
ROOT
HETATM    1  N   UNL     1      40.019 -14.333   0.887  1.00  0.00    -0.263 N 
HETATM    2  C   UNL     1      40.811 -13.764   1.863  1.00  0.00     0.270 C 
HETATM    3  O   UNL     1      40.811 -12.551   2.072  1.00  0.00    -0.266 OA
HETATM    4  H   UNL     1      39.921 -15.330   0.712  1.00  0.00     0.190 HD
ENDROOT
BRANCH   1   5
HETATM    5  N   UNL     1      39.178 -13.501   0.144  1.00  0.00    -0.263 N 
HETATM    6  C   UNL     1      39.438 -13.360  -1.202  1.00  0.00     0.270 C 
HETATM    7  O   UNL     1      40.336 -13.977  -1.772  1.00  0.00    -0.266 OA
HETATM    8  H   UNL     1      38.587 -12.872   0.685  1.00  0.00     0.190 HD
BRANCH   6   9
HETATM    9  C   UNL     1      38.583 -12.400  -1.950  1.00  0.00     0.036 A 
HETATM   10  C   UNL     1      39.191 -11.267  -2.506  1.00  0.00     0.056 A 
HETATM   11  C   UNL     1      38.436 -10.345  -3.240  1.00  0.00     0.102 A 
HETATM   12  C   UNL     1      37.058 -10.573  -3.436  1.00  0.00     0.102 A 
HETATM   13  C   UNL     1      36.458 -11.709  -2.882  1.00  0.00     0.040 A 
HETATM   14  C   UNL     1      37.216 -12.622  -2.143  1.00  0.00     0.020 A 
BRANCH  11  15
HETATM   15  O   UNL     1      38.947  -9.207  -3.813  1.00  0.00    -0.353 OA
HETATM   16  C   UNL     1      39.681  -8.321  -2.980  1.00  0.00     0.210 C 
ENDBRANCH  11  15
BRANCH  12  17
HETATM   17  O   UNL     1      36.391  -9.629  -4.176  1.00  0.00    -0.349 OA
BRANCH  17  18
HETATM   18  C   UNL     1      35.009  -9.845  -4.444  1.00  0.00     0.171 C 
HETATM   19  C   UNL     1      34.225  -8.724  -3.785  1.00  0.00     0.034 C 
ENDBRANCH  17  18
ENDBRANCH  12  17
ENDBRANCH   6   9
ENDBRANCH   1   5
BRANCH   2  20
HETATM   20  C   UNL     1      41.655 -14.685   2.681  1.00  0.00     0.034 A 
HETATM   21  C   UNL     1      41.903 -16.015   2.301  1.00  0.00     0.031 A 
HETATM   22  C   UNL     1      42.687 -16.842   3.134  1.00  0.00    -0.000 A 
HETATM   23  C   UNL     1      43.214 -16.308   4.312  1.00  0.00     0.043 A 
HETATM   24  C   UNL     1      43.104 -18.200   3.068  1.00  0.00    -0.023 A 
HETATM   25  N   UNL     1      43.928 -17.310   4.935  1.00  0.00    -0.358 N 
HETATM   26  C   UNL     1      42.999 -14.982   4.701  1.00  0.00     0.031 A 
HETATM   27  H   UNL     1      44.423 -17.204   5.810  1.00  0.00     0.166 HD
HETATM   28  C   UNL     1      43.856 -18.455   4.195  1.00  0.00     0.017 A 
HETATM   29  C   UNL     1      44.506 -19.747   4.544  1.00  0.00     0.057 C 
HETATM   30  C   UNL     1      43.898 -20.878   3.693  1.00  0.00     0.006 C 
HETATM   31  C   UNL     1      43.734 -20.468   2.216  1.00  0.00     0.005 C 
HETATM   32  C   UNL     1      42.808 -19.249   2.047  1.00  0.00     0.041 C 
HETATM   33  C   UNL     1      42.209 -14.183   3.865  1.00  0.00     0.019 A 
ENDBRANCH   2  20
TORSDOF 6
ENDMDL
MODEL 10
REMARK VINA RESULT:      -8.0      2.511      3.439
REMARK  6 active torsions:
REMARK  status: ('A' for Active; 'I' for Inactive)
REMARK    1  A    between atoms: C_2  and  O_3 
REMARK    2  A    between atoms: O_3  and  C_4 
REMARK    3  A    between atoms: C_5  and  O_6 
REMARK    4  A    between atoms: C_9  and  C_10 
REMARK       I    between atoms: C_10  and  N_11 
REMARK    5  A    between atoms: N_11  and  N_12 
REMARK       I    between atoms: N_12  and  C_13 
REMARK    6  A    between atoms: C_13  and  C_14 
ROOT
HETATM    1  N   UNL     1      42.417 -12.974   5.341  1.00  0.00    -0.263 N 
HETATM    2  C   UNL     1      42.823 -13.113   4.030  1.00  0.00     0.270 C 
HETATM    3  O   UNL     1      43.051 -12.138   3.314  1.00  0.00    -0.266 OA
HETATM    4  H   UNL     1      42.281 -13.734   6.002  1.00  0.00     0.190 HD
ENDROOT
BRANCH   1   5
HETATM    5  N   UNL     1      42.294 -11.684   5.865  1.00  0.00    -0.263 N 
HETATM    6  C   UNL     1      41.024 -11.215   6.126  1.00  0.00     0.270 C 
HETATM    7  O   UNL     1      40.017 -11.903   5.969  1.00  0.00    -0.266 OA
HETATM    8  H   UNL     1      43.121 -11.095   5.790  1.00  0.00     0.190 HD
BRANCH   6   9
HETATM    9  C   UNL     1      40.916  -9.809   6.598  1.00  0.00     0.036 A 
HETATM   10  C   UNL     1      42.088  -9.154   6.998  1.00  0.00     0.056 A 
HETATM   11  C   UNL     1      42.044  -7.822   7.427  1.00  0.00     0.102 A 
HETATM   12  C   UNL     1      40.814  -7.133   7.436  1.00  0.00     0.102 A 
HETATM   13  C   UNL     1      39.648  -7.792   7.031  1.00  0.00     0.040 A 
HETATM   14  C   UNL     1      39.697  -9.125   6.612  1.00  0.00     0.020 A 
BRANCH  11  15
HETATM   15  O   UNL     1      43.140  -7.106   7.841  1.00  0.00    -0.353 OA
HETATM   16  C   UNL     1      43.931  -7.655   8.886  1.00  0.00     0.210 C 
ENDBRANCH  11  15
BRANCH  12  17
HETATM   17  O   UNL     1      40.858  -5.828   7.859  1.00  0.00    -0.349 OA
BRANCH  17  18
HETATM   18  C   UNL     1      40.326  -5.525   9.145  1.00  0.00     0.171 C 
HETATM   19  C   UNL     1      39.100  -4.651   8.950  1.00  0.00     0.034 C 
ENDBRANCH  17  18
ENDBRANCH  12  17
ENDBRANCH   6   9
ENDBRANCH   1   5
BRANCH   2  20
HETATM   20  C   UNL     1      43.004 -14.504   3.516  1.00  0.00     0.034 A 
HETATM   21  C   UNL     1      43.155 -15.609   4.370  1.00  0.00     0.031 A 
HETATM   22  C   UNL     1      43.350 -16.893   3.820  1.00  0.00    -0.000 A 
HETATM   23  C   UNL     1      43.368 -17.036   2.430  1.00  0.00     0.043 A 
HETATM   24  C   UNL     1      43.555 -18.186   4.375  1.00  0.00    -0.023 A 
HETATM   25  N   UNL     1      43.574 -18.373   2.156  1.00  0.00    -0.358 N 
HETATM   26  C   UNL     1      43.198 -15.956   1.559  1.00  0.00     0.031 A 
HETATM   27  H   UNL     1      43.628 -18.766   1.227  1.00  0.00     0.166 HD
HETATM   28  C   UNL     1      43.698 -19.068   3.325  1.00  0.00     0.017 A 
HETATM   29  C   UNL     1      43.924 -20.534   3.432  1.00  0.00     0.057 C 
HETATM   30  C   UNL     1      44.381 -20.883   4.861  1.00  0.00     0.006 C 
HETATM   31  C   UNL     1      43.552 -20.147   5.931  1.00  0.00     0.005 C 
HETATM   32  C   UNL     1      43.657 -18.616   5.801  1.00  0.00     0.041 C 
HETATM   33  C   UNL     1      43.017 -14.689   2.127  1.00  0.00     0.019 A 
ENDBRANCH   2  20
TORSDOF 6
ENDMDL
