MODEL 1
REMARK VINA RESULT:      -9.2      0.000      0.000
REMARK  4 active torsions:
REMARK  status: ('A' for Active; 'I' for Inactive)
REMARK    1  A    between atoms: C_9  and  C_10 
REMARK    2  A    between atoms: C_10  and  C_11 
REMARK       I    between atoms: C_11  and  N_12 
REMARK    3  A    between atoms: N_12  and  C_13 
REMARK    4  A    between atoms: C_15  and  C_16 
ROOT
HETATM    1  C   UNL     1      42.827 -14.902   7.534  1.00  0.00     0.227 C 
HETATM    2  N   UNL     1      43.011 -13.736   6.831  1.00  0.00    -0.327 N 
HETATM    3  O   UNL     1      43.362 -15.170   8.610  1.00  0.00    -0.273 OA
HETATM    4  H   UNL     1      42.482 -13.663   5.960  1.00  0.00     0.169 HD
ENDROOT
BRANCH   1   5
HETATM    5  C   UNL     1      41.876 -15.923   6.935  1.00  0.00     0.165 C 
BRANCH   5   6
HETATM    6  C   UNL     1      41.539 -15.933   5.454  1.00  0.00     0.074 A 
HETATM    7  C   UNL     1      42.352 -16.800   4.557  1.00  0.00     0.006 A 
HETATM    8  C   UNL     1      43.396 -17.614   5.014  1.00  0.00     0.014 A 
HETATM    9  C   UNL     1      42.040 -16.790   3.199  1.00  0.00     0.046 A 
HETATM   10  C   UNL     1      44.120 -18.398   4.111  1.00  0.00     0.001 A 
HETATM   11  C   UNL     1      43.806 -18.378   2.752  1.00  0.00     0.001 A 
HETATM   12  C   UNL     1      42.763 -17.575   2.294  1.00  0.00     0.018 A 
HETATM   13  C   UNL     1      40.931 -15.950   2.725  1.00  0.00     0.272 A 
HETATM   14  O   UNL     1      40.617 -15.904   1.542  1.00  0.00    -0.266 OA
HETATM   15  N   UNL     1      40.269 -15.226   3.686  1.00  0.00    -0.243 N 
HETATM   16  N   UNL     1      40.553 -15.205   5.016  1.00  0.00    -0.175 NA
HETATM   17  H   UNL     1      39.499 -14.646   3.365  1.00  0.00     0.192 HD
ENDBRANCH   5   6
ENDBRANCH   1   5
BRANCH   2  18
HETATM   18  C   UNL     1      43.837 -12.642   7.148  1.00  0.00     0.035 A 
HETATM   19  C   UNL     1      43.680 -11.841   8.282  1.00  0.00     0.047 A 
HETATM   20  C   UNL     1      44.549 -10.758   8.544  1.00  0.00     0.071 A 
HETATM   21  C   UNL     1      45.582 -10.494   7.639  1.00  0.00     0.049 A 
HETATM   22 CL   UNL     1      46.697  -9.196   7.868  1.00  0.00    -0.083 Cl
HETATM   23  C   UNL     1      45.745 -11.289   6.503  1.00  0.00     0.027 A 
HETATM   24  C   UNL     1      44.878 -12.356   6.260  1.00  0.00     0.031 A 
BRANCH  20  25
HETATM   25  C   UNL     1      44.353  -9.920   9.776  1.00  0.00     0.419 C 
HETATM   26  F   UNL     1      44.130  -8.601   9.508  1.00  0.00    -0.166 F 
HETATM   27  F   UNL     1      43.284 -10.316  10.523  1.00  0.00    -0.166 F 
HETATM   28  F   UNL     1      45.430  -9.938  10.610  1.00  0.00    -0.166 F 
ENDBRANCH  20  25
ENDBRANCH   2  18
TORSDOF 4
ENDMDL
MODEL 2
REMARK VINA RESULT:      -9.1      6.967      8.631
REMARK  4 active torsions:
REMARK  status: ('A' for Active; 'I' for Inactive)
REMARK    1  A    between atoms: C_9  and  C_10 
REMARK    2  A    between atoms: C_10  and  C_11 
REMARK       I    between atoms: C_11  and  N_12 
REMARK    3  A    between atoms: N_12  and  C_13 
REMARK    4  A    between atoms: C_15  and  C_16 
ROOT
HETATM    1  C   UNL     1      41.874 -15.622   1.645  1.00  0.00     0.227 C 
HETATM    2  N   UNL     1      41.894 -14.467   0.901  1.00  0.00    -0.327 N 
HETATM    3  O   UNL     1      40.864 -16.276   1.907  1.00  0.00    -0.273 OA
HETATM    4  H   UNL     1      42.817 -14.053   0.763  1.00  0.00     0.169 HD
ENDROOT
BRANCH   1   5
HETATM    5  C   UNL     1      43.208 -16.129   2.163  1.00  0.00     0.165 C 
BRANCH   5   6
HETATM    6  C   UNL     1      43.375 -16.640   3.583  1.00  0.00     0.074 A 
HETATM    7  C   UNL     1      43.578 -18.102   3.781  1.00  0.00     0.006 A 
HETATM    8  C   UNL     1      43.638 -19.020   2.725  1.00  0.00     0.014 A 
HETATM    9  C   UNL     1      43.717 -18.559   5.091  1.00  0.00     0.046 A 
HETATM   10  C   UNL     1      43.826 -20.380   2.988  1.00  0.00     0.001 A 
HETATM   11  C   UNL     1      43.958 -20.831   4.301  1.00  0.00     0.001 A 
HETATM   12  C   UNL     1      43.906 -19.920   5.355  1.00  0.00     0.018 A 
HETATM   13  C   UNL     1      43.673 -17.591   6.195  1.00  0.00     0.272 A 
HETATM   14  O   UNL     1      43.789 -17.941   7.364  1.00  0.00    -0.266 OA
HETATM   15  N   UNL     1      43.499 -16.276   5.839  1.00  0.00    -0.243 N 
HETATM   16  N   UNL     1      43.351 -15.798   4.575  1.00  0.00    -0.175 NA
HETATM   17  H   UNL     1      43.472 -15.602   6.599  1.00  0.00     0.192 HD
ENDBRANCH   5   6
ENDBRANCH   1   5
BRANCH   2  18
HETATM   18  C   UNL     1      40.813 -13.780   0.319  1.00  0.00     0.035 A 
HETATM   19  C   UNL     1      40.133 -14.207  -0.825  1.00  0.00     0.047 A 
HETATM   20  C   UNL     1      39.050 -13.471  -1.355  1.00  0.00     0.071 A 
HETATM   21  C   UNL     1      38.663 -12.291  -0.713  1.00  0.00     0.049 A 
HETATM   22 CL   UNL     1      37.354 -11.320  -1.281  1.00  0.00    -0.083 Cl
HETATM   23  C   UNL     1      39.338 -11.856   0.429  1.00  0.00     0.027 A 
HETATM   24  C   UNL     1      40.405 -12.597   0.942  1.00  0.00     0.031 A 
BRANCH  20  25
HETATM   25  C   UNL     1      38.340 -13.964  -2.586  1.00  0.00     0.419 C 
HETATM   26  F   UNL     1      38.554 -15.286  -2.845  1.00  0.00    -0.166 F 
HETATM   27  F   UNL     1      36.986 -13.832  -2.506  1.00  0.00    -0.166 F 
HETATM   28  F   UNL     1      38.722 -13.311  -3.718  1.00  0.00    -0.166 F 
ENDBRANCH  20  25
ENDBRANCH   2  18
TORSDOF 4
ENDMDL
MODEL 3
REMARK VINA RESULT:      -9.0      6.556      8.721
REMARK  4 active torsions:
REMARK  status: ('A' for Active; 'I' for Inactive)
REMARK    1  A    between atoms: C_9  and  C_10 
REMARK    2  A    between atoms: C_10  and  C_11 
REMARK       I    between atoms: C_11  and  N_12 
REMARK    3  A    between atoms: N_12  and  C_13 
REMARK    4  A    between atoms: C_15  and  C_16 
ROOT
HETATM    1  C   UNL     1      41.020 -14.966   2.254  1.00  0.00     0.227 C 
HETATM    2  N   UNL     1      42.292 -15.473   2.146  1.00  0.00    -0.327 N 
HETATM    3  O   UNL     1      40.139 -15.418   2.986  1.00  0.00    -0.273 OA
HETATM    4  H   UNL     1      42.908 -14.974   1.502  1.00  0.00     0.169 HD
ENDROOT
BRANCH   1   5
HETATM    5  C   UNL     1      40.693 -13.746   1.412  1.00  0.00     0.165 C 
BRANCH   5   6
HETATM    6  C   UNL     1      40.180 -13.867  -0.012  1.00  0.00     0.074 A 
HETATM    7  C   UNL     1      40.414 -12.726  -0.940  1.00  0.00     0.006 A 
HETATM    8  C   UNL     1      41.095 -11.560  -0.568  1.00  0.00     0.014 A 
HETATM    9  C   UNL     1      39.927 -12.846  -2.241  1.00  0.00     0.046 A 
HETATM   10  C   UNL     1      41.272 -10.527  -1.493  1.00  0.00     0.001 A 
HETATM   11  C   UNL     1      40.776 -10.651  -2.791  1.00  0.00     0.001 A 
HETATM   12  C   UNL     1      40.104 -11.813  -3.168  1.00  0.00     0.018 A 
HETATM   13  C   UNL     1      39.230 -14.079  -2.633  1.00  0.00     0.272 A 
HETATM   14  O   UNL     1      38.781 -14.233  -3.762  1.00  0.00    -0.266 OA
HETATM   15  N   UNL     1      39.116 -15.044  -1.662  1.00  0.00    -0.243 N 
HETATM   16  N   UNL     1      39.570 -14.956  -0.384  1.00  0.00    -0.175 NA
HETATM   17  H   UNL     1      38.638 -15.900  -1.929  1.00  0.00     0.192 HD
ENDBRANCH   5   6
ENDBRANCH   1   5
BRANCH   2  18
HETATM   18  C   UNL     1      42.849 -16.591   2.795  1.00  0.00     0.035 A 
HETATM   19  C   UNL     1      42.882 -17.879   2.254  1.00  0.00     0.047 A 
HETATM   20  C   UNL     1      43.461 -18.958   2.958  1.00  0.00     0.071 A 
HETATM   21  C   UNL     1      44.008 -18.717   4.223  1.00  0.00     0.049 A 
HETATM   22 CL   UNL     1      44.740 -19.966   5.162  1.00  0.00    -0.083 Cl
HETATM   23  C   UNL     1      43.978 -17.433   4.770  1.00  0.00     0.027 A 
HETATM   24  C   UNL     1      43.403 -16.377   4.060  1.00  0.00     0.031 A 
BRANCH  20  25
HETATM   25  C   UNL     1      43.482 -20.330   2.343  1.00  0.00     0.419 C 
HETATM   26  F   UNL     1      43.549 -21.337   3.261  1.00  0.00    -0.166 F 
HETATM   27  F   UNL     1      42.369 -20.597   1.603  1.00  0.00    -0.166 F 
HETATM   28  F   UNL     1      44.548 -20.527   1.518  1.00  0.00    -0.166 F 
ENDBRANCH  20  25
ENDBRANCH   2  18
TORSDOF 4
ENDMDL
MODEL 4
REMARK VINA RESULT:      -8.7      4.548      8.810
REMARK  4 active torsions:
REMARK  status: ('A' for Active; 'I' for Inactive)
REMARK    1  A    between atoms: C_9  and  C_10 
REMARK    2  A    between atoms: C_10  and  C_11 
REMARK       I    between atoms: C_11  and  N_12 
REMARK    3  A    between atoms: N_12  and  C_13 
REMARK    4  A    between atoms: C_15  and  C_16 
ROOT
HETATM    1  C   UNL     1      44.711 -11.339   7.197  1.00  0.00     0.227 C 
HETATM    2  N   UNL     1      43.726 -12.253   7.480  1.00  0.00    -0.327 N 
HETATM    3  O   UNL     1      45.257 -11.205   6.102  1.00  0.00    -0.273 OA
HETATM    4  H   UNL     1      43.367 -12.227   8.437  1.00  0.00     0.169 HD
ENDROOT
BRANCH   1   5
HETATM    5  C   UNL     1      45.139 -10.419   8.326  1.00  0.00     0.165 C 
BRANCH   5   6
HETATM    6  C   UNL     1      44.284 -10.216   9.564  1.00  0.00     0.074 A 
HETATM    7  C   UNL     1      43.737  -8.855   9.822  1.00  0.00     0.006 A 
HETATM    8  C   UNL     1      43.960  -7.763   8.972  1.00  0.00     0.014 A 
HETATM    9  C   UNL     1      42.964  -8.679  10.968  1.00  0.00     0.046 A 
HETATM   10  C   UNL     1      43.419  -6.512   9.282  1.00  0.00     0.001 A 
HETATM   11  C   UNL     1      42.651  -6.343  10.434  1.00  0.00     0.001 A 
HETATM   12  C   UNL     1      42.420  -7.428  11.279  1.00  0.00     0.018 A 
HETATM   13  C   UNL     1      42.716  -9.831  11.847  1.00  0.00     0.272 A 
HETATM   14  O   UNL     1      42.044  -9.730  12.867  1.00  0.00    -0.266 OA
HETATM   15  N   UNL     1      43.276 -11.022  11.454  1.00  0.00    -0.243 N 
HETATM   16  N   UNL     1      44.042 -11.225  10.350  1.00  0.00    -0.175 NA
HETATM   17  H   UNL     1      43.104 -11.823  12.056  1.00  0.00     0.192 HD
ENDBRANCH   5   6
ENDBRANCH   1   5
BRANCH   2  18
HETATM   18  C   UNL     1      43.159 -13.223   6.632  1.00  0.00     0.035 A 
HETATM   19  C   UNL     1      43.731 -14.470   6.370  1.00  0.00     0.047 A 
HETATM   20  C   UNL     1      43.106 -15.400   5.510  1.00  0.00     0.071 A 
HETATM   21  C   UNL     1      41.889 -15.051   4.915  1.00  0.00     0.049 A 
HETATM   22 CL   UNL     1      41.045 -16.116   3.851  1.00  0.00    -0.083 Cl
HETATM   23  C   UNL     1      41.311 -13.806   5.171  1.00  0.00     0.027 A 
HETATM   24  C   UNL     1      41.942 -12.899   6.025  1.00  0.00     0.031 A 
BRANCH  20  25
HETATM   25  C   UNL     1      43.749 -16.735   5.254  1.00  0.00     0.419 C 
HETATM   26  F   UNL     1      43.943 -17.001   3.930  1.00  0.00    -0.166 F 
HETATM   27  F   UNL     1      44.983 -16.848   5.823  1.00  0.00    -0.166 F 
HETATM   28  F   UNL     1      43.013 -17.780   5.724  1.00  0.00    -0.166 F 
ENDBRANCH  20  25
ENDBRANCH   2  18
TORSDOF 4
ENDMDL
MODEL 5
REMARK VINA RESULT:      -8.6      5.269      7.511
REMARK  4 active torsions:
REMARK  status: ('A' for Active; 'I' for Inactive)
REMARK    1  A    between atoms: C_9  and  C_10 
REMARK    2  A    between atoms: C_10  and  C_11 
REMARK       I    between atoms: C_11  and  N_12 
REMARK    3  A    between atoms: N_12  and  C_13 
REMARK    4  A    between atoms: C_15  and  C_16 
ROOT
HETATM    1  C   UNL     1      42.280 -13.986   2.192  1.00  0.00     0.227 C 
HETATM    2  N   UNL     1      41.815 -15.257   2.427  1.00  0.00    -0.327 N 
HETATM    3  O   UNL     1      43.386 -13.565   2.531  1.00  0.00    -0.273 OA
HETATM    4  H   UNL     1      40.878 -15.453   2.069  1.00  0.00     0.169 HD
ENDROOT
BRANCH   1   5
HETATM    5  C   UNL     1      41.355 -13.044   1.444  1.00  0.00     0.165 C 
BRANCH   5   6
HETATM    6  C   UNL     1      40.542 -13.501   0.246  1.00  0.00     0.074 A 
HETATM    7  C   UNL     1      40.450 -12.589  -0.928  1.00  0.00     0.006 A 
HETATM    8  C   UNL     1      41.089 -11.344  -0.985  1.00  0.00     0.014 A 
HETATM    9  C   UNL     1      39.690 -13.016  -2.015  1.00  0.00     0.046 A 
HETATM   10  C   UNL     1      40.953 -10.538  -2.119  1.00  0.00     0.001 A 
HETATM   11  C   UNL     1      40.186 -10.969  -3.201  1.00  0.00     0.001 A 
HETATM   12  C   UNL     1      39.554 -12.211  -3.152  1.00  0.00     0.018 A 
HETATM   13  C   UNL     1      39.037 -14.331  -1.960  1.00  0.00     0.272 A 
HETATM   14  O   UNL     1      38.357 -14.752  -2.887  1.00  0.00    -0.266 OA
HETATM   15  N   UNL     1      39.238 -15.058  -0.811  1.00  0.00    -0.243 N 
HETATM   16  N   UNL     1      39.965 -14.668   0.270  1.00  0.00    -0.175 NA
HETATM   17  H   UNL     1      38.792 -15.970  -0.770  1.00  0.00     0.192 HD
ENDBRANCH   5   6
ENDBRANCH   1   5
BRANCH   2  18
HETATM   18  C   UNL     1      42.453 -16.315   3.102  1.00  0.00     0.035 A 
HETATM   19  C   UNL     1      42.591 -16.392   4.490  1.00  0.00     0.047 A 
HETATM   20  C   UNL     1      43.240 -17.486   5.105  1.00  0.00     0.071 A 
HETATM   21  C   UNL     1      43.752 -18.504   4.295  1.00  0.00     0.049 A 
HETATM   22 CL   UNL     1      44.561 -19.882   4.948  1.00  0.00    -0.083 Cl
HETATM   23  C   UNL     1      43.619 -18.433   2.907  1.00  0.00     0.027 A 
HETATM   24  C   UNL     1      42.973 -17.346   2.315  1.00  0.00     0.031 A 
BRANCH  20  25
HETATM   25  C   UNL     1      43.366 -17.537   6.603  1.00  0.00     0.419 C 
HETATM   26  F   UNL     1      44.555 -17.054   7.066  1.00  0.00    -0.166 F 
HETATM   27  F   UNL     1      42.411 -16.805   7.242  1.00  0.00    -0.166 F 
HETATM   28  F   UNL     1      43.277 -18.802   7.101  1.00  0.00    -0.166 F 
ENDBRANCH  20  25
ENDBRANCH   2  18
TORSDOF 4
ENDMDL
MODEL 6
REMARK VINA RESULT:      -8.2      5.277      7.304
REMARK  4 active torsions:
REMARK  status: ('A' for Active; 'I' for Inactive)
REMARK    1  A    between atoms: C_9  and  C_10 
REMARK    2  A    between atoms: C_10  and  C_11 
REMARK       I    between atoms: C_11  and  N_12 
REMARK    3  A    between atoms: N_12  and  C_13 
REMARK    4  A    between atoms: C_15  and  C_16 
ROOT
HETATM    1  C   UNL     1      41.837 -13.396   2.457  1.00  0.00     0.227 C 
HETATM    2  N   UNL     1      41.414 -14.681   2.699  1.00  0.00    -0.327 N 
HETATM    3  O   UNL     1      42.981 -12.982   2.644  1.00  0.00    -0.273 OA
HETATM    4  H   UNL     1      40.434 -14.867   2.479  1.00  0.00     0.169 HD
ENDROOT
BRANCH   1   5
HETATM    5  C   UNL     1      40.807 -12.427   1.904  1.00  0.00     0.165 C 
BRANCH   5   6
HETATM    6  C   UNL     1      40.868 -11.922   0.474  1.00  0.00     0.074 A 
HETATM    7  C   UNL     1      40.344 -12.806  -0.604  1.00  0.00     0.006 A 
HETATM    8  C   UNL     1      39.787 -14.068  -0.359  1.00  0.00     0.014 A 
HETATM    9  C   UNL     1      40.417 -12.335  -1.914  1.00  0.00     0.046 A 
HETATM   10  C   UNL     1      39.319 -14.845  -1.423  1.00  0.00     0.001 A 
HETATM   11  C   UNL     1      39.402 -14.370  -2.732  1.00  0.00     0.001 A 
HETATM   12  C   UNL     1      39.950 -13.112  -2.979  1.00  0.00     0.018 A 
HETATM   13  C   UNL     1      40.985 -11.003  -2.164  1.00  0.00     0.272 A 
HETATM   14  O   UNL     1      41.074 -10.544  -3.297  1.00  0.00    -0.266 OA
HETATM   15  N   UNL     1      41.405 -10.307  -1.057  1.00  0.00    -0.243 N 
HETATM   16  N   UNL     1      41.356 -10.740   0.231  1.00  0.00    -0.175 NA
HETATM   17  H   UNL     1      41.795  -9.384  -1.224  1.00  0.00     0.192 HD
ENDBRANCH   5   6
ENDBRANCH   1   5
BRANCH   2  18
HETATM   18  C   UNL     1      42.149 -15.763   3.217  1.00  0.00     0.035 A 
HETATM   19  C   UNL     1      42.400 -15.964   4.577  1.00  0.00     0.047 A 
HETATM   20  C   UNL     1      43.143 -17.077   5.031  1.00  0.00     0.071 A 
HETATM   21  C   UNL     1      43.632 -17.987   4.088  1.00  0.00     0.049 A 
HETATM   22 CL   UNL     1      44.549 -19.377   4.540  1.00  0.00    -0.083 Cl
HETATM   23  C   UNL     1      43.387 -17.792   2.728  1.00  0.00     0.027 A 
HETATM   24  C   UNL     1      42.649 -16.688   2.296  1.00  0.00     0.031 A 
BRANCH  20  25
HETATM   25  C   UNL     1      43.390 -17.263   6.503  1.00  0.00     0.419 C 
HETATM   26  F   UNL     1      42.572 -16.509   7.292  1.00  0.00    -0.166 F 
HETATM   27  F   UNL     1      43.197 -18.548   6.915  1.00  0.00    -0.166 F 
HETATM   28  F   UNL     1      44.656 -16.927   6.876  1.00  0.00    -0.166 F 
ENDBRANCH  20  25
ENDBRANCH   2  18
TORSDOF 4
ENDMDL
MODEL 7
REMARK VINA RESULT:      -7.9      5.487      7.838
REMARK  4 active torsions:
REMARK  status: ('A' for Active; 'I' for Inactive)
REMARK    1  A    between atoms: C_9  and  C_10 
REMARK    2  A    between atoms: C_10  and  C_11 
REMARK       I    between atoms: C_11  and  N_12 
REMARK    3  A    between atoms: N_12  and  C_13 
REMARK    4  A    between atoms: C_15  and  C_16 
ROOT
HETATM    1  C   UNL     1      40.793 -15.074   0.986  1.00  0.00     0.227 C 
HETATM    2  N   UNL     1      42.113 -15.277   1.308  1.00  0.00    -0.327 N 
HETATM    3  O   UNL     1      39.839 -15.624   1.536  1.00  0.00    -0.273 OA
HETATM    4  H   UNL     1      42.784 -14.732   0.764  1.00  0.00     0.169 HD
ENDROOT
BRANCH   1   5
HETATM    5  C   UNL     1      40.502 -14.081  -0.126  1.00  0.00     0.165 C 
BRANCH   5   6
HETATM    6  C   UNL     1      40.919 -12.625  -0.029  1.00  0.00     0.074 A 
HETATM    7  C   UNL     1      40.866 -11.798  -1.267  1.00  0.00     0.006 A 
HETATM    8  C   UNL     1      40.437 -12.294  -2.505  1.00  0.00     0.014 A 
HETATM    9  C   UNL     1      41.263 -10.465  -1.167  1.00  0.00     0.046 A 
HETATM   10  C   UNL     1      40.418 -11.460  -3.626  1.00  0.00     0.001 A 
HETATM   11  C   UNL     1      40.823 -10.129  -3.520  1.00  0.00     0.001 A 
HETATM   12  C   UNL     1      41.245  -9.629  -2.289  1.00  0.00     0.018 A 
HETATM   13  C   UNL     1      41.694  -9.943   0.137  1.00  0.00     0.272 A 
HETATM   14  O   UNL     1      42.054  -8.781   0.278  1.00  0.00    -0.266 OA
HETATM   15  N   UNL     1      41.665 -10.832   1.183  1.00  0.00    -0.243 N 
HETATM   16  N   UNL     1      41.293 -12.138   1.119  1.00  0.00    -0.175 NA
HETATM   17  H   UNL     1      41.959 -10.475   2.088  1.00  0.00     0.192 HD
ENDBRANCH   5   6
ENDBRANCH   1   5
BRANCH   2  18
HETATM   18  C   UNL     1      42.656 -16.141   2.277  1.00  0.00     0.035 A 
HETATM   19  C   UNL     1      42.991 -15.754   3.577  1.00  0.00     0.047 A 
HETATM   20  C   UNL     1      43.529 -16.675   4.503  1.00  0.00     0.071 A 
HETATM   21  C   UNL     1      43.727 -17.999   4.096  1.00  0.00     0.049 A 
HETATM   22 CL   UNL     1      44.377 -19.200   5.151  1.00  0.00    -0.083 Cl
HETATM   23  C   UNL     1      43.396 -18.393   2.798  1.00  0.00     0.027 A 
HETATM   24  C   UNL     1      42.863 -17.470   1.895  1.00  0.00     0.031 A 
BRANCH  20  25
HETATM   25  C   UNL     1      43.875 -16.224   5.895  1.00  0.00     0.419 C 
HETATM   26  F   UNL     1      45.186 -16.417   6.221  1.00  0.00    -0.166 F 
HETATM   27  F   UNL     1      43.651 -14.894   6.093  1.00  0.00    -0.166 F 
HETATM   28  F   UNL     1      43.168 -16.878   6.858  1.00  0.00    -0.166 F 
ENDBRANCH  20  25
ENDBRANCH   2  18
TORSDOF 4
ENDMDL
MODEL 8
REMARK VINA RESULT:      -7.8      6.211      8.433
REMARK  4 active torsions:
REMARK  status: ('A' for Active; 'I' for Inactive)
REMARK    1  A    between atoms: C_9  and  C_10 
REMARK    2  A    between atoms: C_10  and  C_11 
REMARK       I    between atoms: C_11  and  N_12 
REMARK    3  A    between atoms: N_12  and  C_13 
REMARK    4  A    between atoms: C_15  and  C_16 
ROOT
HETATM    1  C   UNL     1      41.529 -13.430   2.292  1.00  0.00     0.227 C 
HETATM    2  N   UNL     1      41.586 -13.412   0.920  1.00  0.00    -0.327 N 
HETATM    3  O   UNL     1      40.492 -13.420   2.956  1.00  0.00    -0.273 OA
HETATM    4  H   UNL     1      42.526 -13.438   0.521  1.00  0.00     0.169 HD
ENDROOT
BRANCH   1   5
HETATM    5  C   UNL     1      42.853 -13.483   3.034  1.00  0.00     0.165 C 
BRANCH   5   6
HETATM    6  C   UNL     1      43.112 -14.488   4.142  1.00  0.00     0.074 A 
HETATM    7  C   UNL     1      43.294 -15.916   3.764  1.00  0.00     0.006 A 
HETATM    8  C   UNL     1      43.254 -16.372   2.440  1.00  0.00     0.014 A 
HETATM    9  C   UNL     1      43.519 -16.830   4.792  1.00  0.00     0.046 A 
HETATM   10  C   UNL     1      43.428 -17.730   2.160  1.00  0.00     0.001 A 
HETATM   11  C   UNL     1      43.646 -18.640   3.195  1.00  0.00     0.001 A 
HETATM   12  C   UNL     1      43.694 -18.190   4.514  1.00  0.00     0.018 A 
HETATM   13  C   UNL     1      43.580 -16.346   6.178  1.00  0.00     0.272 A 
HETATM   14  O   UNL     1      43.773 -17.107   7.118  1.00  0.00    -0.266 OA
HETATM   15  N   UNL     1      43.412 -14.994   6.354  1.00  0.00    -0.243 N 
HETATM   16  N   UNL     1      43.182 -14.078   5.376  1.00  0.00    -0.175 NA
HETATM   17  H   UNL     1      43.457 -14.654   7.311  1.00  0.00     0.192 HD
ENDBRANCH   5   6
ENDBRANCH   1   5
BRANCH   2  18
HETATM   18  C   UNL     1      40.524 -13.351  -0.001  1.00  0.00     0.035 A 
HETATM   19  C   UNL     1      39.845 -12.178  -0.343  1.00  0.00     0.047 A 
HETATM   20  C   UNL     1      38.789 -12.186  -1.281  1.00  0.00     0.071 A 
HETATM   21  C   UNL     1      38.424 -13.401  -1.870  1.00  0.00     0.049 A 
HETATM   22 CL   UNL     1      37.149 -13.517  -3.027  1.00  0.00    -0.083 Cl
HETATM   23  C   UNL     1      39.097 -14.578  -1.533  1.00  0.00     0.027 A 
HETATM   24  C   UNL     1      40.140 -14.551  -0.606  1.00  0.00     0.031 A 
BRANCH  20  25
HETATM   25  C   UNL     1      38.084 -10.904  -1.627  1.00  0.00     0.419 C 
HETATM   26  F   UNL     1      36.751 -10.920  -1.336  1.00  0.00    -0.166 F 
HETATM   27  F   UNL     1      38.581  -9.827  -0.957  1.00  0.00    -0.166 F 
HETATM   28  F   UNL     1      38.156 -10.598  -2.953  1.00  0.00    -0.166 F 
ENDBRANCH  20  25
ENDBRANCH   2  18
TORSDOF 4
ENDMDL
MODEL 9
REMARK VINA RESULT:      -7.8      4.847      8.289
REMARK  4 active torsions:
REMARK  status: ('A' for Active; 'I' for Inactive)
REMARK    1  A    between atoms: C_9  and  C_10 
REMARK    2  A    between atoms: C_10  and  C_11 
REMARK       I    between atoms: C_11  and  N_12 
REMARK    3  A    between atoms: N_12  and  C_13 
REMARK    4  A    between atoms: C_15  and  C_16 
ROOT
HETATM    1  C   UNL     1      42.000 -12.942   4.358  1.00  0.00     0.227 C 
HETATM    2  N   UNL     1      43.095 -13.722   4.076  1.00  0.00    -0.327 N 
HETATM    3  O   UNL     1      40.830 -13.327   4.321  1.00  0.00    -0.273 OA
HETATM    4  H   UNL     1      43.999 -13.255   4.166  1.00  0.00     0.169 HD
ENDROOT
BRANCH   1   5
HETATM    5  C   UNL     1      42.267 -11.503   4.758  1.00  0.00     0.165 C 
BRANCH   5   6
HETATM    6  C   UNL     1      43.459 -11.116   5.614  1.00  0.00     0.074 A 
HETATM    7  C   UNL     1      43.201 -10.380   6.882  1.00  0.00     0.006 A 
HETATM    8  C   UNL     1      41.917 -10.043   7.328  1.00  0.00     0.014 A 
HETATM    9  C   UNL     1      44.306 -10.020   7.653  1.00  0.00     0.046 A 
HETATM   10  C   UNL     1      41.751  -9.346   8.528  1.00  0.00     0.001 A 
HETATM   11  C   UNL     1      42.862  -8.983   9.291  1.00  0.00     0.001 A 
HETATM   12  C   UNL     1      44.142  -9.322   8.855  1.00  0.00     0.018 A 
HETATM   13  C   UNL     1      45.651 -10.391   7.192  1.00  0.00     0.272 A 
HETATM   14  O   UNL     1      46.655 -10.097   7.830  1.00  0.00    -0.266 OA
HETATM   15  N   UNL     1      45.714 -11.087   6.009  1.00  0.00    -0.243 N 
HETATM   16  N   UNL     1      44.659 -11.445   5.230  1.00  0.00    -0.175 NA
HETATM   17  H   UNL     1      46.641 -11.350   5.688  1.00  0.00     0.192 HD
ENDBRANCH   5   6
ENDBRANCH   1   5
BRANCH   2  18
HETATM   18  C   UNL     1      43.131 -15.070   3.672  1.00  0.00     0.035 A 
HETATM   19  C   UNL     1      43.519 -16.129   4.497  1.00  0.00     0.047 A 
HETATM   20  C   UNL     1      43.528 -17.461   4.029  1.00  0.00     0.071 A 
HETATM   21  C   UNL     1      43.140 -17.711   2.709  1.00  0.00     0.049 A 
HETATM   22 CL   UNL     1      43.116 -19.303   2.042  1.00  0.00    -0.083 Cl
HETATM   23  C   UNL     1      42.752 -16.659   1.878  1.00  0.00     0.027 A 
HETATM   24  C   UNL     1      42.747 -15.347   2.357  1.00  0.00     0.031 A 
BRANCH  20  25
HETATM   25  C   UNL     1      43.949 -18.576   4.947  1.00  0.00     0.419 C 
HETATM   26  F   UNL     1      43.088 -19.635   4.949  1.00  0.00    -0.166 F 
HETATM   27  F   UNL     1      45.162 -19.104   4.621  1.00  0.00    -0.166 F 
HETATM   28  F   UNL     1      44.038 -18.187   6.250  1.00  0.00    -0.166 F 
ENDBRANCH  20  25
ENDBRANCH   2  18
TORSDOF 4
ENDMDL
MODEL 10
REMARK VINA RESULT:      -7.8     16.981     18.483
REMARK  4 active torsions:
REMARK  status: ('A' for Active; 'I' for Inactive)
REMARK    1  A    between atoms: C_9  and  C_10 
REMARK    2  A    between atoms: C_10  and  C_11 
REMARK       I    between atoms: C_11  and  N_12 
REMARK    3  A    between atoms: N_12  and  C_13 
REMARK    4  A    between atoms: C_15  and  C_16 
ROOT
HETATM    1  C   UNL     1      42.117 -31.258   1.139  1.00  0.00     0.227 C 
HETATM    2  N   UNL     1      42.641 -29.988   1.138  1.00  0.00    -0.327 N 
HETATM    3  O   UNL     1      42.569 -32.209   0.501  1.00  0.00    -0.273 OA
HETATM    4  H   UNL     1      42.156 -29.314   1.732  1.00  0.00     0.169 HD
ENDROOT
BRANCH   1   5
HETATM    5  C   UNL     1      40.896 -31.495   2.010  1.00  0.00     0.165 C 
BRANCH   5   6
HETATM    6  C   UNL     1      40.986 -31.532   3.525  1.00  0.00     0.074 A 
HETATM    7  C   UNL     1      39.919 -32.254   4.272  1.00  0.00     0.006 A 
HETATM    8  C   UNL     1      38.852 -32.910   3.646  1.00  0.00     0.014 A 
HETATM    9  C   UNL     1      40.008 -32.269   5.663  1.00  0.00     0.046 A 
HETATM   10  C   UNL     1      37.883 -33.563   4.414  1.00  0.00     0.001 A 
HETATM   11  C   UNL     1      37.974 -33.569   5.806  1.00  0.00     0.001 A 
HETATM   12  C   UNL     1      39.039 -32.923   6.433  1.00  0.00     0.018 A 
HETATM   13  C   UNL     1      41.139 -31.596   6.316  1.00  0.00     0.272 A 
HETATM   14  O   UNL     1      41.262 -31.579   7.535  1.00  0.00    -0.266 OA
HETATM   15  N   UNL     1      42.048 -30.994   5.480  1.00  0.00    -0.243 N 
HETATM   16  N   UNL     1      41.987 -30.953   4.122  1.00  0.00    -0.175 NA
HETATM   17  H   UNL     1      42.835 -30.531   5.926  1.00  0.00     0.192 HD
ENDBRANCH   5   6
ENDBRANCH   1   5
BRANCH   2  18
HETATM   18  C   UNL     1      43.747 -29.497   0.419  1.00  0.00     0.035 A 
HETATM   19  C   UNL     1      43.756 -29.281  -0.961  1.00  0.00     0.047 A 
HETATM   20  C   UNL     1      44.900 -28.780  -1.621  1.00  0.00     0.071 A 
HETATM   21  C   UNL     1      46.042 -28.500  -0.864  1.00  0.00     0.049 A 
HETATM   22 CL   UNL     1      47.490 -27.885  -1.574  1.00  0.00    -0.083 Cl
HETATM   23  C   UNL     1      46.042 -28.714   0.516  1.00  0.00     0.027 A 
HETATM   24  C   UNL     1      44.902 -29.208   1.153  1.00  0.00     0.031 A 
BRANCH  20  25
HETATM   25  C   UNL     1      44.871 -28.557  -3.108  1.00  0.00     0.419 C 
HETATM   26  F   UNL     1      45.821 -29.266  -3.784  1.00  0.00    -0.166 F 
HETATM   27  F   UNL     1      43.686 -28.918  -3.676  1.00  0.00    -0.166 F 
HETATM   28  F   UNL     1      45.082 -27.256  -3.455  1.00  0.00    -0.166 F 
ENDBRANCH  20  25
ENDBRANCH   2  18
TORSDOF 4
ENDMDL
