MODEL 1
REMARK VINA RESULT:      -7.7      0.000      0.000
REMARK  8 active torsions:
REMARK  status: ('A' for Active; 'I' for Inactive)
REMARK    1  A    between atoms: C_2  and  O_3 
REMARK    2  A    between atoms: O_3  and  C_4 
REMARK       I    between atoms: C_4  and  N_5 
REMARK    3  A    between atoms: C_8  and  N_9 
REMARK       I    between atoms: N_9  and  C_10 
REMARK    4  A    between atoms: C_10  and  C_11 
REMARK    5  A    between atoms: C_12  and  C_13 
REMARK    6  A    between atoms: N_18  and  C_19 
REMARK    7  A    between atoms: C_19  and  C_20 
REMARK    8  A    between atoms: C_20  and  O_21 
ROOT
HETATM    1  C   UNL     1      41.313 -11.201   5.887  1.00  0.00     0.139 C 
HETATM    2  C   UNL     1      41.086 -10.835   4.403  1.00  0.00     0.145 C 
HETATM    3  N   UNL     1      42.092 -11.394   3.489  1.00  0.00    -0.335 N 
HETATM    4  C   UNL     1      43.412 -11.601   3.885  1.00  0.00     0.255 C 
HETATM    5  O   UNL     1      44.286 -12.024   3.132  1.00  0.00    -0.267 OA
HETATM    6  C   UNL     1      43.765 -11.333   5.305  1.00  0.00     0.039 A 
HETATM    7  C   UNL     1      42.770 -11.168   6.276  1.00  0.00    -0.027 A 
HETATM    8  C   UNL     1      45.117 -11.301   5.675  1.00  0.00     0.017 A 
HETATM    9  C   UNL     1      45.479 -11.103   7.008  1.00  0.00     0.001 A 
HETATM   10  C   UNL     1      44.492 -10.947   7.978  1.00  0.00     0.001 A 
HETATM   11  C   UNL     1      43.144 -10.982   7.617  1.00  0.00     0.009 A 
ENDROOT
BRANCH   1  12
HETATM   12  C   UNL     1      40.633 -12.543   6.138  1.00  0.00     0.229 C 
HETATM   13  N   UNL     1      41.528 -13.603   6.190  1.00  0.00    -0.356 N 
HETATM   14  H   UNL     1      42.463 -13.464   5.828  1.00  0.00     0.162 HD
HETATM   15  O   UNL     1      39.432 -12.682   6.338  1.00  0.00    -0.273 OA
BRANCH  13  16
HETATM   16  C   UNL     1      41.106 -14.961   6.519  1.00  0.00     0.087 C 
HETATM   17  C   UNL     1      40.645 -15.745   5.289  1.00  0.00     0.045 C 
HETATM   18  C   UNL     1      41.807 -16.136   4.382  1.00  0.00     0.130 C 
HETATM   19  N   UNL     1      42.893 -16.777   5.120  1.00  0.00    -0.328 N 
HETATM   20  C   UNL     1      43.752 -17.686   4.512  1.00  0.00     0.362 C 
HETATM   21  C   UNL     1      43.362 -16.104   6.322  1.00  0.00     0.130 C 
HETATM   22  O   UNL     1      44.820 -18.041   4.997  1.00  0.00    -0.238 OA
HETATM   23  C   UNL     1      42.218 -15.715   7.251  1.00  0.00     0.045 C 
BRANCH  20  24
HETATM   24  O   UNL     1      43.273 -18.144   3.325  1.00  0.00    -0.304 OA
BRANCH  24  25
HETATM   25  C   UNL     1      44.001 -19.226   2.726  1.00  0.00     0.176 C 
HETATM   26  C   UNL     1      43.061 -20.147   1.970  1.00  0.00     0.034 C 
ENDBRANCH  24  25
ENDBRANCH  20  24
ENDBRANCH  13  16
ENDBRANCH   1  12
BRANCH   2  27
HETATM   27  C   UNL     1      40.997  -9.326   4.232  1.00  0.00     0.006 A 
HETATM   28  S   UNL     1      40.254  -8.693   2.812  1.00  0.00    -0.104 SA
HETATM   29  C   UNL     1      40.486  -7.081   3.325  1.00  0.00     0.050 A 
HETATM   30  C   UNL     1      41.127  -7.013   4.541  1.00  0.00     0.008 A 
HETATM   31  C   UNL     1      41.423  -8.306   5.063  1.00  0.00     0.017 A 
ENDBRANCH   2  27
BRANCH   3  32
HETATM   32  C   UNL     1      41.672 -11.968   2.200  1.00  0.00     0.153 C 
BRANCH  32  33
HETATM   33  C   UNL     1      40.420 -12.853   2.196  1.00  0.00     0.187 C 
BRANCH  33  34
HETATM   34  O   UNL     1      39.857 -12.919   0.888  1.00  0.00    -0.394 OA
HETATM   35  C   UNL     1      40.358 -14.031   0.158  1.00  0.00     0.201 C 
ENDBRANCH  33  34
ENDBRANCH  32  33
ENDBRANCH   3  32
TORSDOF 8
ENDMDL
MODEL 2
REMARK VINA RESULT:      -7.5      2.955      6.843
REMARK  8 active torsions:
REMARK  status: ('A' for Active; 'I' for Inactive)
REMARK    1  A    between atoms: C_2  and  O_3 
REMARK    2  A    between atoms: O_3  and  C_4 
REMARK       I    between atoms: C_4  and  N_5 
REMARK    3  A    between atoms: C_8  and  N_9 
REMARK       I    between atoms: N_9  and  C_10 
REMARK    4  A    between atoms: C_10  and  C_11 
REMARK    5  A    between atoms: C_12  and  C_13 
REMARK    6  A    between atoms: N_18  and  C_19 
REMARK    7  A    between atoms: C_19  and  C_20 
REMARK    8  A    between atoms: C_20  and  O_21 
ROOT
HETATM    1  C   UNL     1      42.696 -13.263   3.977  1.00  0.00     0.139 C 
HETATM    2  C   UNL     1      41.298 -12.862   3.456  1.00  0.00     0.145 C 
HETATM    3  N   UNL     1      40.298 -12.668   4.515  1.00  0.00    -0.335 N 
HETATM    4  C   UNL     1      40.336 -13.394   5.705  1.00  0.00     0.255 C 
HETATM    5  O   UNL     1      39.490 -13.287   6.589  1.00  0.00    -0.267 OA
HETATM    6  C   UNL     1      41.485 -14.313   5.925  1.00  0.00     0.039 A 
HETATM    7  C   UNL     1      42.630 -14.241   5.123  1.00  0.00    -0.027 A 
HETATM    8  C   UNL     1      41.431 -15.225   6.988  1.00  0.00     0.017 A 
HETATM    9  C   UNL     1      42.513 -16.066   7.253  1.00  0.00     0.001 A 
HETATM   10  C   UNL     1      43.657 -15.990   6.463  1.00  0.00     0.001 A 
HETATM   11  C   UNL     1      43.719 -15.082   5.405  1.00  0.00     0.009 A 
ENDROOT
BRANCH   1  12
HETATM   12  C   UNL     1      43.452 -11.977   4.300  1.00  0.00     0.229 C 
HETATM   13  N   UNL     1      43.246 -11.540   5.602  1.00  0.00    -0.356 N 
HETATM   14  H   UNL     1      42.468 -11.925   6.124  1.00  0.00     0.162 HD
HETATM   15  O   UNL     1      44.213 -11.410   3.526  1.00  0.00    -0.273 OA
BRANCH  13  16
HETATM   16  C   UNL     1      43.949 -10.387   6.155  1.00  0.00     0.087 C 
HETATM   17  C   UNL     1      43.014  -9.435   6.905  1.00  0.00     0.045 C 
HETATM   18  C   UNL     1      42.547 -10.012   8.236  1.00  0.00     0.130 C 
HETATM   19  N   UNL     1      43.658 -10.509   9.044  1.00  0.00    -0.328 N 
HETATM   20  C   UNL     1      43.591 -10.551  10.433  1.00  0.00     0.362 C 
HETATM   21  C   UNL     1      44.608 -11.394   8.388  1.00  0.00     0.130 C 
HETATM   22  O   UNL     1      44.365 -11.192  11.133  1.00  0.00    -0.238 OA
HETATM   23  C   UNL     1      45.100 -10.832   7.059  1.00  0.00     0.045 C 
BRANCH  20  24
HETATM   24  O   UNL     1      42.576  -9.794  10.929  1.00  0.00    -0.304 OA
BRANCH  24  25
HETATM   25  C   UNL     1      42.605  -9.549  12.343  1.00  0.00     0.176 C 
HETATM   26  C   UNL     1      43.242  -8.202  12.636  1.00  0.00     0.034 C 
ENDBRANCH  24  25
ENDBRANCH  20  24
ENDBRANCH  13  16
ENDBRANCH   1  12
BRANCH   2  27
HETATM   27  C   UNL     1      40.798 -13.873   2.436  1.00  0.00     0.006 A 
HETATM   28  S   UNL     1      40.868 -13.469   0.762  1.00  0.00    -0.104 SA
HETATM   29  C   UNL     1      40.223 -14.980   0.298  1.00  0.00     0.050 A 
HETATM   30  C   UNL     1      39.940 -15.776   1.385  1.00  0.00     0.008 A 
HETATM   31  C   UNL     1      40.271 -15.139   2.616  1.00  0.00     0.017 A 
ENDBRANCH   2  27
BRANCH   3  32
HETATM   32  C   UNL     1      39.365 -11.532   4.442  1.00  0.00     0.153 C 
BRANCH  32  33
HETATM   33  C   UNL     1      39.900 -10.152   4.844  1.00  0.00     0.187 C 
BRANCH  33  34
HETATM   34  O   UNL     1      39.704  -9.213   3.790  1.00  0.00    -0.394 OA
HETATM   35  C   UNL     1      39.003  -9.791   2.697  1.00  0.00     0.201 C 
ENDBRANCH  33  34
ENDBRANCH  32  33
ENDBRANCH   3  32
TORSDOF 8
ENDMDL
MODEL 3
REMARK VINA RESULT:      -7.3      4.225      6.362
REMARK  8 active torsions:
REMARK  status: ('A' for Active; 'I' for Inactive)
REMARK    1  A    between atoms: C_2  and  O_3 
REMARK    2  A    between atoms: O_3  and  C_4 
REMARK       I    between atoms: C_4  and  N_5 
REMARK    3  A    between atoms: C_8  and  N_9 
REMARK       I    between atoms: N_9  and  C_10 
REMARK    4  A    between atoms: C_10  and  C_11 
REMARK    5  A    between atoms: C_12  and  C_13 
REMARK    6  A    between atoms: N_18  and  C_19 
REMARK    7  A    between atoms: C_19  and  C_20 
REMARK    8  A    between atoms: C_20  and  O_21 
ROOT
HETATM    1  C   UNL     1      42.088  -9.973   8.536  1.00  0.00     0.139 C 
HETATM    2  C   UNL     1      41.455  -8.893   9.443  1.00  0.00     0.145 C 
HETATM    3  N   UNL     1      42.036  -7.554   9.274  1.00  0.00    -0.335 N 
HETATM    4  C   UNL     1      43.375  -7.372   8.928  1.00  0.00     0.255 C 
HETATM    5  O   UNL     1      43.901  -6.267   8.824  1.00  0.00    -0.267 OA
HETATM    6  C   UNL     1      44.190  -8.581   8.632  1.00  0.00     0.039 A 
HETATM    7  C   UNL     1      43.583  -9.823   8.414  1.00  0.00    -0.027 A 
HETATM    8  C   UNL     1      45.581  -8.451   8.517  1.00  0.00     0.017 A 
HETATM    9  C   UNL     1      46.368  -9.555   8.189  1.00  0.00     0.001 A 
HETATM   10  C   UNL     1      45.767 -10.791   7.963  1.00  0.00     0.001 A 
HETATM   11  C   UNL     1      44.383 -10.927   8.073  1.00  0.00     0.009 A 
ENDROOT
BRANCH   1  12
HETATM   12  C   UNL     1      41.350  -9.942   7.202  1.00  0.00     0.229 C 
HETATM   13  N   UNL     1      41.252 -11.192   6.606  1.00  0.00    -0.356 N 
HETATM   14  H   UNL     1      41.855 -11.935   6.941  1.00  0.00     0.162 HD
HETATM   15  O   UNL     1      40.835  -8.939   6.719  1.00  0.00    -0.273 OA
BRANCH  13  16
HETATM   16  C   UNL     1      40.501 -11.411   5.375  1.00  0.00     0.087 C 
HETATM   17  C   UNL     1      41.406 -11.748   4.188  1.00  0.00     0.045 C 
HETATM   18  C   UNL     1      41.994 -13.151   4.288  1.00  0.00     0.130 C 
HETATM   19  N   UNL     1      40.974 -14.160   4.558  1.00  0.00    -0.328 N 
HETATM   20  C   UNL     1      41.127 -15.482   4.153  1.00  0.00     0.362 C 
HETATM   21  C   UNL     1      40.053 -13.893   5.653  1.00  0.00     0.130 C 
HETATM   22  O   UNL     1      40.446 -16.407   4.578  1.00  0.00    -0.238 OA
HETATM   23  C   UNL     1      39.442 -12.499   5.568  1.00  0.00     0.045 C 
BRANCH  20  24
HETATM   24  O   UNL     1      42.112 -15.633   3.227  1.00  0.00    -0.304 OA
BRANCH  24  25
HETATM   25  C   UNL     1      41.952 -16.725   2.310  1.00  0.00     0.176 C 
HETATM   26  C   UNL     1      43.081 -17.726   2.472  1.00  0.00     0.034 C 
ENDBRANCH  24  25
ENDBRANCH  20  24
ENDBRANCH  13  16
ENDBRANCH   1  12
BRANCH   2  27
HETATM   27  C   UNL     1      41.517  -9.317  10.902  1.00  0.00     0.006 A 
HETATM   28  S   UNL     1      40.053  -9.738  11.709  1.00  0.00    -0.104 SA
HETATM   29  C   UNL     1      40.876 -10.099  13.161  1.00  0.00     0.050 A 
HETATM   30  C   UNL     1      42.232  -9.892  13.051  1.00  0.00     0.008 A 
HETATM   31  C   UNL     1      42.601  -9.441  11.751  1.00  0.00     0.017 A 
ENDBRANCH   2  27
BRANCH   3  32
HETATM   32  C   UNL     1      41.159  -6.373   9.239  1.00  0.00     0.153 C 
BRANCH  32  33
HETATM   33  C   UNL     1      40.639  -5.840  10.579  1.00  0.00     0.187 C 
BRANCH  33  34
HETATM   34  O   UNL     1      41.676  -5.850  11.557  1.00  0.00    -0.394 OA
HETATM   35  C   UNL     1      41.171  -6.141  12.853  1.00  0.00     0.201 C 
ENDBRANCH  33  34
ENDBRANCH  32  33
ENDBRANCH   3  32
TORSDOF 8
ENDMDL
MODEL 4
REMARK VINA RESULT:      -7.3      3.196      7.660
REMARK  8 active torsions:
REMARK  status: ('A' for Active; 'I' for Inactive)
REMARK    1  A    between atoms: C_2  and  O_3 
REMARK    2  A    between atoms: O_3  and  C_4 
REMARK       I    between atoms: C_4  and  N_5 
REMARK    3  A    between atoms: C_8  and  N_9 
REMARK       I    between atoms: N_9  and  C_10 
REMARK    4  A    between atoms: C_10  and  C_11 
REMARK    5  A    between atoms: C_12  and  C_13 
REMARK    6  A    between atoms: N_18  and  C_19 
REMARK    7  A    between atoms: C_19  and  C_20 
REMARK    8  A    between atoms: C_20  and  O_21 
ROOT
HETATM    1  C   UNL     1      40.818 -13.195   5.342  1.00  0.00     0.139 C 
HETATM    2  C   UNL     1      42.222 -13.253   5.986  1.00  0.00     0.145 C 
HETATM    3  N   UNL     1      43.209 -12.371   5.348  1.00  0.00    -0.335 N 
HETATM    4  C   UNL     1      43.159 -12.074   3.986  1.00  0.00     0.255 C 
HETATM    5  O   UNL     1      43.995 -11.378   3.415  1.00  0.00    -0.267 OA
HETATM    6  C   UNL     1      42.009 -12.596   3.200  1.00  0.00     0.039 A 
HETATM    7  C   UNL     1      40.873 -13.108   3.838  1.00  0.00    -0.027 A 
HETATM    8  C   UNL     1      42.052 -12.519   1.801  1.00  0.00     0.017 A 
HETATM    9  C   UNL     1      40.968 -12.953   1.037  1.00  0.00     0.001 A 
HETATM   10  C   UNL     1      39.832 -13.455   1.668  1.00  0.00     0.001 A 
HETATM   11  C   UNL     1      39.781 -13.531   3.061  1.00  0.00     0.009 A 
ENDROOT
BRANCH   1  12
HETATM   12  C   UNL     1      40.058 -12.050   6.003  1.00  0.00     0.229 C 
HETATM   13  N   UNL     1      40.792 -10.873   6.063  1.00  0.00    -0.356 N 
HETATM   14  H   UNL     1      41.793 -10.920   5.914  1.00  0.00     0.162 HD
HETATM   15  O   UNL     1      38.897 -12.124   6.391  1.00  0.00    -0.273 OA
BRANCH  13  16
HETATM   16  C   UNL     1      40.224  -9.626   6.564  1.00  0.00     0.087 C 
HETATM   17  C   UNL     1      40.032  -9.638   8.082  1.00  0.00     0.045 C 
HETATM   18  C   UNL     1      41.355  -9.544   8.834  1.00  0.00     0.130 C 
HETATM   19  N   UNL     1      42.189  -8.446   8.352  1.00  0.00    -0.328 N 
HETATM   20  C   UNL     1      43.115  -7.816   9.176  1.00  0.00     0.362 C 
HETATM   21  C   UNL     1      42.390  -8.350   6.914  1.00  0.00     0.130 C 
HETATM   22  O   UNL     1      44.010  -7.088   8.762  1.00  0.00    -0.238 OA
HETATM   23  C   UNL     1      41.079  -8.429   6.141  1.00  0.00     0.045 C 
BRANCH  20  24
HETATM   24  O   UNL     1      42.914  -8.089  10.492  1.00  0.00    -0.304 OA
BRANCH  24  25
HETATM   25  C   UNL     1      43.994  -8.745  11.173  1.00  0.00     0.176 C 
HETATM   26  C   UNL     1      43.655 -10.202  11.429  1.00  0.00     0.034 C 
ENDBRANCH  24  25
ENDBRANCH  20  24
ENDBRANCH  13  16
ENDBRANCH   1  12
BRANCH   2  27
HETATM   27  C   UNL     1      42.735 -14.685   6.020  1.00  0.00     0.006 A 
HETATM   28  S   UNL     1      42.805 -15.507   7.533  1.00  0.00    -0.104 SA
HETATM   29  C   UNL     1      43.397 -16.935   6.809  1.00  0.00     0.050 A 
HETATM   30  C   UNL     1      43.557 -16.796   5.449  1.00  0.00     0.008 A 
HETATM   31  C   UNL     1      43.177 -15.500   4.994  1.00  0.00     0.017 A 
ENDBRANCH   2  27
BRANCH   3  32
HETATM   32  C   UNL     1      44.142 -11.593   6.179  1.00  0.00     0.153 C 
BRANCH  32  33
HETATM   33  C   UNL     1      43.981 -11.690   7.700  1.00  0.00     0.187 C 
BRANCH  33  34
HETATM   34  O   UNL     1      45.160 -11.235   8.359  1.00  0.00    -0.394 OA
HETATM   35  C   UNL     1      45.797 -10.193   7.632  1.00  0.00     0.201 C 
ENDBRANCH  33  34
ENDBRANCH  32  33
ENDBRANCH   3  32
TORSDOF 8
ENDMDL
MODEL 5
REMARK VINA RESULT:      -7.2      3.829      8.062
REMARK  8 active torsions:
REMARK  status: ('A' for Active; 'I' for Inactive)
REMARK    1  A    between atoms: C_2  and  O_3 
REMARK    2  A    between atoms: O_3  and  C_4 
REMARK       I    between atoms: C_4  and  N_5 
REMARK    3  A    between atoms: C_8  and  N_9 
REMARK       I    between atoms: N_9  and  C_10 
REMARK    4  A    between atoms: C_10  and  C_11 
REMARK    5  A    between atoms: C_12  and  C_13 
REMARK    6  A    between atoms: N_18  and  C_19 
REMARK    7  A    between atoms: C_19  and  C_20 
REMARK    8  A    between atoms: C_20  and  O_21 
ROOT
HETATM    1  C   UNL     1      40.902 -11.861   5.698  1.00  0.00     0.139 C 
HETATM    2  C   UNL     1      42.289 -12.325   6.197  1.00  0.00     0.145 C 
HETATM    3  N   UNL     1      43.394 -11.989   5.289  1.00  0.00    -0.335 N 
HETATM    4  C   UNL     1      43.217 -11.925   3.907  1.00  0.00     0.255 C 
HETATM    5  O   UNL     1      44.131 -11.692   3.119  1.00  0.00    -0.267 OA
HETATM    6  C   UNL     1      41.842 -12.110   3.370  1.00  0.00     0.039 A 
HETATM    7  C   UNL     1      40.726 -12.053   4.212  1.00  0.00    -0.027 A 
HETATM    8  C   UNL     1      41.670 -12.289   1.990  1.00  0.00     0.017 A 
HETATM    9  C   UNL     1      40.391 -12.414   1.449  1.00  0.00     0.001 A 
HETATM   10  C   UNL     1      39.277 -12.348   2.283  1.00  0.00     0.001 A 
HETATM   11  C   UNL     1      39.441 -12.167   3.657  1.00  0.00     0.009 A 
ENDROOT
BRANCH   1  12
HETATM   12  C   UNL     1      40.702 -10.423   6.166  1.00  0.00     0.229 C 
HETATM   13  N   UNL     1      40.595 -10.312   7.546  1.00  0.00    -0.356 N 
HETATM   14  H   UNL     1      40.408 -11.149   8.085  1.00  0.00     0.162 HD
HETATM   15  O   UNL     1      40.697  -9.448   5.423  1.00  0.00    -0.273 OA
BRANCH  13  16
HETATM   16  C   UNL     1      40.499  -9.020   8.218  1.00  0.00     0.087 C 
HETATM   17  C   UNL     1      39.524  -9.043   9.396  1.00  0.00     0.045 C 
HETATM   18  C   UNL     1      40.073  -9.820  10.587  1.00  0.00     0.130 C 
HETATM   19  N   UNL     1      41.425  -9.401  10.946  1.00  0.00    -0.328 N 
HETATM   20  C   UNL     1      41.907  -9.520  12.245  1.00  0.00     0.362 C 
HETATM   21  C   UNL     1      42.401  -9.323   9.870  1.00  0.00     0.130 C 
HETATM   22  O   UNL     1      43.093  -9.438  12.542  1.00  0.00    -0.238 OA
HETATM   23  C   UNL     1      41.879  -8.538   8.672  1.00  0.00     0.045 C 
BRANCH  20  24
HETATM   24  O   UNL     1      40.915  -9.729  13.153  1.00  0.00    -0.304 OA
BRANCH  24  25
HETATM   25  C   UNL     1      40.900  -8.846  14.284  1.00  0.00     0.176 C 
HETATM   26  C   UNL     1      40.233  -7.530  13.925  1.00  0.00     0.034 C 
ENDBRANCH  24  25
ENDBRANCH  20  24
ENDBRANCH  13  16
ENDBRANCH   1  12
BRANCH   2  27
HETATM   27  C   UNL     1      42.280 -13.817   6.490  1.00  0.00     0.006 A 
HETATM   28  S   UNL     1      40.796 -14.683   6.352  1.00  0.00    -0.104 SA
HETATM   29  C   UNL     1      41.540 -16.163   6.766  1.00  0.00     0.050 A 
HETATM   30  C   UNL     1      42.884 -16.011   7.023  1.00  0.00     0.008 A 
HETATM   31  C   UNL     1      43.310 -14.660   6.865  1.00  0.00     0.017 A 
ENDBRANCH   2  27
BRANCH   3  32
HETATM   32  C   UNL     1      44.663 -11.482   5.835  1.00  0.00     0.153 C 
BRANCH  32  33
HETATM   33  C   UNL     1      44.608 -10.746   7.179  1.00  0.00     0.187 C 
BRANCH  33  34
HETATM   34  O   UNL     1      45.923 -10.422   7.626  1.00  0.00    -0.394 OA
HETATM   35  C   UNL     1      45.967  -9.141   8.241  1.00  0.00     0.201 C 
ENDBRANCH  33  34
ENDBRANCH  32  33
ENDBRANCH   3  32
TORSDOF 8
ENDMDL
MODEL 6
REMARK VINA RESULT:      -7.0      3.354      6.100
REMARK  8 active torsions:
REMARK  status: ('A' for Active; 'I' for Inactive)
REMARK    1  A    between atoms: C_2  and  O_3 
REMARK    2  A    between atoms: O_3  and  C_4 
REMARK       I    between atoms: C_4  and  N_5 
REMARK    3  A    between atoms: C_8  and  N_9 
REMARK       I    between atoms: N_9  and  C_10 
REMARK    4  A    between atoms: C_10  and  C_11 
REMARK    5  A    between atoms: C_12  and  C_13 
REMARK    6  A    between atoms: N_18  and  C_19 
REMARK    7  A    between atoms: C_19  and  C_20 
REMARK    8  A    between atoms: C_20  and  O_21 
ROOT
HETATM    1  C   UNL     1      41.861  -9.278   6.673  1.00  0.00     0.139 C 
HETATM    2  C   UNL     1      42.428  -9.655   8.060  1.00  0.00     0.145 C 
HETATM    3  N   UNL     1      41.932  -8.815   9.158  1.00  0.00    -0.335 N 
HETATM    4  C   UNL     1      41.596  -7.475   8.965  1.00  0.00     0.255 C 
HETATM    5  O   UNL     1      41.222  -6.735   9.872  1.00  0.00    -0.267 OA
HETATM    6  C   UNL     1      41.657  -6.932   7.581  1.00  0.00     0.039 A 
HETATM    7  C   UNL     1      41.755  -7.786   6.477  1.00  0.00    -0.027 A 
HETATM    8  C   UNL     1      41.559  -5.547   7.390  1.00  0.00     0.017 A 
HETATM    9  C   UNL     1      41.562  -5.011   6.102  1.00  0.00     0.001 A 
HETATM   10  C   UNL     1      41.650  -5.858   4.999  1.00  0.00     0.001 A 
HETATM   11  C   UNL     1      41.744  -7.239   5.183  1.00  0.00     0.009 A 
ENDROOT
BRANCH   1  12
HETATM   12  C   UNL     1      40.541 -10.023   6.499  1.00  0.00     0.229 C 
HETATM   13  N   UNL     1      40.618 -11.051   5.570  1.00  0.00    -0.356 N 
HETATM   14  H   UNL     1      41.404 -11.070   4.932  1.00  0.00     0.162 HD
HETATM   15  O   UNL     1      39.526  -9.792   7.147  1.00  0.00    -0.273 OA
BRANCH  13  16
HETATM   16  C   UNL     1      39.501 -11.958   5.319  1.00  0.00     0.087 C 
HETATM   17  C   UNL     1      39.492 -12.492   3.885  1.00  0.00     0.045 C 
HETATM   18  C   UNL     1      40.602 -13.507   3.638  1.00  0.00     0.130 C 
HETATM   19  N   UNL     1      40.634 -14.552   4.659  1.00  0.00    -0.328 N 
HETATM   20  C   UNL     1      41.125 -15.824   4.388  1.00  0.00     0.362 C 
HETATM   21  C   UNL     1      40.611 -14.119   6.048  1.00  0.00     0.130 C 
HETATM   22  O   UNL     1      41.419 -16.639   5.254  1.00  0.00    -0.238 OA
HETATM   23  C   UNL     1      39.500 -13.113   6.322  1.00  0.00     0.045 C 
BRANCH  20  24
HETATM   24  O   UNL     1      41.234 -16.068   3.054  1.00  0.00    -0.304 OA
BRANCH  24  25
HETATM   25  C   UNL     1      42.350 -16.875   2.650  1.00  0.00     0.176 C 
HETATM   26  C   UNL     1      43.196 -16.140   1.627  1.00  0.00     0.034 C 
ENDBRANCH  24  25
ENDBRANCH  20  24
ENDBRANCH  13  16
ENDBRANCH   1  12
BRANCH   2  27
HETATM   27  C   UNL     1      43.949  -9.650   8.035  1.00  0.00     0.006 A 
HETATM   28  S   UNL     1      44.774 -11.014   7.381  1.00  0.00    -0.104 SA
HETATM   29  C   UNL     1      46.304 -10.305   7.650  1.00  0.00     0.050 A 
HETATM   30  C   UNL     1      46.202  -9.065   8.239  1.00  0.00     0.008 A 
HETATM   31  C   UNL     1      44.846  -8.688   8.462  1.00  0.00     0.017 A 
ENDBRANCH   2  27
BRANCH   3  32
HETATM   32  C   UNL     1      41.555  -9.431  10.441  1.00  0.00     0.153 C 
BRANCH  32  33
HETATM   33  C   UNL     1      42.681 -10.030  11.292  1.00  0.00     0.187 C 
BRANCH  33  34
HETATM   34  O   UNL     1      43.572  -9.009  11.734  1.00  0.00    -0.394 OA
HETATM   35  C   UNL     1      42.951  -8.141  12.673  1.00  0.00     0.201 C 
ENDBRANCH  33  34
ENDBRANCH  32  33
ENDBRANCH   3  32
TORSDOF 8
ENDMDL
MODEL 7
REMARK VINA RESULT:      -6.9      2.915      7.921
REMARK  8 active torsions:
REMARK  status: ('A' for Active; 'I' for Inactive)
REMARK    1  A    between atoms: C_2  and  O_3 
REMARK    2  A    between atoms: O_3  and  C_4 
REMARK       I    between atoms: C_4  and  N_5 
REMARK    3  A    between atoms: C_8  and  N_9 
REMARK       I    between atoms: N_9  and  C_10 
REMARK    4  A    between atoms: C_10  and  C_11 
REMARK    5  A    between atoms: C_12  and  C_13 
REMARK    6  A    between atoms: N_18  and  C_19 
REMARK    7  A    between atoms: C_19  and  C_20 
REMARK    8  A    between atoms: C_20  and  O_21 
ROOT
HETATM    1  C   UNL     1      41.008 -14.147   4.766  1.00  0.00     0.139 C 
HETATM    2  C   UNL     1      42.436 -14.194   5.356  1.00  0.00     0.145 C 
HETATM    3  N   UNL     1      43.323 -13.132   4.860  1.00  0.00    -0.335 N 
HETATM    4  C   UNL     1      43.196 -12.609   3.574  1.00  0.00     0.255 C 
HETATM    5  O   UNL     1      43.950 -11.754   3.115  1.00  0.00    -0.267 OA
HETATM    6  C   UNL     1      42.063 -13.084   2.735  1.00  0.00     0.039 A 
HETATM    7  C   UNL     1      40.998 -13.796   3.300  1.00  0.00    -0.027 A 
HETATM    8  C   UNL     1      42.045 -12.763   1.371  1.00  0.00     0.017 A 
HETATM    9  C   UNL     1      40.972 -13.150   0.568  1.00  0.00     0.001 A 
HETATM   10  C   UNL     1      39.906 -13.851   1.128  1.00  0.00     0.001 A 
HETATM   11  C   UNL     1      39.915 -14.171   2.486  1.00  0.00     0.009 A 
ENDROOT
BRANCH   1  12
HETATM   12  C   UNL     1      40.183 -13.204   5.636  1.00  0.00     0.229 C 
HETATM   13  N   UNL     1      40.149 -11.905   5.148  1.00  0.00    -0.356 N 
HETATM   14  H   UNL     1      40.832 -11.633   4.451  1.00  0.00     0.162 HD
HETATM   15  O   UNL     1      39.557 -13.552   6.631  1.00  0.00    -0.273 OA
BRANCH  13  16
HETATM   16  C   UNL     1      39.338 -10.862   5.768  1.00  0.00     0.087 C 
HETATM   17  C   UNL     1      40.055 -10.177   6.933  1.00  0.00     0.045 C 
HETATM   18  C   UNL     1      41.184  -9.267   6.463  1.00  0.00     0.130 C 
HETATM   19  N   UNL     1      40.754  -8.349   5.412  1.00  0.00    -0.328 N 
HETATM   20  C   UNL     1      41.366  -7.115   5.222  1.00  0.00     0.362 C 
HETATM   21  C   UNL     1      40.035  -8.925   4.285  1.00  0.00     0.130 C 
HETATM   22  O   UNL     1      41.231  -6.436   4.212  1.00  0.00    -0.238 OA
HETATM   23  C   UNL     1      38.892  -9.830   4.730  1.00  0.00     0.045 C 
BRANCH  20  24
HETATM   24  O   UNL     1      42.126  -6.740   6.287  1.00  0.00    -0.304 OA
BRANCH  24  25
HETATM   25  C   UNL     1      41.732  -5.528   6.946  1.00  0.00     0.176 C 
HETATM   26  C   UNL     1      40.788  -5.829   8.096  1.00  0.00     0.034 C 
ENDBRANCH  24  25
ENDBRANCH  20  24
ENDBRANCH  13  16
ENDBRANCH   1  12
BRANCH   2  27
HETATM   27  C   UNL     1      43.065 -15.559   5.125  1.00  0.00     0.006 A 
HETATM   28  S   UNL     1      43.531 -16.501   6.491  1.00  0.00    -0.104 SA
HETATM   29  C   UNL     1      44.071 -17.788   5.507  1.00  0.00     0.050 A 
HETATM   30  C   UNL     1      43.921 -17.512   4.168  1.00  0.00     0.008 A 
HETATM   31  C   UNL     1      43.342 -16.228   3.947  1.00  0.00     0.017 A 
ENDBRANCH   2  27
BRANCH   3  32
HETATM   32  C   UNL     1      44.220 -12.432   5.793  1.00  0.00     0.153 C 
BRANCH  32  33
HETATM   33  C   UNL     1      43.613 -11.918   7.104  1.00  0.00     0.187 C 
BRANCH  33  34
HETATM   34  O   UNL     1      44.635 -11.674   8.067  1.00  0.00    -0.394 OA
HETATM   35  C   UNL     1      44.933 -10.289   8.177  1.00  0.00     0.201 C 
ENDBRANCH  33  34
ENDBRANCH  32  33
ENDBRANCH   3  32
TORSDOF 8
ENDMDL
MODEL 8
REMARK VINA RESULT:      -6.7     17.102     19.322
REMARK  8 active torsions:
REMARK  status: ('A' for Active; 'I' for Inactive)
REMARK    1  A    between atoms: C_2  and  O_3 
REMARK    2  A    between atoms: O_3  and  C_4 
REMARK       I    between atoms: C_4  and  N_5 
REMARK    3  A    between atoms: C_8  and  N_9 
REMARK       I    between atoms: N_9  and  C_10 
REMARK    4  A    between atoms: C_10  and  C_11 
REMARK    5  A    between atoms: C_12  and  C_13 
REMARK    6  A    between atoms: N_18  and  C_19 
REMARK    7  A    between atoms: C_19  and  C_20 
REMARK    8  A    between atoms: C_20  and  O_21 
ROOT
HETATM    1  C   UNL     1      44.303 -30.545  -0.143  1.00  0.00     0.139 C 
HETATM    2  C   UNL     1      45.486 -30.563   0.851  1.00  0.00     0.145 C 
HETATM    3  N   UNL     1      46.219 -29.292   0.931  1.00  0.00    -0.335 N 
HETATM    4  C   UNL     1      46.341 -28.442  -0.168  1.00  0.00     0.255 C 
HETATM    5  O   UNL     1      46.984 -27.396  -0.146  1.00  0.00    -0.267 OA
HETATM    6  C   UNL     1      45.617 -28.808  -1.416  1.00  0.00     0.039 A 
HETATM    7  C   UNL     1      44.622 -29.792  -1.410  1.00  0.00    -0.027 A 
HETATM    8  C   UNL     1      45.908 -28.112  -2.598  1.00  0.00     0.017 A 
HETATM    9  C   UNL     1      45.211 -28.396  -3.773  1.00  0.00     0.001 A 
HETATM   10  C   UNL     1      44.213 -29.368  -3.768  1.00  0.00     0.001 A 
HETATM   11  C   UNL     1      43.917 -30.062  -2.595  1.00  0.00     0.009 A 
ENDROOT
BRANCH   1  12
HETATM   12  C   UNL     1      43.083 -30.017   0.604  1.00  0.00     0.229 C 
HETATM   13  N   UNL     1      42.429 -30.998   1.337  1.00  0.00    -0.356 N 
HETATM   14  H   UNL     1      42.634 -31.969   1.135  1.00  0.00     0.162 HD
HETATM   15  O   UNL     1      42.737 -28.841   0.618  1.00  0.00    -0.273 OA
BRANCH  13  16
HETATM   16  C   UNL     1      41.297 -30.694   2.207  1.00  0.00     0.087 C 
HETATM   17  C   UNL     1      40.258 -31.818   2.229  1.00  0.00     0.045 C 
HETATM   18  C   UNL     1      40.745 -33.042   2.995  1.00  0.00     0.130 C 
HETATM   19  N   UNL     1      41.272 -32.697   4.313  1.00  0.00    -0.328 N 
HETATM   20  C   UNL     1      41.247 -33.600   5.370  1.00  0.00     0.362 C 
HETATM   21  C   UNL     1      42.241 -31.613   4.375  1.00  0.00     0.130 C 
HETATM   22  O   UNL     1      41.902 -33.465   6.397  1.00  0.00    -0.238 OA
HETATM   23  C   UNL     1      41.770 -30.372   3.626  1.00  0.00     0.045 C 
BRANCH  20  24
HETATM   24  O   UNL     1      40.409 -34.647   5.143  1.00  0.00    -0.304 OA
BRANCH  24  25
HETATM   25  C   UNL     1      39.357 -34.832   6.101  1.00  0.00     0.176 C 
HETATM   26  C   UNL     1      38.238 -33.834   5.864  1.00  0.00     0.034 C 
ENDBRANCH  24  25
ENDBRANCH  20  24
ENDBRANCH  13  16
ENDBRANCH   1  12
BRANCH   2  27
HETATM   27  C   UNL     1      46.439 -31.704   0.529  1.00  0.00     0.006 A 
HETATM   28  S   UNL     1      45.889 -33.326   0.722  1.00  0.00    -0.104 SA
HETATM   29  C   UNL     1      47.376 -33.968   0.180  1.00  0.00     0.050 A 
HETATM   30  C   UNL     1      48.283 -32.980  -0.127  1.00  0.00     0.008 A 
HETATM   31  C   UNL     1      47.744 -31.676   0.074  1.00  0.00     0.017 A 
ENDBRANCH   2  27
BRANCH   3  32
HETATM   32  C   UNL     1      46.646 -28.773   2.241  1.00  0.00     0.153 C 
BRANCH  32  33
HETATM   33  C   UNL     1      48.082 -29.076   2.685  1.00  0.00     0.187 C 
BRANCH  33  34
HETATM   34  O   UNL     1      48.102 -29.525   4.039  1.00  0.00    -0.394 OA
HETATM   35  C   UNL     1      47.210 -30.611   4.244  1.00  0.00     0.201 C 
ENDBRANCH  33  34
ENDBRANCH  32  33
ENDBRANCH   3  32
TORSDOF 8
ENDMDL
MODEL 9
REMARK VINA RESULT:      -6.7      3.226      7.429
REMARK  8 active torsions:
REMARK  status: ('A' for Active; 'I' for Inactive)
REMARK    1  A    between atoms: C_2  and  O_3 
REMARK    2  A    between atoms: O_3  and  C_4 
REMARK       I    between atoms: C_4  and  N_5 
REMARK    3  A    between atoms: C_8  and  N_9 
REMARK       I    between atoms: N_9  and  C_10 
REMARK    4  A    between atoms: C_10  and  C_11 
REMARK    5  A    between atoms: C_12  and  C_13 
REMARK    6  A    between atoms: N_18  and  C_19 
REMARK    7  A    between atoms: C_19  and  C_20 
REMARK    8  A    between atoms: C_20  and  O_21 
ROOT
HETATM    1  C   UNL     1      40.791 -12.594  -0.720  1.00  0.00     0.139 C 
HETATM    2  C   UNL     1      40.592 -11.180  -0.131  1.00  0.00     0.145 C 
HETATM    3  N   UNL     1      39.226 -10.916   0.342  1.00  0.00    -0.335 N 
HETATM    4  C   UNL     1      38.113 -11.504  -0.259  1.00  0.00     0.255 C 
HETATM    5  O   UNL     1      36.957 -11.268   0.084  1.00  0.00    -0.267 OA
HETATM    6  C   UNL     1      38.348 -12.497  -1.342  1.00  0.00     0.039 A 
HETATM    7  C   UNL     1      39.618 -13.045  -1.553  1.00  0.00    -0.027 A 
HETATM    8  C   UNL     1      37.262 -12.922  -2.120  1.00  0.00     0.017 A 
HETATM    9  C   UNL     1      37.440 -13.889  -3.110  1.00  0.00     0.001 A 
HETATM   10  C   UNL     1      38.700 -14.444  -3.317  1.00  0.00     0.001 A 
HETATM   11  C   UNL     1      39.785 -14.028  -2.543  1.00  0.00     0.009 A 
ENDROOT
BRANCH   1  12
HETATM   12  C   UNL     1      41.130 -13.530   0.435  1.00  0.00     0.229 C 
HETATM   13  N   UNL     1      41.752 -12.882   1.494  1.00  0.00    -0.356 N 
HETATM   14  H   UNL     1      42.143 -11.961   1.334  1.00  0.00     0.162 HD
HETATM   15  O   UNL     1      40.836 -14.719   0.470  1.00  0.00    -0.273 OA
BRANCH  13  16
HETATM   16  C   UNL     1      42.074 -13.565   2.743  1.00  0.00     0.087 C 
HETATM   17  C   UNL     1      43.317 -12.987   3.423  1.00  0.00     0.045 C 
HETATM   18  C   UNL     1      43.057 -11.615   4.034  1.00  0.00     0.130 C 
HETATM   19  N   UNL     1      41.863 -11.599   4.874  1.00  0.00    -0.328 N 
HETATM   20  C   UNL     1      41.725 -10.710   5.934  1.00  0.00     0.362 C 
HETATM   21  C   UNL     1      40.648 -12.164   4.305  1.00  0.00     0.130 C 
HETATM   22  O   UNL     1      40.660 -10.474   6.491  1.00  0.00    -0.238 OA
HETATM   23  C   UNL     1      40.879 -13.543   3.699  1.00  0.00     0.045 C 
BRANCH  20  24
HETATM   24  O   UNL     1      42.906 -10.137   6.290  1.00  0.00    -0.304 OA
BRANCH  24  25
HETATM   25  C   UNL     1      43.421 -10.504   7.578  1.00  0.00     0.176 C 
HETATM   26  C   UNL     1      44.657 -11.373   7.430  1.00  0.00     0.034 C 
ENDBRANCH  24  25
ENDBRANCH  20  24
ENDBRANCH  13  16
ENDBRANCH   1  12
BRANCH   2  27
HETATM   27  C   UNL     1      41.020 -10.118  -1.132  1.00  0.00     0.006 A 
HETATM   28  S   UNL     1      41.952  -8.779  -0.576  1.00  0.00    -0.104 SA
HETATM   29  C   UNL     1      42.056  -8.111  -2.145  1.00  0.00     0.050 A 
HETATM   30  C   UNL     1      41.387  -8.873  -3.075  1.00  0.00     0.008 A 
HETATM   31  C   UNL     1      40.788 -10.027  -2.492  1.00  0.00     0.017 A 
ENDBRANCH   2  27
BRANCH   3  32
HETATM   32  C   UNL     1      39.015 -10.205   1.613  1.00  0.00     0.153 C 
BRANCH  32  33
HETATM   33  C   UNL     1      38.664  -8.714   1.537  1.00  0.00     0.187 C 
BRANCH  33  34
HETATM   34  O   UNL     1      39.454  -7.967   2.459  1.00  0.00    -0.394 OA
HETATM   35  C   UNL     1      40.550  -8.728   2.948  1.00  0.00     0.201 C 
ENDBRANCH  33  34
ENDBRANCH  32  33
ENDBRANCH   3  32
TORSDOF 8
ENDMDL
MODEL 10
REMARK VINA RESULT:      -6.7      2.929      5.448
REMARK  8 active torsions:
REMARK  status: ('A' for Active; 'I' for Inactive)
REMARK    1  A    between atoms: C_2  and  O_3 
REMARK    2  A    between atoms: O_3  and  C_4 
REMARK       I    between atoms: C_4  and  N_5 
REMARK    3  A    between atoms: C_8  and  N_9 
REMARK       I    between atoms: N_9  and  C_10 
REMARK    4  A    between atoms: C_10  and  C_11 
REMARK    5  A    between atoms: C_12  and  C_13 
REMARK    6  A    between atoms: N_18  and  C_19 
REMARK    7  A    between atoms: C_19  and  C_20 
REMARK    8  A    between atoms: C_20  and  O_21 
ROOT
HETATM    1  C   UNL     1      41.191 -10.333   6.150  1.00  0.00     0.139 C 
HETATM    2  C   UNL     1      41.231 -10.078   7.673  1.00  0.00     0.145 C 
HETATM    3  N   UNL     1      40.083  -9.314   8.182  1.00  0.00    -0.335 N 
HETATM    4  C   UNL     1      39.437  -8.353   7.406  1.00  0.00     0.255 C 
HETATM    5  O   UNL     1      38.505  -7.667   7.818  1.00  0.00    -0.267 OA
HETATM    6  C   UNL     1      39.877  -8.184   5.995  1.00  0.00     0.039 A 
HETATM    7  C   UNL     1      40.693  -9.139   5.375  1.00  0.00    -0.027 A 
HETATM    8  C   UNL     1      39.418  -7.077   5.268  1.00  0.00     0.017 A 
HETATM    9  C   UNL     1      39.771  -6.917   3.927  1.00  0.00     0.001 A 
HETATM   10  C   UNL     1      40.575  -7.870   3.305  1.00  0.00     0.001 A 
HETATM   11  C   UNL     1      41.033  -8.976   4.022  1.00  0.00     0.009 A 
ENDROOT
BRANCH   1  12
HETATM   12  C   UNL     1      40.383 -11.605   5.918  1.00  0.00     0.229 C 
HETATM   13  N   UNL     1      41.126 -12.620   5.330  1.00  0.00    -0.356 N 
HETATM   14  H   UNL     1      42.008 -12.382   4.891  1.00  0.00     0.162 HD
HETATM   15  O   UNL     1      39.217 -11.757   6.264  1.00  0.00    -0.273 OA
BRANCH  13  16
HETATM   16  C   UNL     1      40.581 -13.956   5.109  1.00  0.00     0.087 C 
HETATM   17  C   UNL     1      41.296 -14.702   3.980  1.00  0.00     0.045 C 
HETATM   18  C   UNL     1      42.699 -15.147   4.379  1.00  0.00     0.130 C 
HETATM   19  N   UNL     1      42.713 -15.854   5.657  1.00  0.00    -0.328 N 
HETATM   20  C   UNL     1      43.683 -16.804   5.956  1.00  0.00     0.362 C 
HETATM   21  C   UNL     1      42.022 -15.220   6.770  1.00  0.00     0.130 C 
HETATM   22  O   UNL     1      43.900 -17.222   7.087  1.00  0.00    -0.238 OA
HETATM   23  C   UNL     1      40.612 -14.778   6.399  1.00  0.00     0.045 C 
BRANCH  20  24
HETATM   24  O   UNL     1      44.361 -17.223   4.855  1.00  0.00    -0.304 OA
BRANCH  24  25
HETATM   25  C   UNL     1      44.147 -18.587   4.463  1.00  0.00     0.176 C 
HETATM   26  C   UNL     1      43.703 -18.662   3.014  1.00  0.00     0.034 C 
ENDBRANCH  24  25
ENDBRANCH  20  24
ENDBRANCH  13  16
ENDBRANCH   1  12
BRANCH   2  27
HETATM   27  C   UNL     1      42.534  -9.402   8.068  1.00  0.00     0.006 A 
HETATM   28  S   UNL     1      43.953 -10.365   8.240  1.00  0.00    -0.104 SA
HETATM   29  C   UNL     1      44.913  -9.007   8.628  1.00  0.00     0.050 A 
HETATM   30  C   UNL     1      44.178  -7.844   8.646  1.00  0.00     0.008 A 
HETATM   31  C   UNL     1      42.808  -8.071   8.325  1.00  0.00     0.017 A 
ENDBRANCH   2  27
BRANCH   3  32
HETATM   32  C   UNL     1      39.441  -9.712   9.445  1.00  0.00     0.153 C 
BRANCH  32  33
HETATM   33  C   UNL     1      40.144  -9.316  10.749  1.00  0.00     0.187 C 
BRANCH  33  34
HETATM   34  O   UNL     1      39.592  -8.109  11.269  1.00  0.00    -0.394 OA
HETATM   35  C   UNL     1      40.424  -6.991  10.992  1.00  0.00     0.201 C 
ENDBRANCH  33  34
ENDBRANCH  32  33
ENDBRANCH   3  32
TORSDOF 8
ENDMDL
