MODEL 1
REMARK VINA RESULT:      -8.2      0.000      0.000
REMARK  2 active torsions:
REMARK  status: ('A' for Active; 'I' for Inactive)
REMARK    1  A    between atoms: C_3  and  C_4 
REMARK    2  A    between atoms: C_19  and  O_20 
ROOT
HETATM    1  C   UNL     1      42.497 -15.169   4.702  1.00  0.00     0.137 C 
HETATM    2  N   UNL     1      43.717 -15.872   4.234  1.00  0.00    -0.278 NA
HETATM    3  C   UNL     1      43.585 -17.206   3.798  1.00  0.00     0.036 A 
HETATM    4  C   UNL     1      42.850 -17.560   2.644  1.00  0.00     0.053 A 
HETATM    5  N   UNL     1      42.108 -16.624   1.880  1.00  0.00    -0.356 N 
HETATM    6  C   UNL     1      41.315 -15.656   2.456  1.00  0.00     0.041 A 
HETATM    7  C   UNL     1      41.440 -15.078   3.661  1.00  0.00     0.056 A 
HETATM    8  C   UNL     1      40.209 -14.296   3.874  1.00  0.00     0.251 A 
HETATM    9  O   UNL     1      39.857 -13.761   4.908  1.00  0.00    -0.268 OA
HETATM   10  N   UNL     1      39.483 -14.336   2.713  1.00  0.00    -0.351 N 
HETATM   11  C   UNL     1      40.084 -15.177   1.734  1.00  0.00     0.180 A 
HETATM   12  C   UNL     1      44.282 -18.209   4.495  1.00  0.00     0.026 A 
HETATM   13  C   UNL     1      44.246 -19.540   4.077  1.00  0.00     0.002 A 
HETATM   14  C   UNL     1      43.528 -19.888   2.941  1.00  0.00     0.002 A 
HETATM   15  C   UNL     1      42.842 -18.905   2.227  1.00  0.00     0.031 A 
HETATM   16  H   UNL     1      44.410 -15.823   4.982  1.00  0.00     0.128 HD
HETATM   17  H   UNL     1      41.727 -17.022   1.027  1.00  0.00     0.166 HD
HETATM   18  H   UNL     1      38.576 -13.897   2.647  1.00  0.00     0.163 HD
ENDROOT
BRANCH   1  19
HETATM   19  C   UNL     1      42.984 -13.788   5.142  1.00  0.00    -0.002 A 
HETATM   20  C   UNL     1      43.293 -12.814   4.175  1.00  0.00     0.012 A 
HETATM   21  C   UNL     1      43.782 -11.561   4.554  1.00  0.00     0.001 A 
HETATM   22  C   UNL     1      43.976 -11.264   5.902  1.00  0.00     0.003 A 
HETATM   23  C   UNL     1      43.672 -12.213   6.874  1.00  0.00     0.037 A 
HETATM   24  C   UNL     1      43.173 -13.456   6.495  1.00  0.00     0.073 A 
BRANCH  24  25
HETATM   25  O   UNL     1      42.853 -14.326   7.504  1.00  0.00    -0.360 OA
HETATM   26  H   UNL     1      42.136 -14.911   7.170  1.00  0.00     0.217 HD
ENDBRANCH  24  25
ENDBRANCH   1  19
TORSDOF 2
ENDMDL
MODEL 2
REMARK VINA RESULT:      -8.0      1.613      1.826
REMARK  2 active torsions:
REMARK  status: ('A' for Active; 'I' for Inactive)
REMARK    1  A    between atoms: C_3  and  C_4 
REMARK    2  A    between atoms: C_19  and  O_20 
ROOT
HETATM    1  C   UNL     1      41.477 -14.459   4.155  1.00  0.00     0.137 C 
HETATM    2  N   UNL     1      42.862 -14.961   4.345  1.00  0.00    -0.278 NA
HETATM    3  C   UNL     1      43.144 -16.284   3.954  1.00  0.00     0.036 A 
HETATM    4  C   UNL     1      43.099 -16.706   2.605  1.00  0.00     0.053 A 
HETATM    5  N   UNL     1      42.677 -15.865   1.544  1.00  0.00    -0.356 N 
HETATM    6  C   UNL     1      41.576 -15.042   1.639  1.00  0.00     0.041 A 
HETATM    7  C   UNL     1      41.034 -14.491   2.737  1.00  0.00     0.056 A 
HETATM    8  C   UNL     1      39.750 -13.905   2.314  1.00  0.00     0.251 A 
HETATM    9  O   UNL     1      38.880 -13.461   3.038  1.00  0.00    -0.268 OA
HETATM   10  N   UNL     1      39.670 -14.014   0.951  1.00  0.00    -0.351 N 
HETATM   11  C   UNL     1      40.775 -14.726   0.405  1.00  0.00     0.180 A 
HETATM   12  C   UNL     1      43.568 -17.197   4.937  1.00  0.00     0.026 A 
HETATM   13  C   UNL     1      43.925 -18.505   4.607  1.00  0.00     0.002 A 
HETATM   14  C   UNL     1      43.885 -18.917   3.282  1.00  0.00     0.002 A 
HETATM   15  C   UNL     1      43.482 -18.023   2.289  1.00  0.00     0.031 A 
HETATM   16  H   UNL     1      43.105 -14.834   5.328  1.00  0.00     0.128 HD
HETATM   17  H   UNL     1      42.805 -16.287   0.629  1.00  0.00     0.166 HD
HETATM   18  H   UNL     1      38.848 -13.711   0.449  1.00  0.00     0.163 HD
ENDROOT
BRANCH   1  19
HETATM   19  C   UNL     1      41.496 -13.037   4.715  1.00  0.00    -0.002 A 
HETATM   20  C   UNL     1      42.518 -12.148   4.336  1.00  0.00     0.012 A 
HETATM   21  C   UNL     1      42.578 -10.858   4.870  1.00  0.00     0.001 A 
HETATM   22  C   UNL     1      41.623 -10.438   5.795  1.00  0.00     0.003 A 
HETATM   23  C   UNL     1      40.601 -11.302   6.179  1.00  0.00     0.037 A 
HETATM   24  C   UNL     1      40.536 -12.581   5.636  1.00  0.00     0.073 A 
BRANCH  24  25
HETATM   25  O   UNL     1      39.480 -13.363   6.025  1.00  0.00    -0.360 OA
HETATM   26  H   UNL     1      38.894 -12.807   6.585  1.00  0.00     0.217 HD
ENDBRANCH  24  25
ENDBRANCH   1  19
TORSDOF 2
ENDMDL
MODEL 3
REMARK VINA RESULT:      -7.9      2.004      4.025
REMARK  2 active torsions:
REMARK  status: ('A' for Active; 'I' for Inactive)
REMARK    1  A    between atoms: C_3  and  C_4 
REMARK    2  A    between atoms: C_19  and  O_20 
ROOT
HETATM    1  C   UNL     1      42.284 -14.385   2.711  1.00  0.00     0.137 C 
HETATM    2  N   UNL     1      41.772 -15.770   2.862  1.00  0.00    -0.278 NA
HETATM    3  C   UNL     1      42.676 -16.765   3.283  1.00  0.00     0.036 A 
HETATM    4  C   UNL     1      43.265 -16.765   4.568  1.00  0.00     0.053 A 
HETATM    5  N   UNL     1      43.074 -15.721   5.508  1.00  0.00    -0.356 N 
HETATM    6  C   UNL     1      43.114 -14.388   5.158  1.00  0.00     0.041 A 
HETATM    7  C   UNL     1      42.835 -13.824   3.972  1.00  0.00     0.056 A 
HETATM    8  C   UNL     1      43.262 -12.418   4.072  1.00  0.00     0.251 A 
HETATM    9  O   UNL     1      43.335 -11.613   3.164  1.00  0.00    -0.268 OA
HETATM   10  N   UNL     1      43.636 -12.187   5.370  1.00  0.00    -0.351 N 
HETATM   11  C   UNL     1      43.590 -13.371   6.160  1.00  0.00     0.180 A 
HETATM   12  C   UNL     1      42.934 -17.844   2.417  1.00  0.00     0.026 A 
HETATM   13  C   UNL     1      43.769 -18.896   2.798  1.00  0.00     0.002 A 
HETATM   14  C   UNL     1      44.344 -18.898   4.062  1.00  0.00     0.002 A 
HETATM   15  C   UNL     1      44.088 -17.844   4.941  1.00  0.00     0.031 A 
HETATM   16  H   UNL     1      41.350 -16.043   1.974  1.00  0.00     0.128 HD
HETATM   17  H   UNL     1      43.479 -15.925   6.416  1.00  0.00     0.166 HD
HETATM   18  H   UNL     1      44.005 -11.292   5.657  1.00  0.00     0.163 HD
ENDROOT
BRANCH   1  19
HETATM   19  C   UNL     1      41.088 -13.579   2.204  1.00  0.00    -0.002 A 
HETATM   20  C   UNL     1      41.160 -12.925   0.961  1.00  0.00     0.012 A 
HETATM   21  C   UNL     1      40.095 -12.146   0.500  1.00  0.00     0.001 A 
HETATM   22  C   UNL     1      38.945 -12.003   1.274  1.00  0.00     0.003 A 
HETATM   23  C   UNL     1      38.853 -12.647   2.505  1.00  0.00     0.037 A 
HETATM   24  C   UNL     1      39.909 -13.432   2.957  1.00  0.00     0.073 A 
BRANCH  24  25
HETATM   25  O   UNL     1      39.734 -14.071   4.156  1.00  0.00    -0.360 OA
HETATM   26  H   UNL     1      38.807 -13.910   4.441  1.00  0.00     0.217 HD
ENDBRANCH  24  25
ENDBRANCH   1  19
TORSDOF 2
ENDMDL
MODEL 4
REMARK VINA RESULT:      -7.8      2.053      3.811
REMARK  2 active torsions:
REMARK  status: ('A' for Active; 'I' for Inactive)
REMARK    1  A    between atoms: C_3  and  C_4 
REMARK    2  A    between atoms: C_19  and  O_20 
ROOT
HETATM    1  C   UNL     1      42.697 -14.657   4.057  1.00  0.00     0.137 C 
HETATM    2  N   UNL     1      42.160 -15.936   3.529  1.00  0.00    -0.278 NA
HETATM    3  C   UNL     1      42.909 -17.108   3.751  1.00  0.00     0.036 A 
HETATM    4  C   UNL     1      43.117 -17.645   5.042  1.00  0.00     0.053 A 
HETATM    5  N   UNL     1      42.676 -17.006   6.228  1.00  0.00    -0.356 N 
HETATM    6  C   UNL     1      42.815 -15.652   6.439  1.00  0.00     0.041 A 
HETATM    7  C   UNL     1      42.878 -14.664   5.532  1.00  0.00     0.056 A 
HETATM    8  C   UNL     1      43.264 -13.449   6.271  1.00  0.00     0.251 A 
HETATM    9  O   UNL     1      43.589 -12.379   5.792  1.00  0.00    -0.268 OA
HETATM   10  N   UNL     1      43.264 -13.755   7.606  1.00  0.00    -0.351 N 
HETATM   11  C   UNL     1      42.997 -15.133   7.840  1.00  0.00     0.180 A 
HETATM   12  C   UNL     1      43.393 -17.814   2.634  1.00  0.00     0.026 A 
HETATM   13  C   UNL     1      44.086 -19.016   2.782  1.00  0.00     0.002 A 
HETATM   14  C   UNL     1      44.288 -19.546   4.049  1.00  0.00     0.002 A 
HETATM   15  C   UNL     1      43.801 -18.869   5.169  1.00  0.00     0.031 A 
HETATM   16  H   UNL     1      42.000 -15.815   2.528  1.00  0.00     0.128 HD
HETATM   17  H   UNL     1      42.812 -17.574   7.059  1.00  0.00     0.166 HD
HETATM   18  H   UNL     1      43.542 -13.074   8.299  1.00  0.00     0.163 HD
ENDROOT
BRANCH   1  19
HETATM   19  C   UNL     1      41.691 -13.595   3.612  1.00  0.00    -0.002 A 
HETATM   20  C   UNL     1      40.313 -13.826   3.771  1.00  0.00     0.012 A 
HETATM   21  C   UNL     1      39.376 -12.888   3.330  1.00  0.00     0.001 A 
HETATM   22  C   UNL     1      39.799 -11.709   2.719  1.00  0.00     0.003 A 
HETATM   23  C   UNL     1      41.159 -11.460   2.556  1.00  0.00     0.037 A 
HETATM   24  C   UNL     1      42.091 -12.390   3.008  1.00  0.00     0.073 A 
BRANCH  24  25
HETATM   25  O   UNL     1      43.413 -12.062   2.855  1.00  0.00    -0.360 OA
HETATM   26  H   UNL     1      43.748 -12.553   2.071  1.00  0.00     0.217 HD
ENDBRANCH  24  25
ENDBRANCH   1  19
TORSDOF 2
ENDMDL
MODEL 5
REMARK VINA RESULT:      -7.7      2.926      4.277
REMARK  2 active torsions:
REMARK  status: ('A' for Active; 'I' for Inactive)
REMARK    1  A    between atoms: C_3  and  C_4 
REMARK    2  A    between atoms: C_19  and  O_20 
ROOT
HETATM    1  C   UNL     1      43.105 -11.845   6.748  1.00  0.00     0.137 C 
HETATM    2  N   UNL     1      43.791 -13.153   6.891  1.00  0.00    -0.278 NA
HETATM    3  C   UNL     1      43.141 -14.298   6.388  1.00  0.00     0.036 A 
HETATM    4  C   UNL     1      42.901 -14.492   5.008  1.00  0.00     0.053 A 
HETATM    5  N   UNL     1      43.205 -13.518   4.024  1.00  0.00    -0.356 N 
HETATM    6  C   UNL     1      42.928 -12.179   4.191  1.00  0.00     0.041 A 
HETATM    7  C   UNL     1      42.832 -11.479   5.333  1.00  0.00     0.056 A 
HETATM    8  C   UNL     1      42.290 -10.160   4.966  1.00  0.00     0.251 A 
HETATM    9  O   UNL     1      41.898  -9.296   5.727  1.00  0.00    -0.268 OA
HETATM   10  N   UNL     1      42.232 -10.099   3.598  1.00  0.00    -0.351 N 
HETATM   11  C   UNL     1      42.610 -11.329   2.990  1.00  0.00     0.180 A 
HETATM   12  C   UNL     1      42.796 -15.321   7.289  1.00  0.00     0.026 A 
HETATM   13  C   UNL     1      42.209 -16.508   6.848  1.00  0.00     0.002 A 
HETATM   14  C   UNL     1      41.976 -16.701   5.492  1.00  0.00     0.002 A 
HETATM   15  C   UNL     1      42.326 -15.704   4.580  1.00  0.00     0.031 A 
HETATM   16  H   UNL     1      44.003 -13.286   7.880  1.00  0.00     0.128 HD
HETATM   17  H   UNL     1      43.069 -13.856   3.076  1.00  0.00     0.166 HD
HETATM   18  H   UNL     1      41.850  -9.292   3.126  1.00  0.00     0.163 HD
ENDROOT
BRANCH   1  19
HETATM   19  C   UNL     1      44.035 -10.839   7.426  1.00  0.00    -0.002 A 
HETATM   20  C   UNL     1      45.401 -10.811   7.091  1.00  0.00     0.012 A 
HETATM   21  C   UNL     1      46.277  -9.930   7.732  1.00  0.00     0.001 A 
HETATM   22  C   UNL     1      45.804  -9.068   8.720  1.00  0.00     0.003 A 
HETATM   23  C   UNL     1      44.455  -9.077   9.063  1.00  0.00     0.037 A 
HETATM   24  C   UNL     1      43.582  -9.947   8.414  1.00  0.00     0.073 A 
BRANCH  24  25
HETATM   25  O   UNL     1      42.261  -9.873   8.770  1.00  0.00    -0.360 OA
HETATM   26  H   UNL     1      41.735  -9.853   7.939  1.00  0.00     0.217 HD
ENDBRANCH  24  25
ENDBRANCH   1  19
TORSDOF 2
ENDMDL
MODEL 6
REMARK VINA RESULT:      -7.7      7.815     10.762
REMARK  2 active torsions:
REMARK  status: ('A' for Active; 'I' for Inactive)
REMARK    1  A    between atoms: C_3  and  C_4 
REMARK    2  A    between atoms: C_19  and  O_20 
ROOT
HETATM    1  C   UNL     1      42.802  -8.451  11.008  1.00  0.00     0.137 C 
HETATM    2  N   UNL     1      43.399  -8.677  12.348  1.00  0.00    -0.278 NA
HETATM    3  C   UNL     1      42.683  -8.226  13.475  1.00  0.00     0.036 A 
HETATM    4  C   UNL     1      41.438  -8.776  13.856  1.00  0.00     0.053 A 
HETATM    5  N   UNL     1      40.758  -9.758  13.092  1.00  0.00    -0.356 N 
HETATM    6  C   UNL     1      40.649  -9.691  11.720  1.00  0.00     0.041 A 
HETATM    7  C   UNL     1      41.475  -9.099  10.842  1.00  0.00     0.056 A 
HETATM    8  C   UNL     1      40.779  -9.117   9.544  1.00  0.00     0.251 A 
HETATM    9  O   UNL     1      41.114  -8.533   8.531  1.00  0.00    -0.268 OA
HETATM   10  N   UNL     1      39.635  -9.855   9.694  1.00  0.00    -0.351 N 
HETATM   11  C   UNL     1      39.439 -10.273  11.041  1.00  0.00     0.180 A 
HETATM   12  C   UNL     1      43.274  -7.248  14.295  1.00  0.00     0.026 A 
HETATM   13  C   UNL     1      42.647  -6.804  15.460  1.00  0.00     0.002 A 
HETATM   14  C   UNL     1      41.426  -7.347  15.837  1.00  0.00     0.002 A 
HETATM   15  C   UNL     1      40.830  -8.330  15.045  1.00  0.00     0.031 A 
HETATM   16  H   UNL     1      44.332  -8.263  12.347  1.00  0.00     0.128 HD
HETATM   17  H   UNL     1      39.932 -10.121  13.558  1.00  0.00     0.166 HD
HETATM   18  H   UNL     1      38.980  -9.965   8.933  1.00  0.00     0.163 HD
ENDROOT
BRANCH   1  19
HETATM   19  C   UNL     1      43.833  -9.003  10.022  1.00  0.00    -0.002 A 
HETATM   20  C   UNL     1      44.488  -8.131   9.134  1.00  0.00     0.012 A 
HETATM   21  C   UNL     1      45.400  -8.621   8.195  1.00  0.00     0.001 A 
HETATM   22  C   UNL     1      45.667  -9.987   8.124  1.00  0.00     0.003 A 
HETATM   23  C   UNL     1      45.031 -10.866   8.998  1.00  0.00     0.037 A 
HETATM   24  C   UNL     1      44.133 -10.374   9.941  1.00  0.00     0.073 A 
BRANCH  24  25
HETATM   25  O   UNL     1      43.577 -11.287  10.798  1.00  0.00    -0.360 OA
HETATM   26  H   UNL     1      43.203 -10.786  11.558  1.00  0.00     0.217 HD
ENDBRANCH  24  25
ENDBRANCH   1  19
TORSDOF 2
ENDMDL
MODEL 7
REMARK VINA RESULT:      -7.7      3.229      6.204
REMARK  2 active torsions:
REMARK  status: ('A' for Active; 'I' for Inactive)
REMARK    1  A    between atoms: C_3  and  C_4 
REMARK    2  A    between atoms: C_19  and  O_20 
ROOT
HETATM    1  C   UNL     1      40.602 -14.211   1.315  1.00  0.00     0.137 C 
HETATM    2  N   UNL     1      40.676 -14.478  -0.143  1.00  0.00    -0.278 NA
HETATM    3  C   UNL     1      39.888 -13.684  -1.000  1.00  0.00     0.036 A 
HETATM    4  C   UNL     1      40.108 -12.298  -1.169  1.00  0.00     0.053 A 
HETATM    5  N   UNL     1      41.071 -11.569  -0.426  1.00  0.00    -0.356 N 
HETATM    6  C   UNL     1      41.249 -11.739   0.930  1.00  0.00     0.041 A 
HETATM    7  C   UNL     1      41.005 -12.827   1.678  1.00  0.00     0.056 A 
HETATM    8  C   UNL     1      41.139 -12.403   3.082  1.00  0.00     0.251 A 
HETATM    9  O   UNL     1      40.835 -13.046   4.069  1.00  0.00    -0.268 OA
HETATM   10  N   UNL     1      41.604 -11.114   3.086  1.00  0.00    -0.351 N 
HETATM   11  C   UNL     1      41.710 -10.579   1.771  1.00  0.00     0.180 A 
HETATM   12  C   UNL     1      38.902 -14.315  -1.779  1.00  0.00     0.026 A 
HETATM   13  C   UNL     1      38.132 -13.598  -2.695  1.00  0.00     0.002 A 
HETATM   14  C   UNL     1      38.350 -12.237  -2.864  1.00  0.00     0.002 A 
HETATM   15  C   UNL     1      39.335 -11.594  -2.112  1.00  0.00     0.031 A 
HETATM   16  H   UNL     1      40.455 -15.463  -0.290  1.00  0.00     0.128 HD
HETATM   17  H   UNL     1      41.175 -10.610  -0.742  1.00  0.00     0.166 HD
HETATM   18  H   UNL     1      41.731 -10.606   3.949  1.00  0.00     0.163 HD
ENDROOT
BRANCH   1  19
HETATM   19  C   UNL     1      41.518 -15.257   1.952  1.00  0.00    -0.002 A 
HETATM   20  C   UNL     1      42.809 -15.464   1.434  1.00  0.00     0.012 A 
HETATM   21  C   UNL     1      43.646 -16.446   1.973  1.00  0.00     0.001 A 
HETATM   22  C   UNL     1      43.205 -17.238   3.031  1.00  0.00     0.003 A 
HETATM   23  C   UNL     1      41.932 -17.045   3.561  1.00  0.00     0.037 A 
HETATM   24  C   UNL     1      41.105 -16.058   3.031  1.00  0.00     0.073 A 
BRANCH  24  25
HETATM   25  O   UNL     1      39.882 -15.893   3.627  1.00  0.00    -0.360 OA
HETATM   26  H   UNL     1      39.994 -15.230   4.345  1.00  0.00     0.217 HD
ENDBRANCH  24  25
ENDBRANCH   1  19
TORSDOF 2
ENDMDL
MODEL 8
REMARK VINA RESULT:      -7.6      5.000      7.612
REMARK  2 active torsions:
REMARK  status: ('A' for Active; 'I' for Inactive)
REMARK    1  A    between atoms: C_3  and  C_4 
REMARK    2  A    between atoms: C_19  and  O_20 
ROOT
HETATM    1  C   UNL     1      42.968  -9.331   8.172  1.00  0.00     0.137 C 
HETATM    2  N   UNL     1      41.840 -10.278   7.982  1.00  0.00    -0.278 NA
HETATM    3  C   UNL     1      41.553 -10.707   6.671  1.00  0.00     0.036 A 
HETATM    4  C   UNL     1      42.445 -11.504   5.918  1.00  0.00     0.053 A 
HETATM    5  N   UNL     1      43.739 -11.862   6.374  1.00  0.00    -0.356 N 
HETATM    6  C   UNL     1      44.584 -10.967   6.993  1.00  0.00     0.041 A 
HETATM    7  C   UNL     1      44.270  -9.872   7.705  1.00  0.00     0.056 A 
HETATM    8  C   UNL     1      45.535  -9.152   7.934  1.00  0.00     0.251 A 
HETATM    9  O   UNL     1      45.661  -8.032   8.392  1.00  0.00    -0.268 OA
HETATM   10  N   UNL     1      46.554  -9.940   7.468  1.00  0.00    -0.351 N 
HETATM   11  C   UNL     1      46.073 -11.123   6.841  1.00  0.00     0.180 A 
HETATM   12  C   UNL     1      40.293 -10.397   6.127  1.00  0.00     0.026 A 
HETATM   13  C   UNL     1      39.921 -10.847   4.859  1.00  0.00     0.002 A 
HETATM   14  C   UNL     1      40.795 -11.633   4.121  1.00  0.00     0.002 A 
HETATM   15  C   UNL     1      42.044 -11.965   4.649  1.00  0.00     0.031 A 
HETATM   16  H   UNL     1      41.008  -9.856   8.395  1.00  0.00     0.128 HD
HETATM   17  H   UNL     1      44.207 -12.522   5.762  1.00  0.00     0.166 HD
HETATM   18  H   UNL     1      47.513  -9.621   7.487  1.00  0.00     0.163 HD
ENDROOT
BRANCH   1  19
HETATM   19  C   UNL     1      42.980  -9.034   9.672  1.00  0.00    -0.002 A 
HETATM   20  C   UNL     1      42.740  -7.725  10.128  1.00  0.00     0.012 A 
HETATM   21  C   UNL     1      42.791  -7.423  11.492  1.00  0.00     0.001 A 
HETATM   22  C   UNL     1      43.088  -8.420  12.420  1.00  0.00     0.003 A 
HETATM   23  C   UNL     1      43.324  -9.723  11.988  1.00  0.00     0.037 A 
HETATM   24  C   UNL     1      43.260 -10.024  10.630  1.00  0.00     0.073 A 
BRANCH  24  25
HETATM   25  O   UNL     1      43.459 -11.334  10.279  1.00  0.00    -0.360 OA
HETATM   26  H   UNL     1      43.688 -11.349   9.323  1.00  0.00     0.217 HD
ENDBRANCH  24  25
ENDBRANCH   1  19
TORSDOF 2
ENDMDL
MODEL 9
REMARK VINA RESULT:      -7.4      6.452      9.155
REMARK  2 active torsions:
REMARK  status: ('A' for Active; 'I' for Inactive)
REMARK    1  A    between atoms: C_3  and  C_4 
REMARK    2  A    between atoms: C_19  and  O_20 
ROOT
HETATM    1  C   UNL     1      42.982  -9.281   9.381  1.00  0.00     0.137 C 
HETATM    2  N   UNL     1      42.925 -10.155  10.580  1.00  0.00    -0.278 NA
HETATM    3  C   UNL     1      42.107  -9.750  11.653  1.00  0.00     0.036 A 
HETATM    4  C   UNL     1      40.699  -9.675  11.551  1.00  0.00     0.053 A 
HETATM    5  N   UNL     1      39.996  -9.906  10.342  1.00  0.00    -0.356 N 
HETATM    6  C   UNL     1      40.412  -9.400   9.130  1.00  0.00     0.041 A 
HETATM    7  C   UNL     1      41.657  -9.085   8.737  1.00  0.00     0.056 A 
HETATM    8  C   UNL     1      41.517  -8.371   7.455  1.00  0.00     0.251 A 
HETATM    9  O   UNL     1      42.391  -7.775   6.856  1.00  0.00    -0.268 OA
HETATM   10  N   UNL     1      40.200  -8.433   7.085  1.00  0.00    -0.351 N 
HETATM   11  C   UNL     1      39.393  -9.061   8.076  1.00  0.00     0.180 A 
HETATM   12  C   UNL     1      42.713  -9.494  12.896  1.00  0.00     0.026 A 
HETATM   13  C   UNL     1      41.954  -9.152  14.016  1.00  0.00     0.002 A 
HETATM   14  C   UNL     1      40.571  -9.082  13.918  1.00  0.00     0.002 A 
HETATM   15  C   UNL     1      39.949  -9.348  12.697  1.00  0.00     0.031 A 
HETATM   16  H   UNL     1      43.880 -10.292  10.909  1.00  0.00     0.128 HD
HETATM   17  H   UNL     1      38.988  -9.917  10.465  1.00  0.00     0.166 HD
HETATM   18  H   UNL     1      39.868  -7.970   6.251  1.00  0.00     0.163 HD
ENDROOT
BRANCH   1  19
HETATM   19  C   UNL     1      43.975  -9.967   8.443  1.00  0.00    -0.002 A 
HETATM   20  C   UNL     1      43.700 -11.256   7.952  1.00  0.00     0.012 A 
HETATM   21  C   UNL     1      44.615 -11.918   7.130  1.00  0.00     0.001 A 
HETATM   22  C   UNL     1      45.821 -11.308   6.789  1.00  0.00     0.003 A 
HETATM   23  C   UNL     1      46.110 -10.030   7.261  1.00  0.00     0.037 A 
HETATM   24  C   UNL     1      45.191  -9.367   8.070  1.00  0.00     0.073 A 
BRANCH  24  25
HETATM   25  O   UNL     1      45.520  -8.096   8.463  1.00  0.00    -0.360 OA
HETATM   26  H   UNL     1      45.704  -8.126   9.428  1.00  0.00     0.217 HD
ENDBRANCH  24  25
ENDBRANCH   1  19
TORSDOF 2
ENDMDL
MODEL 10
REMARK VINA RESULT:      -7.3     14.455     15.718
REMARK  2 active torsions:
REMARK  status: ('A' for Active; 'I' for Inactive)
REMARK    1  A    between atoms: C_3  and  C_4 
REMARK    2  A    between atoms: C_19  and  O_20 
ROOT
HETATM    1  C   UNL     1      46.557 -30.417   1.113  1.00  0.00     0.137 C 
HETATM    2  N   UNL     1      46.899 -29.567  -0.055  1.00  0.00    -0.278 NA
HETATM    3  C   UNL     1      46.073 -29.647  -1.193  1.00  0.00     0.036 A 
HETATM    4  C   UNL     1      44.725 -29.221  -1.187  1.00  0.00     0.053 A 
HETATM    5  N   UNL     1      44.060 -28.769  -0.019  1.00  0.00    -0.356 N 
HETATM    6  C   UNL     1      44.182 -29.402   1.199  1.00  0.00     0.041 A 
HETATM    7  C   UNL     1      45.204 -30.139   1.662  1.00  0.00     0.056 A 
HETATM    8  C   UNL     1      44.729 -30.771   2.905  1.00  0.00     0.251 A 
HETATM    9  O   UNL     1      45.291 -31.643   3.539  1.00  0.00    -0.268 OA
HETATM   10  N   UNL     1      43.493 -30.252   3.190  1.00  0.00    -0.351 N 
HETATM   11  C   UNL     1      43.034 -29.370   2.172  1.00  0.00     0.180 A 
HETATM   12  C   UNL     1      46.640 -30.088  -2.403  1.00  0.00     0.026 A 
HETATM   13  C   UNL     1      45.895 -30.129  -3.581  1.00  0.00     0.002 A 
HETATM   14  C   UNL     1      44.571 -29.707  -3.576  1.00  0.00     0.002 A 
HETATM   15  C   UNL     1      43.994 -29.251  -2.390  1.00  0.00     0.031 A 
HETATM   16  H   UNL     1      47.864 -29.773  -0.316  1.00  0.00     0.128 HD
HETATM   17  H   UNL     1      43.133 -28.402  -0.207  1.00  0.00     0.166 HD
HETATM   18  H   UNL     1      42.960 -30.577   3.984  1.00  0.00     0.163 HD
ENDROOT
BRANCH   1  19
HETATM   19  C   UNL     1      47.656 -30.136   2.138  1.00  0.00    -0.002 A 
HETATM   20  C   UNL     1      48.423 -31.197   2.652  1.00  0.00     0.012 A 
HETATM   21  C   UNL     1      49.402 -30.967   3.622  1.00  0.00     0.001 A 
HETATM   22  C   UNL     1      49.627 -29.676   4.098  1.00  0.00     0.003 A 
HETATM   23  C   UNL     1      48.881 -28.611   3.598  1.00  0.00     0.037 A 
HETATM   24  C   UNL     1      47.916 -28.841   2.622  1.00  0.00     0.073 A 
BRANCH  24  25
HETATM   25  O   UNL     1      47.250 -27.744   2.143  1.00  0.00    -0.360 OA
HETATM   26  H   UNL     1      46.677 -28.048   1.404  1.00  0.00     0.217 HD
ENDBRANCH  24  25
ENDBRANCH   1  19
TORSDOF 2
ENDMDL
