MODEL 1
REMARK VINA RESULT:      -8.5      0.000      0.000
REMARK  3 active torsions:
REMARK  status: ('A' for Active; 'I' for Inactive)
REMARK    1  A    between atoms: C_4  and  C_5 
REMARK    2  A    between atoms: C_11  and  C_12 
REMARK    3  A    between atoms: C_21  and  N_22 
ROOT
HETATM    1  C   UNL     1      42.782 -16.082   2.296  1.00  0.00     0.098 A 
HETATM    2  N   UNL     1      42.405 -16.042   1.002  1.00  0.00    -0.172 NA
HETATM    3  N   UNL     1      42.092 -14.753   0.775  1.00  0.00    -0.256 N 
HETATM    4  H   UNL     1      41.834 -14.469  -0.162  1.00  0.00     0.191 HD
HETATM    5  C   UNL     1      42.231 -13.980   1.879  1.00  0.00     0.175 A 
HETATM    6  C   UNL     1      42.594 -14.809   2.907  1.00  0.00     0.036 A 
HETATM    7  C   UNL     1      42.773 -14.245   4.284  1.00  0.00     0.077 C 
HETATM    8  C   UNL     1      43.061 -12.725   4.125  1.00  0.00     0.076 C 
HETATM    9  C   UNL     1      43.779 -12.073   5.169  1.00  0.00     0.100 C 
HETATM   10  N   UNL     1      44.348 -11.541   6.029  1.00  0.00    -0.192 NA
HETATM   11  C   UNL     1      42.699 -12.026   3.012  1.00  0.00     0.140 C 
HETATM   12  O   UNL     1      42.111 -12.659   1.901  1.00  0.00    -0.279 OA
ENDROOT
BRANCH   7  13
HETATM   13  C   UNL     1      41.516 -14.432   5.215  1.00  0.00     0.003 C 
HETATM   14  C   UNL     1      40.899 -15.852   5.260  1.00  0.00     0.032 C 
HETATM   15  C   UNL     1      41.639 -16.807   6.145  1.00  0.00    -0.030 C 
HETATM   16  C   UNL     1      42.501 -16.408   7.091  1.00  0.00    -0.031 C 
HETATM   17  C   UNL     1      42.776 -14.965   7.389  1.00  0.00     0.027 C 
HETATM   18  C   UNL     1      41.801 -14.016   6.680  1.00  0.00     0.009 C 
ENDBRANCH   7  13
BRANCH  11  19
HETATM   19  N   UNL     1      42.877 -10.675   2.818  1.00  0.00    -0.282 NA
HETATM   20  H   UNL     1      43.693 -10.270   3.270  1.00  0.00     0.126 HD
HETATM   21  H   UNL     1      42.023 -10.148   2.988  1.00  0.00     0.126 HD
ENDBRANCH  11  19
BRANCH   1  22
HETATM   22  C   UNL     1      43.291 -17.319   2.884  1.00  0.00    -0.005 A 
HETATM   23  C   UNL     1      44.087 -17.297   4.036  1.00  0.00     0.014 A 
HETATM   24  C   UNL     1      44.553 -18.489   4.600  1.00  0.00     0.001 A 
HETATM   25  C   UNL     1      44.236 -19.711   4.009  1.00  0.00     0.000 A 
HETATM   26  C   UNL     1      43.464 -19.744   2.849  1.00  0.00     0.001 A 
HETATM   27  C   UNL     1      42.999 -18.552   2.285  1.00  0.00     0.014 A 
ENDBRANCH   1  22
TORSDOF 3
ENDMDL
MODEL 2
REMARK VINA RESULT:      -8.0      8.497     11.707
REMARK  3 active torsions:
REMARK  status: ('A' for Active; 'I' for Inactive)
REMARK    1  A    between atoms: C_4  and  C_5 
REMARK    2  A    between atoms: C_11  and  C_12 
REMARK    3  A    between atoms: C_21  and  N_22 
ROOT
HETATM    1  C   UNL     1      40.226  -9.642  12.969  1.00  0.00     0.098 A 
HETATM    2  N   UNL     1      39.748 -10.766  13.541  1.00  0.00    -0.172 NA
HETATM    3  N   UNL     1      39.033 -11.368  12.573  1.00  0.00    -0.256 N 
HETATM    4  H   UNL     1      38.623 -12.276  12.759  1.00  0.00     0.191 HD
HETATM    5  C   UNL     1      39.016 -10.659  11.419  1.00  0.00     0.175 A 
HETATM    6  C   UNL     1      39.702  -9.497  11.652  1.00  0.00     0.036 A 
HETATM    7  C   UNL     1      39.811  -8.472  10.564  1.00  0.00     0.077 C 
HETATM    8  C   UNL     1      39.599  -9.210   9.212  1.00  0.00     0.076 C 
HETATM    9  C   UNL     1      40.163  -8.626   8.041  1.00  0.00     0.100 C 
HETATM   10  N   UNL     1      40.608  -8.139   7.087  1.00  0.00    -0.192 NA
HETATM   11  C   UNL     1      38.947 -10.405   9.128  1.00  0.00     0.140 C 
HETATM   12  O   UNL     1      38.495 -11.082  10.275  1.00  0.00    -0.279 OA
ENDROOT
BRANCH   7  13
HETATM   13  C   UNL     1      38.755  -7.307  10.681  1.00  0.00     0.003 C 
HETATM   14  C   UNL     1      38.319  -6.916  12.115  1.00  0.00     0.032 C 
HETATM   15  C   UNL     1      39.301  -6.037  12.828  1.00  0.00    -0.030 C 
HETATM   16  C   UNL     1      40.257  -5.343  12.193  1.00  0.00    -0.031 C 
HETATM   17  C   UNL     1      40.412  -5.344  10.702  1.00  0.00     0.027 C 
HETATM   18  C   UNL     1      39.231  -6.009   9.982  1.00  0.00     0.009 C 
ENDBRANCH   7  13
BRANCH  11  19
HETATM   19  N   UNL     1      38.680 -11.094   7.967  1.00  0.00    -0.282 NA
HETATM   20  H   UNL     1      39.349 -10.960   7.212  1.00  0.00     0.126 HD
HETATM   21  H   UNL     1      37.714 -10.984   7.669  1.00  0.00     0.126 HD
ENDBRANCH  11  19
BRANCH   1  22
HETATM   22  C   UNL     1      41.140  -8.767  13.699  1.00  0.00    -0.005 A 
HETATM   23  C   UNL     1      42.312  -8.286  13.099  1.00  0.00     0.014 A 
HETATM   24  C   UNL     1      43.169  -7.435  13.801  1.00  0.00     0.001 A 
HETATM   25  C   UNL     1      42.869  -7.067  15.112  1.00  0.00     0.000 A 
HETATM   26  C   UNL     1      41.718  -7.557  15.726  1.00  0.00     0.001 A 
HETATM   27  C   UNL     1      40.860  -8.409  15.024  1.00  0.00     0.014 A 
ENDBRANCH   1  22
TORSDOF 3
ENDMDL
MODEL 3
REMARK VINA RESULT:      -7.9      3.278      4.942
REMARK  3 active torsions:
REMARK  status: ('A' for Active; 'I' for Inactive)
REMARK    1  A    between atoms: C_4  and  C_5 
REMARK    2  A    between atoms: C_11  and  C_12 
REMARK    3  A    between atoms: C_21  and  N_22 
ROOT
HETATM    1  C   UNL     1      40.367 -14.539   0.288  1.00  0.00     0.098 A 
HETATM    2  N   UNL     1      39.477 -15.284  -0.399  1.00  0.00    -0.172 NA
HETATM    3  N   UNL     1      38.903 -14.426  -1.262  1.00  0.00    -0.256 N 
HETATM    4  H   UNL     1      38.233 -14.781  -1.933  1.00  0.00     0.191 HD
HETATM    5  C   UNL     1      39.374 -13.162  -1.132  1.00  0.00     0.175 A 
HETATM    6  C   UNL     1      40.260 -13.169  -0.087  1.00  0.00     0.036 A 
HETATM    7  C   UNL     1      40.914 -11.889   0.336  1.00  0.00     0.077 C 
HETATM    8  C   UNL     1      40.870 -10.924  -0.882  1.00  0.00     0.076 C 
HETATM    9  C   UNL     1      41.851  -9.893  -0.949  1.00  0.00     0.100 C 
HETATM   10  N   UNL     1      42.641  -9.044  -0.991  1.00  0.00    -0.192 NA
HETATM   11  C   UNL     1      39.969 -11.069  -1.896  1.00  0.00     0.140 C 
HETATM   12  O   UNL     1      39.073 -12.153  -1.938  1.00  0.00    -0.279 OA
ENDROOT
BRANCH   7  13
HETATM   13  C   UNL     1      40.213 -11.193   1.564  1.00  0.00     0.003 C 
HETATM   14  C   UNL     1      39.592 -12.135   2.625  1.00  0.00     0.032 C 
HETATM   15  C   UNL     1      40.591 -12.713   3.581  1.00  0.00    -0.030 C 
HETATM   16  C   UNL     1      41.815 -12.194   3.761  1.00  0.00    -0.031 C 
HETATM   17  C   UNL     1      42.290 -10.959   3.057  1.00  0.00     0.027 C 
HETATM   18  C   UNL     1      41.164 -10.228   2.315  1.00  0.00     0.009 C 
ENDBRANCH   7  13
BRANCH  11  19
HETATM   19  N   UNL     1      39.838 -10.232  -2.980  1.00  0.00    -0.282 NA
HETATM   20  H   UNL     1      38.935 -10.257  -3.449  1.00  0.00     0.126 HD
HETATM   21  H   UNL     1      40.623 -10.311  -3.621  1.00  0.00     0.126 HD
ENDBRANCH  11  19
BRANCH   1  22
HETATM   22  C   UNL     1      41.260 -15.160   1.263  1.00  0.00    -0.005 A 
HETATM   23  C   UNL     1      42.631 -14.868   1.275  1.00  0.00     0.014 A 
HETATM   24  C   UNL     1      43.472 -15.455   2.225  1.00  0.00     0.001 A 
HETATM   25  C   UNL     1      42.953 -16.346   3.162  1.00  0.00     0.000 A 
HETATM   26  C   UNL     1      41.595 -16.662   3.146  1.00  0.00     0.001 A 
HETATM   27  C   UNL     1      40.754 -16.075   2.196  1.00  0.00     0.014 A 
ENDBRANCH   1  22
TORSDOF 3
ENDMDL
MODEL 4
REMARK VINA RESULT:      -7.8      2.789      6.211
REMARK  3 active torsions:
REMARK  status: ('A' for Active; 'I' for Inactive)
REMARK    1  A    between atoms: C_4  and  C_5 
REMARK    2  A    between atoms: C_11  and  C_12 
REMARK    3  A    between atoms: C_21  and  N_22 
ROOT
HETATM    1  C   UNL     1      42.909 -14.542   6.307  1.00  0.00     0.098 A 
HETATM    2  N   UNL     1      42.917 -14.587   7.655  1.00  0.00    -0.172 NA
HETATM    3  N   UNL     1      42.977 -15.897   7.955  1.00  0.00    -0.256 N 
HETATM    4  H   UNL     1      43.056 -16.174   8.926  1.00  0.00     0.191 HD
HETATM    5  C   UNL     1      42.982 -16.685   6.853  1.00  0.00     0.175 A 
HETATM    6  C   UNL     1      42.854 -15.860   5.768  1.00  0.00     0.036 A 
HETATM    7  C   UNL     1      42.774 -16.451   4.394  1.00  0.00     0.077 C 
HETATM    8  C   UNL     1      43.430 -17.860   4.460  1.00  0.00     0.076 C 
HETATM    9  C   UNL     1      43.965 -18.400   3.255  1.00  0.00     0.100 C 
HETATM   10  N   UNL     1      44.384 -18.845   2.268  1.00  0.00    -0.192 NA
HETATM   11  C   UNL     1      43.553 -18.554   5.627  1.00  0.00     0.140 C 
HETATM   12  O   UNL     1      43.163 -17.999   6.860  1.00  0.00    -0.279 OA
ENDROOT
BRANCH   7  13
HETATM   13  C   UNL     1      41.302 -16.599   3.850  1.00  0.00     0.003 C 
HETATM   14  C   UNL     1      40.300 -15.496   4.272  1.00  0.00     0.032 C 
HETATM   15  C   UNL     1      40.419 -14.232   3.476  1.00  0.00    -0.030 C 
HETATM   16  C   UNL     1      41.039 -14.172   2.289  1.00  0.00    -0.031 C 
HETATM   17  C   UNL     1      41.637 -15.372   1.619  1.00  0.00     0.027 C 
HETATM   18  C   UNL     1      41.252 -16.689   2.304  1.00  0.00     0.009 C 
ENDBRANCH   7  13
BRANCH  11  19
HETATM   19  N   UNL     1      44.078 -19.819   5.759  1.00  0.00    -0.282 NA
HETATM   20  H   UNL     1      44.912 -20.009   5.208  1.00  0.00     0.126 HD
HETATM   21  H   UNL     1      43.366 -20.540   5.668  1.00  0.00     0.126 HD
ENDBRANCH  11  19
BRANCH   1  22
HETATM   22  C   UNL     1      42.945 -13.261   5.606  1.00  0.00    -0.005 A 
HETATM   23  C   UNL     1      43.744 -13.082   4.469  1.00  0.00     0.014 A 
HETATM   24  C   UNL     1      43.757 -11.857   3.796  1.00  0.00     0.001 A 
HETATM   25  C   UNL     1      42.979 -10.798   4.260  1.00  0.00     0.000 A 
HETATM   26  C   UNL     1      42.197 -10.956   5.403  1.00  0.00     0.001 A 
HETATM   27  C   UNL     1      42.185 -12.181   6.076  1.00  0.00     0.014 A 
ENDBRANCH   1  22
TORSDOF 3
ENDMDL
MODEL 5
REMARK VINA RESULT:      -7.7      2.402      4.417
REMARK  3 active torsions:
REMARK  status: ('A' for Active; 'I' for Inactive)
REMARK    1  A    between atoms: C_4  and  C_5 
REMARK    2  A    between atoms: C_11  and  C_12 
REMARK    3  A    between atoms: C_21  and  N_22 
ROOT
HETATM    1  C   UNL     1      43.252 -13.256   5.404  1.00  0.00     0.098 A 
HETATM    2  N   UNL     1      44.129 -12.399   5.965  1.00  0.00    -0.172 NA
HETATM    3  N   UNL     1      43.911 -11.226   5.342  1.00  0.00    -0.256 N 
HETATM    4  H   UNL     1      44.423 -10.407   5.646  1.00  0.00     0.191 HD
HETATM    5  C   UNL     1      42.950 -11.312   4.391  1.00  0.00     0.175 A 
HETATM    6  C   UNL     1      42.554 -12.621   4.336  1.00  0.00     0.036 A 
HETATM    7  C   UNL     1      41.526 -13.042   3.331  1.00  0.00     0.077 C 
HETATM    8  C   UNL     1      40.713 -11.774   2.944  1.00  0.00     0.076 C 
HETATM    9  C   UNL     1      39.388 -11.958   2.453  1.00  0.00     0.100 C 
HETATM   10  N   UNL     1      38.316 -12.113   2.037  1.00  0.00    -0.192 NA
HETATM   11  C   UNL     1      41.205 -10.513   3.110  1.00  0.00     0.140 C 
HETATM   12  O   UNL     1      42.453 -10.282   3.718  1.00  0.00    -0.279 OA
ENDROOT
BRANCH   7  13
HETATM   13  C   UNL     1      42.138 -13.674   2.023  1.00  0.00     0.003 C 
HETATM   14  C   UNL     1      43.408 -14.542   2.208  1.00  0.00     0.032 C 
HETATM   15  C   UNL     1      43.127 -15.931   2.694  1.00  0.00    -0.030 C 
HETATM   16  C   UNL     1      41.916 -16.502   2.614  1.00  0.00    -0.031 C 
HETATM   17  C   UNL     1      40.733 -15.824   1.991  1.00  0.00     0.027 C 
HETATM   18  C   UNL     1      41.109 -14.536   1.248  1.00  0.00     0.009 C 
ENDBRANCH   7  13
BRANCH  11  19
HETATM   19  N   UNL     1      40.567  -9.348   2.751  1.00  0.00    -0.282 NA
HETATM   20  H   UNL     1      40.875  -8.929   1.877  1.00  0.00     0.126 HD
HETATM   21  H   UNL     1      40.525  -8.683   3.520  1.00  0.00     0.126 HD
ENDBRANCH  11  19
BRANCH   1  22
HETATM   22  C   UNL     1      43.128 -14.624   5.901  1.00  0.00    -0.005 A 
HETATM   23  C   UNL     1      41.871 -15.199   6.128  1.00  0.00     0.014 A 
HETATM   24  C   UNL     1      41.765 -16.515   6.586  1.00  0.00     0.001 A 
HETATM   25  C   UNL     1      42.916 -17.263   6.832  1.00  0.00     0.000 A 
HETATM   26  C   UNL     1      44.172 -16.694   6.632  1.00  0.00     0.001 A 
HETATM   27  C   UNL     1      44.278 -15.378   6.174  1.00  0.00     0.014 A 
ENDBRANCH   1  22
TORSDOF 3
ENDMDL
MODEL 6
REMARK VINA RESULT:      -7.7      2.384      3.208
REMARK  3 active torsions:
REMARK  status: ('A' for Active; 'I' for Inactive)
REMARK    1  A    between atoms: C_4  and  C_5 
REMARK    2  A    between atoms: C_11  and  C_12 
REMARK    3  A    between atoms: C_21  and  N_22 
ROOT
HETATM    1  C   UNL     1      41.007 -13.872   3.721  1.00  0.00     0.098 A 
HETATM    2  N   UNL     1      39.832 -13.363   3.296  1.00  0.00    -0.172 NA
HETATM    3  N   UNL     1      39.537 -12.394   4.181  1.00  0.00    -0.256 N 
HETATM    4  H   UNL     1      38.714 -11.823   4.026  1.00  0.00     0.191 HD
HETATM    5  C   UNL     1      40.462 -12.286   5.164  1.00  0.00     0.175 A 
HETATM    6  C   UNL     1      41.387 -13.274   4.957  1.00  0.00     0.036 A 
HETATM    7  C   UNL     1      42.519 -13.444   5.924  1.00  0.00     0.077 C 
HETATM    8  C   UNL     1      42.712 -12.082   6.650  1.00  0.00     0.076 C 
HETATM    9  C   UNL     1      43.998 -11.797   7.194  1.00  0.00     0.100 C 
HETATM   10  N   UNL     1      45.040 -11.575   7.652  1.00  0.00    -0.192 NA
HETATM   11  C   UNL     1      41.720 -11.150   6.730  1.00  0.00     0.140 C 
HETATM   12  O   UNL     1      40.481 -11.334   6.088  1.00  0.00    -0.279 OA
ENDROOT
BRANCH   7  13
HETATM   13  C   UNL     1      42.270 -14.566   7.003  1.00  0.00     0.003 C 
HETATM   14  C   UNL     1      41.352 -15.738   6.576  1.00  0.00     0.032 C 
HETATM   15  C   UNL     1      42.036 -16.767   5.729  1.00  0.00    -0.030 C 
HETATM   16  C   UNL     1      43.370 -16.885   5.658  1.00  0.00    -0.031 C 
HETATM   17  C   UNL     1      44.309 -16.028   6.452  1.00  0.00     0.027 C 
HETATM   18  C   UNL     1      43.591 -15.190   7.518  1.00  0.00     0.009 C 
ENDBRANCH   7  13
BRANCH  11  19
HETATM   19  N   UNL     1      41.799  -9.946   7.391  1.00  0.00    -0.282 NA
HETATM   20  H   UNL     1      40.916  -9.571   7.729  1.00  0.00     0.126 HD
HETATM   21  H   UNL     1      42.354  -9.264   6.879  1.00  0.00     0.126 HD
ENDBRANCH  11  19
BRANCH   1  22
HETATM   22  C   UNL     1      41.698 -14.897   2.942  1.00  0.00    -0.005 A 
HETATM   23  C   UNL     1      42.967 -14.658   2.399  1.00  0.00     0.014 A 
HETATM   24  C   UNL     1      43.626 -15.653   1.672  1.00  0.00     0.001 A 
HETATM   25  C   UNL     1      43.017 -16.891   1.472  1.00  0.00     0.000 A 
HETATM   26  C   UNL     1      41.745 -17.133   1.988  1.00  0.00     0.001 A 
HETATM   27  C   UNL     1      41.086 -16.138   2.715  1.00  0.00     0.014 A 
ENDBRANCH   1  22
TORSDOF 3
ENDMDL
MODEL 7
REMARK VINA RESULT:      -7.6     14.873     16.461
REMARK  3 active torsions:
REMARK  status: ('A' for Active; 'I' for Inactive)
REMARK    1  A    between atoms: C_4  and  C_5 
REMARK    2  A    between atoms: C_11  and  C_12 
REMARK    3  A    between atoms: C_21  and  N_22 
ROOT
HETATM    1  C   UNL     1      44.460 -30.368  -0.020  1.00  0.00     0.098 A 
HETATM    2  N   UNL     1      43.304 -30.990   0.291  1.00  0.00    -0.172 NA
HETATM    3  N   UNL     1      43.482 -31.441   1.546  1.00  0.00    -0.256 N 
HETATM    4  H   UNL     1      42.710 -31.896   2.017  1.00  0.00     0.191 HD
HETATM    5  C   UNL     1      44.713 -31.153   2.033  1.00  0.00     0.175 A 
HETATM    6  C   UNL     1      45.409 -30.535   1.029  1.00  0.00     0.036 A 
HETATM    7  C   UNL     1      46.837 -30.139   1.253  1.00  0.00     0.077 C 
HETATM    8  C   UNL     1      47.043 -30.008   2.788  1.00  0.00     0.076 C 
HETATM    9  C   UNL     1      48.089 -29.156   3.248  1.00  0.00     0.100 C 
HETATM   10  N   UNL     1      48.953 -28.476   3.618  1.00  0.00    -0.192 NA
HETATM   11  C   UNL     1      46.231 -30.632   3.690  1.00  0.00     0.140 C 
HETATM   12  O   UNL     1      45.106 -31.370   3.282  1.00  0.00    -0.279 OA
ENDROOT
BRANCH   7  13
HETATM   13  C   UNL     1      47.880 -31.175   0.684  1.00  0.00     0.003 C 
HETATM   14  C   UNL     1      47.482 -31.904  -0.623  1.00  0.00     0.032 C 
HETATM   15  C   UNL     1      47.689 -31.086  -1.861  1.00  0.00    -0.030 C 
HETATM   16  C   UNL     1      48.479 -30.004  -1.897  1.00  0.00    -0.031 C 
HETATM   17  C   UNL     1      49.269 -29.530  -0.715  1.00  0.00     0.027 C 
HETATM   18  C   UNL     1      49.271 -30.537   0.442  1.00  0.00     0.009 C 
ENDBRANCH   7  13
BRANCH  11  19
HETATM   19  N   UNL     1      46.377 -30.601   5.058  1.00  0.00    -0.282 NA
HETATM   20  H   UNL     1      46.886 -31.383   5.463  1.00  0.00     0.126 HD
HETATM   21  H   UNL     1      45.498 -30.407   5.532  1.00  0.00     0.126 HD
ENDBRANCH  11  19
BRANCH   1  22
HETATM   22  C   UNL     1      44.604 -29.660  -1.290  1.00  0.00    -0.005 A 
HETATM   23  C   UNL     1      45.170 -28.379  -1.342  1.00  0.00     0.014 A 
HETATM   24  C   UNL     1      45.320 -27.719  -2.564  1.00  0.00     0.001 A 
HETATM   25  C   UNL     1      44.896 -28.329  -3.744  1.00  0.00     0.000 A 
HETATM   26  C   UNL     1      44.310 -29.593  -3.702  1.00  0.00     0.001 A 
HETATM   27  C   UNL     1      44.160 -30.253  -2.479  1.00  0.00     0.014 A 
ENDBRANCH   1  22
TORSDOF 3
ENDMDL
MODEL 8
REMARK VINA RESULT:      -7.3      9.457     12.167
REMARK  3 active torsions:
REMARK  status: ('A' for Active; 'I' for Inactive)
REMARK    1  A    between atoms: C_4  and  C_5 
REMARK    2  A    between atoms: C_11  and  C_12 
REMARK    3  A    between atoms: C_21  and  N_22 
ROOT
HETATM    1  C   UNL     1      40.014  -7.669  10.628  1.00  0.00     0.098 A 
HETATM    2  N   UNL     1      38.946  -8.148   9.957  1.00  0.00    -0.172 NA
HETATM    3  N   UNL     1      37.888  -7.843  10.731  1.00  0.00    -0.256 N 
HETATM    4  H   UNL     1      36.957  -8.056  10.394  1.00  0.00     0.191 HD
HETATM    5  C   UNL     1      38.244  -7.213  11.876  1.00  0.00     0.175 A 
HETATM    6  C   UNL     1      39.612  -7.153  11.894  1.00  0.00     0.036 A 
HETATM    7  C   UNL     1      40.311  -6.551  13.074  1.00  0.00     0.077 C 
HETATM    8  C   UNL     1      39.298  -5.604  13.777  1.00  0.00     0.076 C 
HETATM    9  C   UNL     1      39.820  -4.534  14.559  1.00  0.00     0.100 C 
HETATM   10  N   UNL     1      40.249  -3.674  15.209  1.00  0.00    -0.192 NA
HETATM   11  C   UNL     1      37.949  -5.736  13.623  1.00  0.00     0.140 C 
HETATM   12  O   UNL     1      37.395  -6.692  12.752  1.00  0.00    -0.279 OA
ENDROOT
BRANCH   7  13
HETATM   13  C   UNL     1      40.825  -7.614  14.118  1.00  0.00     0.003 C 
HETATM   14  C   UNL     1      41.180  -9.013  13.557  1.00  0.00     0.032 C 
HETATM   15  C   UNL     1      42.524  -9.078  12.898  1.00  0.00    -0.030 C 
HETATM   16  C   UNL     1      43.481  -8.160  13.098  1.00  0.00    -0.031 C 
HETATM   17  C   UNL     1      43.318  -7.001  14.034  1.00  0.00     0.027 C 
HETATM   18  C   UNL     1      42.062  -7.115  14.907  1.00  0.00     0.009 C 
ENDBRANCH   7  13
BRANCH  11  19
HETATM   19  N   UNL     1      36.991  -4.969  14.245  1.00  0.00    -0.282 NA
HETATM   20  H   UNL     1      36.522  -5.406  15.035  1.00  0.00     0.126 HD
HETATM   21  H   UNL     1      36.345  -4.549  13.580  1.00  0.00     0.126 HD
ENDBRANCH  11  19
BRANCH   1  22
HETATM   22  C   UNL     1      41.350  -7.731  10.040  1.00  0.00    -0.005 A 
HETATM   23  C   UNL     1      42.174  -6.599   9.999  1.00  0.00     0.014 A 
HETATM   24  C   UNL     1      43.458  -6.676   9.451  1.00  0.00     0.001 A 
HETATM   25  C   UNL     1      43.923  -7.882   8.929  1.00  0.00     0.000 A 
HETATM   26  C   UNL     1      43.103  -9.010   8.943  1.00  0.00     0.001 A 
HETATM   27  C   UNL     1      41.820  -8.933   9.491  1.00  0.00     0.014 A 
ENDBRANCH   1  22
TORSDOF 3
ENDMDL
MODEL 9
REMARK VINA RESULT:      -7.2     14.478     16.374
REMARK  3 active torsions:
REMARK  status: ('A' for Active; 'I' for Inactive)
REMARK    1  A    between atoms: C_4  and  C_5 
REMARK    2  A    between atoms: C_11  and  C_12 
REMARK    3  A    between atoms: C_21  and  N_22 
ROOT
HETATM    1  C   UNL     1      47.697 -29.610   0.816  1.00  0.00     0.098 A 
HETATM    2  N   UNL     1      48.316 -28.943   1.812  1.00  0.00    -0.172 NA
HETATM    3  N   UNL     1      47.326 -28.572   2.645  1.00  0.00    -0.256 N 
HETATM    4  H   UNL     1      47.564 -28.102   3.510  1.00  0.00     0.191 HD
HETATM    5  C   UNL     1      46.103 -28.955   2.205  1.00  0.00     0.175 A 
HETATM    6  C   UNL     1      46.284 -29.554   0.987  1.00  0.00     0.036 A 
HETATM    7  C   UNL     1      45.093 -30.041   0.218  1.00  0.00     0.077 C 
HETATM    8  C   UNL     1      43.945 -30.268   1.242  1.00  0.00     0.076 C 
HETATM    9  C   UNL     1      42.924 -31.202   0.899  1.00  0.00     0.100 C 
HETATM   10  N   UNL     1      42.085 -31.949   0.609  1.00  0.00    -0.192 NA
HETATM   11  C   UNL     1      43.919 -29.652   2.458  1.00  0.00     0.140 C 
HETATM   12  O   UNL     1      44.975 -28.830   2.892  1.00  0.00    -0.279 OA
ENDROOT
BRANCH   7  13
HETATM   13  C   UNL     1      44.597 -29.035  -0.889  1.00  0.00     0.003 C 
HETATM   14  C   UNL     1      45.665 -28.080  -1.477  1.00  0.00     0.032 C 
HETATM   15  C   UNL     1      46.542 -28.716  -2.512  1.00  0.00    -0.030 C 
HETATM   16  C   UNL     1      46.218 -29.850  -3.148  1.00  0.00    -0.031 C 
HETATM   17  C   UNL     1      44.925 -30.573  -2.920  1.00  0.00     0.027 C 
HETATM   18  C   UNL     1      43.928 -29.759  -2.085  1.00  0.00     0.009 C 
ENDBRANCH   7  13
BRANCH  11  19
HETATM   19  N   UNL     1      42.918 -29.766   3.396  1.00  0.00    -0.282 NA
HETATM   20  H   UNL     1      41.975 -29.853   3.024  1.00  0.00     0.126 HD
HETATM   21  H   UNL     1      42.997 -29.063   4.127  1.00  0.00     0.126 HD
ENDBRANCH  11  19
BRANCH   1  22
HETATM   22  C   UNL     1      48.473 -30.253  -0.241  1.00  0.00    -0.005 A 
HETATM   23  C   UNL     1      48.166 -31.550  -0.674  1.00  0.00     0.014 A 
HETATM   24  C   UNL     1      48.904 -32.149  -1.699  1.00  0.00     0.001 A 
HETATM   25  C   UNL     1      49.961 -31.460  -2.292  1.00  0.00     0.000 A 
HETATM   26  C   UNL     1      50.290 -30.178  -1.854  1.00  0.00     0.001 A 
HETATM   27  C   UNL     1      49.552 -29.580  -0.829  1.00  0.00     0.014 A 
ENDBRANCH   1  22
TORSDOF 3
ENDMDL
MODEL 10
REMARK VINA RESULT:      -7.2     14.510     16.312
REMARK  3 active torsions:
REMARK  status: ('A' for Active; 'I' for Inactive)
REMARK    1  A    between atoms: C_4  and  C_5 
REMARK    2  A    between atoms: C_11  and  C_12 
REMARK    3  A    between atoms: C_21  and  N_22 
ROOT
HETATM    1  C   UNL     1      45.759 -29.530  -1.042  1.00  0.00     0.098 A 
HETATM    2  N   UNL     1      45.544 -28.831  -2.176  1.00  0.00    -0.172 NA
HETATM    3  N   UNL     1      46.773 -28.589  -2.669  1.00  0.00    -0.256 N 
HETATM    4  H   UNL     1      46.858 -28.122  -3.564  1.00  0.00     0.191 HD
HETATM    5  C   UNL     1      47.758 -29.082  -1.881  1.00  0.00     0.175 A 
HETATM    6  C   UNL     1      47.156 -29.625  -0.777  1.00  0.00     0.036 A 
HETATM    7  C   UNL     1      48.000 -30.209   0.314  1.00  0.00     0.077 C 
HETATM    8  C   UNL     1      49.372 -30.582  -0.315  1.00  0.00     0.076 C 
HETATM    9  C   UNL     1      50.137 -31.606   0.317  1.00  0.00     0.100 C 
HETATM   10  N   UNL     1      50.764 -32.426   0.845  1.00  0.00    -0.192 NA
HETATM   11  C   UNL     1      49.830 -30.007  -1.464  1.00  0.00     0.140 C 
HETATM   12  O   UNL     1      49.047 -29.094  -2.194  1.00  0.00    -0.279 OA
ENDROOT
BRANCH   7  13
HETATM   13  C   UNL     1      48.244 -29.228   1.523  1.00  0.00     0.003 C 
HETATM   14  C   UNL     1      47.091 -28.250   1.858  1.00  0.00     0.032 C 
HETATM   15  C   UNL     1      45.978 -28.872   2.646  1.00  0.00    -0.030 C 
HETATM   16  C   UNL     1      46.116 -30.021   3.322  1.00  0.00    -0.031 C 
HETATM   17  C   UNL     1      47.408 -30.776   3.394  1.00  0.00     0.027 C 
HETATM   18  C   UNL     1      48.593 -29.981   2.832  1.00  0.00     0.009 C 
ENDBRANCH   7  13
BRANCH  11  19
HETATM   19  N   UNL     1      51.048 -30.251  -2.055  1.00  0.00    -0.282 NA
HETATM   20  H   UNL     1      51.014 -30.745  -2.944  1.00  0.00     0.126 HD
HETATM   21  H   UNL     1      51.717 -30.649  -1.401  1.00  0.00     0.126 HD
ENDBRANCH  11  19
BRANCH   1  22
HETATM   22  C   UNL     1      44.637 -30.059  -0.272  1.00  0.00    -0.005 A 
HETATM   23  C   UNL     1      44.560 -31.421   0.049  1.00  0.00     0.014 A 
HETATM   24  C   UNL     1      43.491 -31.913   0.803  1.00  0.00     0.001 A 
HETATM   25  C   UNL     1      42.484 -31.050   1.232  1.00  0.00     0.000 A 
HETATM   26  C   UNL     1      42.537 -29.698   0.899  1.00  0.00     0.001 A 
HETATM   27  C   UNL     1      43.607 -29.206   0.146  1.00  0.00     0.014 A 
ENDBRANCH   1  22
TORSDOF 3
ENDMDL
