MODEL 1
REMARK VINA RESULT:      -9.3      0.000      0.000
REMARK  5 active torsions:
REMARK  status: ('A' for Active; 'I' for Inactive)
REMARK    1  A    between atoms: C_2  and  C_3 
REMARK    2  A    between atoms: N_12  and  N_13 
REMARK       I    between atoms: N_13  and  C_14 
REMARK    3  A    between atoms: C_14  and  C_15 
REMARK    4  A    between atoms: C_15  and  N_16 
REMARK       I    between atoms: N_16  and  C_17 
REMARK    5  A    between atoms: C_17  and  C_18 
ROOT
HETATM    1  N   UNL     1      44.017 -12.843   6.243  1.00  0.00    -0.255 N 
HETATM    2  C   UNL     1      43.388 -11.747   6.805  1.00  0.00     0.254 C 
HETATM    3  O   UNL     1      42.230 -11.409   6.567  1.00  0.00    -0.270 OA
HETATM    4  H   UNL     1      44.700 -13.333   6.830  1.00  0.00     0.191 HD
ENDROOT
BRANCH   1   5
HETATM    5  N   UNL     1      43.271 -13.639   5.387  1.00  0.00    -0.167 N 
HETATM    6  C   UNL     1      43.065 -13.357   4.066  1.00  0.00     0.345 C 
HETATM    7  N   UNL     1      42.292 -14.371   3.535  1.00  0.00    -0.319 N 
HETATM    8  O   UNL     1      43.462 -12.395   3.429  1.00  0.00    -0.245 OA
HETATM    9  C   UNL     1      42.099 -15.464   4.475  1.00  0.00     0.141 C 
HETATM   10  H   UNL     1      42.164 -14.437   2.535  1.00  0.00     0.166 HD
HETATM   11  C   UNL     1      40.608 -15.685   4.757  1.00  0.00     0.055 C 
HETATM   12  C   UNL     1      42.726 -14.848   5.750  1.00  0.00     0.279 C 
HETATM   13  O   UNL     1      42.722 -15.350   6.869  1.00  0.00    -0.268 OA
BRANCH   9  14
HETATM   14  C   UNL     1      42.800 -16.713   3.945  1.00  0.00    -0.021 A 
HETATM   15  C   UNL     1      43.807 -17.334   4.712  1.00  0.00     0.010 A 
HETATM   16  C   UNL     1      44.445 -18.495   4.268  1.00  0.00     0.001 A 
HETATM   17  C   UNL     1      44.085 -19.066   3.053  1.00  0.00     0.000 A 
HETATM   18  C   UNL     1      43.084 -18.479   2.284  1.00  0.00     0.001 A 
HETATM   19  C   UNL     1      42.444 -17.317   2.727  1.00  0.00     0.010 A 
ENDBRANCH   9  14
ENDBRANCH   1   5
BRANCH   2  20
HETATM   20  C   UNL     1      44.270 -11.005   7.807  1.00  0.00     0.227 C 
BRANCH  20  21
HETATM   21  N   UNL     1      43.518 -10.582   8.974  1.00  0.00    -0.348 N 
HETATM   22  C   UNL     1      44.165 -10.304  10.159  1.00  0.00     0.252 C 
HETATM   23  O   UNL     1      45.368 -10.511  10.292  1.00  0.00    -0.268 OA
HETATM   24  H   UNL     1      42.548 -10.343   8.834  1.00  0.00     0.163 HD
BRANCH  22  25
HETATM   25  C   UNL     1      43.357  -9.716  11.270  1.00  0.00     0.033 A 
HETATM   26  C   UNL     1      42.113 -10.228  11.660  1.00  0.00     0.036 A 
HETATM   27  C   UNL     1      41.398  -9.602  12.685  1.00  0.00     0.012 A 
HETATM   28 BR   UNL     1      39.707 -10.281  13.192  1.00  0.00    -0.051 Br
HETATM   29  C   UNL     1      41.913  -8.483  13.336  1.00  0.00     0.019 A 
HETATM   30  C   UNL     1      43.161  -7.984  12.967  1.00  0.00     0.002 A 
HETATM   31  C   UNL     1      43.880  -8.599  11.939  1.00  0.00     0.017 A 
ENDBRANCH  22  25
ENDBRANCH  20  21
ENDBRANCH   2  20
TORSDOF 5
ENDMDL
MODEL 2
REMARK VINA RESULT:      -9.2      1.990      2.533
REMARK  5 active torsions:
REMARK  status: ('A' for Active; 'I' for Inactive)
REMARK    1  A    between atoms: C_2  and  C_3 
REMARK    2  A    between atoms: N_12  and  N_13 
REMARK       I    between atoms: N_13  and  C_14 
REMARK    3  A    between atoms: C_14  and  C_15 
REMARK    4  A    between atoms: C_15  and  N_16 
REMARK       I    between atoms: N_16  and  C_17 
REMARK    5  A    between atoms: C_17  and  C_18 
ROOT
HETATM    1  N   UNL     1      43.911 -12.385   7.374  1.00  0.00    -0.255 N 
HETATM    2  C   UNL     1      44.858 -11.673   6.659  1.00  0.00     0.254 C 
HETATM    3  O   UNL     1      44.958 -11.678   5.434  1.00  0.00    -0.270 OA
HETATM    4  H   UNL     1      43.567 -11.954   8.238  1.00  0.00     0.191 HD
ENDROOT
BRANCH   1   5
HETATM    5  N   UNL     1      42.984 -13.118   6.650  1.00  0.00    -0.167 N 
HETATM    6  C   UNL     1      41.916 -12.569   5.997  1.00  0.00     0.345 C 
HETATM    7  N   UNL     1      41.227 -13.595   5.380  1.00  0.00    -0.319 N 
HETATM    8  O   UNL     1      41.585 -11.396   5.947  1.00  0.00    -0.245 OA
HETATM    9  C   UNL     1      41.932 -14.863   5.472  1.00  0.00     0.141 C 
HETATM   10  H   UNL     1      40.500 -13.383   4.712  1.00  0.00     0.166 HD
HETATM   11  C   UNL     1      41.075 -15.914   6.188  1.00  0.00     0.055 C 
HETATM   12  C   UNL     1      43.084 -14.472   6.432  1.00  0.00     0.279 C 
HETATM   13  O   UNL     1      43.915 -15.237   6.908  1.00  0.00    -0.268 OA
BRANCH   9  14
HETATM   14  C   UNL     1      42.371 -15.298   4.076  1.00  0.00    -0.021 A 
HETATM   15  C   UNL     1      42.904 -14.350   3.178  1.00  0.00     0.010 A 
HETATM   16  C   UNL     1      43.342 -14.723   1.905  1.00  0.00     0.001 A 
HETATM   17  C   UNL     1      43.266 -16.052   1.503  1.00  0.00     0.000 A 
HETATM   18  C   UNL     1      42.755 -17.007   2.376  1.00  0.00     0.001 A 
HETATM   19  C   UNL     1      42.315 -16.637   3.651  1.00  0.00     0.010 A 
ENDBRANCH   9  14
ENDBRANCH   1   5
BRANCH   2  20
HETATM   20  C   UNL     1      45.760 -10.823   7.552  1.00  0.00     0.227 C 
BRANCH  20  21
HETATM   21  N   UNL     1      45.036 -10.281   8.686  1.00  0.00    -0.348 N 
HETATM   22  C   UNL     1      44.989  -8.920   8.901  1.00  0.00     0.252 C 
HETATM   23  O   UNL     1      45.643  -8.143   8.210  1.00  0.00    -0.268 OA
HETATM   24  H   UNL     1      44.442 -10.916   9.200  1.00  0.00     0.163 HD
BRANCH  22  25
HETATM   25  C   UNL     1      44.093  -8.418   9.987  1.00  0.00     0.033 A 
HETATM   26  C   UNL     1      43.290  -7.280   9.844  1.00  0.00     0.036 A 
HETATM   27  C   UNL     1      42.505  -6.849  10.917  1.00  0.00     0.012 A 
HETATM   28 BR   UNL     1      41.440  -5.296  10.730  1.00  0.00    -0.051 Br
HETATM   29  C   UNL     1      42.496  -7.546  12.123  1.00  0.00     0.019 A 
HETATM   30  C   UNL     1      43.276  -8.693  12.261  1.00  0.00     0.002 A 
HETATM   31  C   UNL     1      44.070  -9.128  11.197  1.00  0.00     0.017 A 
ENDBRANCH  22  25
ENDBRANCH  20  21
ENDBRANCH   2  20
TORSDOF 5
ENDMDL
MODEL 3
REMARK VINA RESULT:      -9.0      6.196      8.938
REMARK  5 active torsions:
REMARK  status: ('A' for Active; 'I' for Inactive)
REMARK    1  A    between atoms: C_2  and  C_3 
REMARK    2  A    between atoms: N_12  and  N_13 
REMARK       I    between atoms: N_13  and  C_14 
REMARK    3  A    between atoms: C_14  and  C_15 
REMARK    4  A    between atoms: C_15  and  N_16 
REMARK       I    between atoms: N_16  and  C_17 
REMARK    5  A    between atoms: C_17  and  C_18 
ROOT
HETATM    1  N   UNL     1      41.016 -14.041   4.846  1.00  0.00    -0.255 N 
HETATM    2  C   UNL     1      40.273 -14.240   3.696  1.00  0.00     0.254 C 
HETATM    3  O   UNL     1      40.276 -15.275   3.034  1.00  0.00    -0.270 OA
HETATM    4  H   UNL     1      40.597 -13.445   5.568  1.00  0.00     0.191 HD
ENDROOT
BRANCH   1   5
HETATM    5  N   UNL     1      41.781 -15.102   5.304  1.00  0.00    -0.167 N 
HETATM    6  C   UNL     1      41.347 -16.018   6.220  1.00  0.00     0.345 C 
HETATM    7  N   UNL     1      42.366 -16.929   6.420  1.00  0.00    -0.319 N 
HETATM    8  O   UNL     1      40.270 -16.061   6.792  1.00  0.00    -0.245 OA
HETATM    9  C   UNL     1      43.470 -16.730   5.495  1.00  0.00     0.141 C 
HETATM   10  H   UNL     1      42.189 -17.778   6.938  1.00  0.00     0.166 HD
HETATM   11  C   UNL     1      44.774 -16.450   6.251  1.00  0.00     0.055 C 
HETATM   12  C   UNL     1      43.032 -15.405   4.821  1.00  0.00     0.279 C 
HETATM   13  O   UNL     1      43.691 -14.755   4.016  1.00  0.00    -0.268 OA
BRANCH   9  14
HETATM   14  C   UNL     1      43.566 -17.933   4.560  1.00  0.00    -0.021 A 
HETATM   15  C   UNL     1      43.992 -19.181   5.060  1.00  0.00     0.010 A 
HETATM   16  C   UNL     1      44.061 -20.308   4.237  1.00  0.00     0.001 A 
HETATM   17  C   UNL     1      43.696 -20.215   2.898  1.00  0.00     0.000 A 
HETATM   18  C   UNL     1      43.259 -18.998   2.385  1.00  0.00     0.001 A 
HETATM   19  C   UNL     1      43.190 -17.868   3.207  1.00  0.00     0.010 A 
ENDBRANCH   9  14
ENDBRANCH   1   5
BRANCH   2  20
HETATM   20  C   UNL     1      39.392 -13.043   3.344  1.00  0.00     0.227 C 
BRANCH  20  21
HETATM   21  N   UNL     1      38.856 -13.148   2.000  1.00  0.00    -0.348 N 
HETATM   22  C   UNL     1      39.624 -12.796   0.910  1.00  0.00     0.252 C 
HETATM   23  O   UNL     1      40.733 -12.285   1.051  1.00  0.00    -0.268 OA
HETATM   24  H   UNL     1      37.980 -13.638   1.890  1.00  0.00     0.163 HD
BRANCH  22  25
HETATM   25  C   UNL     1      39.076 -13.083  -0.449  1.00  0.00     0.033 A 
HETATM   26  C   UNL     1      38.120 -12.270  -1.071  1.00  0.00     0.036 A 
HETATM   27  C   UNL     1      37.625 -12.623  -2.330  1.00  0.00     0.012 A 
HETATM   28 BR   UNL     1      36.315 -11.536  -3.155  1.00  0.00    -0.051 Br
HETATM   29  C   UNL     1      38.083 -13.765  -2.984  1.00  0.00     0.019 A 
HETATM   30  C   UNL     1      39.051 -14.564  -2.379  1.00  0.00     0.002 A 
HETATM   31  C   UNL     1      39.546 -14.224  -1.117  1.00  0.00     0.017 A 
ENDBRANCH  22  25
ENDBRANCH  20  21
ENDBRANCH   2  20
TORSDOF 5
ENDMDL
MODEL 4
REMARK VINA RESULT:      -9.0      2.229      2.923
REMARK  5 active torsions:
REMARK  status: ('A' for Active; 'I' for Inactive)
REMARK    1  A    between atoms: C_2  and  C_3 
REMARK    2  A    between atoms: N_12  and  N_13 
REMARK       I    between atoms: N_13  and  C_14 
REMARK    3  A    between atoms: C_14  and  C_15 
REMARK    4  A    between atoms: C_15  and  N_16 
REMARK       I    between atoms: N_16  and  C_17 
REMARK    5  A    between atoms: C_17  and  C_18 
ROOT
HETATM    1  N   UNL     1      41.635 -12.607   5.149  1.00  0.00    -0.255 N 
HETATM    2  C   UNL     1      40.686 -11.639   4.871  1.00  0.00     0.254 C 
HETATM    3  O   UNL     1      40.164 -11.468   3.772  1.00  0.00    -0.270 OA
HETATM    4  H   UNL     1      41.618 -13.012   6.090  1.00  0.00     0.191 HD
ENDROOT
BRANCH   1   5
HETATM    5  N   UNL     1      41.985 -13.470   4.122  1.00  0.00    -0.167 N 
HETATM    6  C   UNL     1      43.016 -13.247   3.254  1.00  0.00     0.345 C 
HETATM    7  N   UNL     1      43.073 -14.319   2.384  1.00  0.00    -0.319 N 
HETATM    8  O   UNL     1      43.771 -12.289   3.208  1.00  0.00    -0.245 OA
HETATM    9  C   UNL     1      42.162 -15.386   2.767  1.00  0.00     0.141 C 
HETATM   10  H   UNL     1      43.866 -14.427   1.768  1.00  0.00     0.166 HD
HETATM   11  C   UNL     1      41.156 -15.674   1.647  1.00  0.00     0.055 C 
HETATM   12  C   UNL     1      41.390 -14.692   3.917  1.00  0.00     0.279 C 
HETATM   13  O   UNL     1      40.425 -15.154   4.517  1.00  0.00    -0.268 OA
BRANCH   9  14
HETATM   14  C   UNL     1      42.971 -16.614   3.177  1.00  0.00    -0.021 A 
HETATM   15  C   UNL     1      43.589 -16.660   4.443  1.00  0.00     0.010 A 
HETATM   16  C   UNL     1      44.310 -17.782   4.859  1.00  0.00     0.001 A 
HETATM   17  C   UNL     1      44.422 -18.887   4.022  1.00  0.00     0.000 A 
HETATM   18  C   UNL     1      43.810 -18.871   2.773  1.00  0.00     0.001 A 
HETATM   19  C   UNL     1      43.087 -17.748   2.355  1.00  0.00     0.010 A 
ENDBRANCH   9  14
ENDBRANCH   1   5
BRANCH   2  20
HETATM   20  C   UNL     1      40.303 -10.814   6.098  1.00  0.00     0.227 C 
BRANCH  20  21
HETATM   21  N   UNL     1      41.365 -10.795   7.086  1.00  0.00    -0.348 N 
HETATM   22  C   UNL     1      42.138  -9.667   7.262  1.00  0.00     0.252 C 
HETATM   23  O   UNL     1      42.024  -8.695   6.520  1.00  0.00    -0.268 OA
HETATM   24  H   UNL     1      41.400 -11.564   7.739  1.00  0.00     0.163 HD
BRANCH  22  25
HETATM   25  C   UNL     1      43.100  -9.655   8.405  1.00  0.00     0.033 A 
HETATM   26  C   UNL     1      42.781  -9.130   9.663  1.00  0.00     0.036 A 
HETATM   27  C   UNL     1      43.746  -9.119  10.673  1.00  0.00     0.012 A 
HETATM   28 BR   UNL     1      43.319  -8.386  12.364  1.00  0.00    -0.051 Br
HETATM   29  C   UNL     1      45.020  -9.639  10.452  1.00  0.00     0.019 A 
HETATM   30  C   UNL     1      45.334 -10.184   9.209  1.00  0.00     0.002 A 
HETATM   31  C   UNL     1      44.378 -10.193   8.189  1.00  0.00     0.017 A 
ENDBRANCH  22  25
ENDBRANCH  20  21
ENDBRANCH   2  20
TORSDOF 5
ENDMDL
MODEL 5
REMARK VINA RESULT:      -8.9      1.108      1.664
REMARK  5 active torsions:
REMARK  status: ('A' for Active; 'I' for Inactive)
REMARK    1  A    between atoms: C_2  and  C_3 
REMARK    2  A    between atoms: N_12  and  N_13 
REMARK       I    between atoms: N_13  and  C_14 
REMARK    3  A    between atoms: C_14  and  C_15 
REMARK    4  A    between atoms: C_15  and  N_16 
REMARK       I    between atoms: N_16  and  C_17 
REMARK    5  A    between atoms: C_17  and  C_18 
ROOT
HETATM    1  N   UNL     1      43.844 -12.677   5.966  1.00  0.00    -0.255 N 
HETATM    2  C   UNL     1      43.127 -11.653   6.559  1.00  0.00     0.254 C 
HETATM    3  O   UNL     1      41.946 -11.403   6.328  1.00  0.00    -0.270 OA
HETATM    4  H   UNL     1      44.564 -13.127   6.541  1.00  0.00     0.191 HD
ENDROOT
BRANCH   1   5
HETATM    5  N   UNL     1      43.166 -13.504   5.085  1.00  0.00    -0.167 N 
HETATM    6  C   UNL     1      43.130 -13.315   3.733  1.00  0.00     0.345 C 
HETATM    7  N   UNL     1      42.377 -14.335   3.184  1.00  0.00    -0.319 N 
HETATM    8  O   UNL     1      43.644 -12.419   3.082  1.00  0.00    -0.245 OA
HETATM    9  C   UNL     1      42.024 -15.346   4.168  1.00  0.00     0.141 C 
HETATM   10  H   UNL     1      42.364 -14.470   2.183  1.00  0.00     0.166 HD
HETATM   11  C   UNL     1      40.501 -15.487   4.284  1.00  0.00     0.055 C 
HETATM   12  C   UNL     1      42.526 -14.661   5.464  1.00  0.00     0.279 C 
HETATM   13  O   UNL     1      42.368 -15.078   6.606  1.00  0.00    -0.268 OA
BRANCH   9  14
HETATM   14  C   UNL     1      42.722 -16.657   3.814  1.00  0.00    -0.021 A 
HETATM   15  C   UNL     1      42.392 -17.331   2.620  1.00  0.00     0.010 A 
HETATM   16  C   UNL     1      43.034 -18.516   2.254  1.00  0.00     0.001 A 
HETATM   17  C   UNL     1      44.028 -19.050   3.068  1.00  0.00     0.000 A 
HETATM   18  C   UNL     1      44.380 -18.396   4.245  1.00  0.00     0.001 A 
HETATM   19  C   UNL     1      43.738 -17.209   4.613  1.00  0.00     0.010 A 
ENDBRANCH   9  14
ENDBRANCH   1   5
BRANCH   2  20
HETATM   20  C   UNL     1      43.944 -10.872   7.586  1.00  0.00     0.227 C 
BRANCH  20  21
HETATM   21  N   UNL     1      43.100 -10.279   8.606  1.00  0.00    -0.348 N 
HETATM   22  C   UNL     1      43.501 -10.263   9.924  1.00  0.00     0.252 C 
HETATM   23  O   UNL     1      44.521 -10.844  10.287  1.00  0.00    -0.268 OA
HETATM   24  H   UNL     1      42.307  -9.740   8.290  1.00  0.00     0.163 HD
BRANCH  22  25
HETATM   25  C   UNL     1      42.667  -9.493  10.896  1.00  0.00     0.033 A 
HETATM   26  C   UNL     1      43.216  -8.757  11.954  1.00  0.00     0.036 A 
HETATM   27  C   UNL     1      42.371  -8.091  12.845  1.00  0.00     0.012 A 
HETATM   28 BR   UNL     1      43.115  -7.120  14.287  1.00  0.00    -0.051 Br
HETATM   29  C   UNL     1      40.987  -8.135  12.687  1.00  0.00     0.019 A 
HETATM   30  C   UNL     1      40.438  -8.846  11.622  1.00  0.00     0.002 A 
HETATM   31  C   UNL     1      41.275  -9.522  10.730  1.00  0.00     0.017 A 
ENDBRANCH  22  25
ENDBRANCH  20  21
ENDBRANCH   2  20
TORSDOF 5
ENDMDL
MODEL 6
REMARK VINA RESULT:      -8.9      4.247      8.942
REMARK  5 active torsions:
REMARK  status: ('A' for Active; 'I' for Inactive)
REMARK    1  A    between atoms: C_2  and  C_3 
REMARK    2  A    between atoms: N_12  and  N_13 
REMARK       I    between atoms: N_13  and  C_14 
REMARK    3  A    between atoms: C_14  and  C_15 
REMARK    4  A    between atoms: C_15  and  N_16 
REMARK       I    between atoms: N_16  and  C_17 
REMARK    5  A    between atoms: C_17  and  C_18 
ROOT
HETATM    1  N   UNL     1      40.864 -13.267   3.933  1.00  0.00    -0.255 N 
HETATM    2  C   UNL     1      39.816 -13.176   3.035  1.00  0.00     0.254 C 
HETATM    3  O   UNL     1      38.975 -12.280   3.032  1.00  0.00    -0.270 OA
HETATM    4  H   UNL     1      41.740 -13.669   3.580  1.00  0.00     0.191 HD
ENDROOT
BRANCH   1   5
HETATM    5  N   UNL     1      40.996 -12.250   4.865  1.00  0.00    -0.167 N 
HETATM    6  C   UNL     1      40.391 -12.253   6.091  1.00  0.00     0.345 C 
HETATM    7  N   UNL     1      40.760 -11.094   6.745  1.00  0.00    -0.319 N 
HETATM    8  O   UNL     1      39.646 -13.096   6.562  1.00  0.00    -0.245 OA
HETATM    9  C   UNL     1      41.777 -10.352   6.017  1.00  0.00     0.141 C 
HETATM   10  H   UNL     1      40.551 -10.980   7.727  1.00  0.00     0.166 HD
HETATM   11  C   UNL     1      41.283  -8.942   5.672  1.00  0.00     0.055 C 
HETATM   12  C   UNL     1      41.822 -11.164   4.698  1.00  0.00     0.279 C 
HETATM   13  O   UNL     1      42.470 -10.875   3.698  1.00  0.00    -0.268 OA
BRANCH   9  14
HETATM   14  C   UNL     1      43.073 -10.352   6.824  1.00  0.00    -0.021 A 
HETATM   15  C   UNL     1      43.278  -9.383   7.828  1.00  0.00     0.010 A 
HETATM   16  C   UNL     1      44.440  -9.375   8.603  1.00  0.00     0.001 A 
HETATM   17  C   UNL     1      45.419 -10.342   8.400  1.00  0.00     0.000 A 
HETATM   18  C   UNL     1      45.234 -11.316   7.424  1.00  0.00     0.001 A 
HETATM   19  C   UNL     1      44.071 -11.325   6.647  1.00  0.00     0.010 A 
ENDBRANCH   9  14
ENDBRANCH   1   5
BRANCH   2  20
HETATM   20  C   UNL     1      39.829 -14.291   1.992  1.00  0.00     0.227 C 
BRANCH  20  21
HETATM   21  N   UNL     1      40.614 -15.430   2.432  1.00  0.00    -0.348 N 
HETATM   22  C   UNL     1      41.965 -15.492   2.169  1.00  0.00     0.252 C 
HETATM   23  O   UNL     1      42.517 -14.649   1.466  1.00  0.00    -0.268 OA
HETATM   24  H   UNL     1      40.171 -16.074   3.071  1.00  0.00     0.163 HD
BRANCH  22  25
HETATM   25  C   UNL     1      42.744 -16.605   2.791  1.00  0.00     0.033 A 
HETATM   26  C   UNL     1      42.895 -17.859   2.185  1.00  0.00     0.036 A 
HETATM   27  C   UNL     1      43.608 -18.864   2.845  1.00  0.00     0.012 A 
HETATM   28 BR   UNL     1      43.787 -20.565   2.036  1.00  0.00    -0.051 Br
HETATM   29  C   UNL     1      44.186 -18.631   4.091  1.00  0.00     0.019 A 
HETATM   30  C   UNL     1      44.059 -17.378   4.686  1.00  0.00     0.002 A 
HETATM   31  C   UNL     1      43.342 -16.368   4.038  1.00  0.00     0.017 A 
ENDBRANCH  22  25
ENDBRANCH  20  21
ENDBRANCH   2  20
TORSDOF 5
ENDMDL
MODEL 7
REMARK VINA RESULT:      -8.7      2.257      2.995
REMARK  5 active torsions:
REMARK  status: ('A' for Active; 'I' for Inactive)
REMARK    1  A    between atoms: C_2  and  C_3 
REMARK    2  A    between atoms: N_12  and  N_13 
REMARK       I    between atoms: N_13  and  C_14 
REMARK    3  A    between atoms: C_14  and  C_15 
REMARK    4  A    between atoms: C_15  and  N_16 
REMARK       I    between atoms: N_16  and  C_17 
REMARK    5  A    between atoms: C_17  and  C_18 
ROOT
HETATM    1  N   UNL     1      40.986 -12.151   4.922  1.00  0.00    -0.255 N 
HETATM    2  C   UNL     1      40.114 -11.473   5.755  1.00  0.00     0.254 C 
HETATM    3  O   UNL     1      39.101 -11.962   6.251  1.00  0.00    -0.270 OA
HETATM    4  H   UNL     1      41.977 -11.895   4.988  1.00  0.00     0.191 HD
ENDROOT
BRANCH   1   5
HETATM    5  N   UNL     1      40.720 -13.487   4.670  1.00  0.00    -0.167 N 
HETATM    6  C   UNL     1      40.022 -13.936   3.585  1.00  0.00     0.345 C 
HETATM    7  N   UNL     1      39.968 -15.315   3.660  1.00  0.00    -0.319 N 
HETATM    8  O   UNL     1      39.512 -13.280   2.692  1.00  0.00    -0.245 OA
HETATM    9  C   UNL     1      40.792 -15.839   4.737  1.00  0.00     0.141 C 
HETATM   10  H   UNL     1      39.636 -15.850   2.870  1.00  0.00     0.166 HD
HETATM   11  C   UNL     1      39.946 -16.641   5.733  1.00  0.00     0.055 C 
HETATM   12  C   UNL     1      41.206 -14.520   5.437  1.00  0.00     0.279 C 
HETATM   13  O   UNL     1      41.839 -14.429   6.483  1.00  0.00    -0.268 OA
BRANCH   9  14
HETATM   14  C   UNL     1      41.943 -16.646   4.142  1.00  0.00    -0.021 A 
HETATM   15  C   UNL     1      42.967 -17.135   4.978  1.00  0.00     0.010 A 
HETATM   16  C   UNL     1      44.017 -17.903   4.468  1.00  0.00     0.001 A 
HETATM   17  C   UNL     1      44.062 -18.207   3.112  1.00  0.00     0.000 A 
HETATM   18  C   UNL     1      43.056 -17.747   2.269  1.00  0.00     0.001 A 
HETATM   19  C   UNL     1      42.004 -16.978   2.777  1.00  0.00     0.010 A 
ENDBRANCH   9  14
ENDBRANCH   1   5
BRANCH   2  20
HETATM   20  C   UNL     1      40.560 -10.042   6.045  1.00  0.00     0.227 C 
BRANCH  20  21
HETATM   21  N   UNL     1      41.414  -9.972   7.216  1.00  0.00    -0.348 N 
HETATM   22  C   UNL     1      42.758 -10.261   7.120  1.00  0.00     0.252 C 
HETATM   23  O   UNL     1      43.244 -10.690   6.076  1.00  0.00    -0.268 OA
HETATM   24  H   UNL     1      41.024  -9.547   8.045  1.00  0.00     0.163 HD
BRANCH  22  25
HETATM   25  C   UNL     1      43.611 -10.010   8.321  1.00  0.00     0.033 A 
HETATM   26  C   UNL     1      43.098  -9.522   9.529  1.00  0.00     0.036 A 
HETATM   27  C   UNL     1      43.964  -9.276  10.598  1.00  0.00     0.012 A 
HETATM   28 BR   UNL     1      43.271  -8.592  12.220  1.00  0.00    -0.051 Br
HETATM   29  C   UNL     1      45.329  -9.526  10.486  1.00  0.00     0.019 A 
HETATM   30  C   UNL     1      45.840 -10.035   9.293  1.00  0.00     0.002 A 
HETATM   31  C   UNL     1      44.984 -10.277   8.215  1.00  0.00     0.017 A 
ENDBRANCH  22  25
ENDBRANCH  20  21
ENDBRANCH   2  20
TORSDOF 5
ENDMDL
MODEL 8
REMARK VINA RESULT:      -8.6      6.938      9.399
REMARK  5 active torsions:
REMARK  status: ('A' for Active; 'I' for Inactive)
REMARK    1  A    between atoms: C_2  and  C_3 
REMARK    2  A    between atoms: N_12  and  N_13 
REMARK       I    between atoms: N_13  and  C_14 
REMARK    3  A    between atoms: C_14  and  C_15 
REMARK    4  A    between atoms: C_15  and  N_16 
REMARK       I    between atoms: N_16  and  C_17 
REMARK    5  A    between atoms: C_17  and  C_18 
ROOT
HETATM    1  N   UNL     1      41.239 -14.629   0.473  1.00  0.00    -0.255 N 
HETATM    2  C   UNL     1      40.994 -13.267   0.506  1.00  0.00     0.254 C 
HETATM    3  O   UNL     1      40.961 -12.588   1.530  1.00  0.00    -0.270 OA
HETATM    4  H   UNL     1      41.746 -14.986  -0.343  1.00  0.00     0.191 HD
ENDROOT
BRANCH   1   5
HETATM    5  N   UNL     1      41.510 -15.257   1.679  1.00  0.00    -0.167 N 
HETATM    6  C   UNL     1      40.549 -15.749   2.517  1.00  0.00     0.345 C 
HETATM    7  N   UNL     1      41.188 -16.314   3.604  1.00  0.00    -0.319 N 
HETATM    8  O   UNL     1      39.337 -15.713   2.380  1.00  0.00    -0.245 OA
HETATM    9  C   UNL     1      42.632 -16.358   3.430  1.00  0.00     0.141 C 
HETATM   10  H   UNL     1      40.665 -16.876   4.260  1.00  0.00     0.166 HD
HETATM   11  C   UNL     1      43.340 -15.580   4.546  1.00  0.00     0.055 C 
HETATM   12  C   UNL     1      42.780 -15.536   2.125  1.00  0.00     0.279 C 
HETATM   13  O   UNL     1      43.837 -15.198   1.605  1.00  0.00    -0.268 OA
BRANCH   9  14
HETATM   14  C   UNL     1      43.082 -17.814   3.336  1.00  0.00    -0.021 A 
HETATM   15  C   UNL     1      42.837 -18.552   2.159  1.00  0.00     0.010 A 
HETATM   16  C   UNL     1      43.263 -19.876   2.031  1.00  0.00     0.001 A 
HETATM   17  C   UNL     1      43.952 -20.490   3.071  1.00  0.00     0.000 A 
HETATM   18  C   UNL     1      44.217 -19.778   4.237  1.00  0.00     0.001 A 
HETATM   19  C   UNL     1      43.791 -18.452   4.368  1.00  0.00     0.010 A 
ENDBRANCH   9  14
ENDBRANCH   1   5
BRANCH   2  20
HETATM   20  C   UNL     1      40.812 -12.663  -0.885  1.00  0.00     0.227 C 
BRANCH  20  21
HETATM   21  N   UNL     1      39.705 -11.726  -0.923  1.00  0.00    -0.348 N 
HETATM   22  C   UNL     1      38.447 -12.144  -1.302  1.00  0.00     0.252 C 
HETATM   23  O   UNL     1      38.253 -13.282  -1.720  1.00  0.00    -0.268 OA
HETATM   24  H   UNL     1      39.855 -10.819  -0.506  1.00  0.00     0.163 HD
BRANCH  22  25
HETATM   25  C   UNL     1      37.320 -11.173  -1.161  1.00  0.00     0.033 A 
HETATM   26  C   UNL     1      36.548 -10.740  -2.246  1.00  0.00     0.036 A 
HETATM   27  C   UNL     1      35.533  -9.801  -2.042  1.00  0.00     0.012 A 
HETATM   28 BR   UNL     1      34.509  -9.200  -3.515  1.00  0.00    -0.051 Br
HETATM   29  C   UNL     1      35.266  -9.301  -0.770  1.00  0.00     0.019 A 
HETATM   30  C   UNL     1      36.016  -9.747   0.317  1.00  0.00     0.002 A 
HETATM   31  C   UNL     1      37.038 -10.680   0.122  1.00  0.00     0.017 A 
ENDBRANCH  22  25
ENDBRANCH  20  21
ENDBRANCH   2  20
TORSDOF 5
ENDMDL
MODEL 9
REMARK VINA RESULT:      -8.5      2.772      3.766
REMARK  5 active torsions:
REMARK  status: ('A' for Active; 'I' for Inactive)
REMARK    1  A    between atoms: C_2  and  C_3 
REMARK    2  A    between atoms: N_12  and  N_13 
REMARK       I    between atoms: N_13  and  C_14 
REMARK    3  A    between atoms: C_14  and  C_15 
REMARK    4  A    between atoms: C_15  and  N_16 
REMARK       I    between atoms: N_16  and  C_17 
REMARK    5  A    between atoms: C_17  and  C_18 
ROOT
HETATM    1  N   UNL     1      42.588 -12.346   5.641  1.00  0.00    -0.255 N 
HETATM    2  C   UNL     1      43.304 -12.870   6.704  1.00  0.00     0.254 C 
HETATM    3  O   UNL     1      43.194 -14.021   7.120  1.00  0.00    -0.270 OA
HETATM    4  H   UNL     1      43.069 -11.650   5.061  1.00  0.00     0.191 HD
ENDROOT
BRANCH   1   5
HETATM    5  N   UNL     1      41.721 -13.198   4.975  1.00  0.00    -0.167 N 
HETATM    6  C   UNL     1      40.388 -13.305   5.257  1.00  0.00     0.345 C 
HETATM    7  N   UNL     1      39.847 -14.233   4.388  1.00  0.00    -0.319 N 
HETATM    8  O   UNL     1      39.749 -12.718   6.115  1.00  0.00    -0.245 OA
HETATM    9  C   UNL     1      40.799 -14.654   3.372  1.00  0.00     0.141 C 
HETATM   10  H   UNL     1      38.845 -14.338   4.323  1.00  0.00     0.166 HD
HETATM   11  C   UNL     1      41.031 -16.168   3.434  1.00  0.00     0.055 C 
HETATM   12  C   UNL     1      42.085 -13.966   3.895  1.00  0.00     0.279 C 
HETATM   13  O   UNL     1      43.212 -14.098   3.429  1.00  0.00    -0.268 OA
BRANCH   9  14
HETATM   14  C   UNL     1      40.318 -14.177   2.004  1.00  0.00    -0.021 A 
HETATM   15  C   UNL     1      40.291 -15.072   0.915  1.00  0.00     0.010 A 
HETATM   16  C   UNL     1      39.827 -14.674  -0.341  1.00  0.00     0.001 A 
HETATM   17  C   UNL     1      39.371 -13.375  -0.535  1.00  0.00     0.000 A 
HETATM   18  C   UNL     1      39.376 -12.476   0.528  1.00  0.00     0.001 A 
HETATM   19  C   UNL     1      39.840 -12.873   1.786  1.00  0.00     0.010 A 
ENDBRANCH   9  14
ENDBRANCH   1   5
BRANCH   2  20
HETATM   20  C   UNL     1      44.301 -11.876   7.295  1.00  0.00     0.227 C 
BRANCH  20  21
HETATM   21  N   UNL     1      43.692 -11.048   8.319  1.00  0.00    -0.348 N 
HETATM   22  C   UNL     1      44.459 -10.504   9.327  1.00  0.00     0.252 C 
HETATM   23  O   UNL     1      45.647 -10.792   9.450  1.00  0.00    -0.268 OA
HETATM   24  H   UNL     1      42.738 -10.756   8.167  1.00  0.00     0.163 HD
BRANCH  22  25
HETATM   25  C   UNL     1      43.804  -9.529  10.250  1.00  0.00     0.033 A 
HETATM   26  C   UNL     1      43.471  -8.224   9.867  1.00  0.00     0.036 A 
HETATM   27  C   UNL     1      42.893  -7.356  10.798  1.00  0.00     0.012 A 
HETATM   28 BR   UNL     1      42.468  -5.586  10.284  1.00  0.00    -0.051 Br
HETATM   29  C   UNL     1      42.626  -7.776  12.099  1.00  0.00     0.019 A 
HETATM   30  C   UNL     1      42.934  -9.082  12.478  1.00  0.00     0.002 A 
HETATM   31  C   UNL     1      43.520  -9.955  11.556  1.00  0.00     0.017 A 
ENDBRANCH  22  25
ENDBRANCH  20  21
ENDBRANCH   2  20
TORSDOF 5
ENDMDL
MODEL 10
REMARK VINA RESULT:      -8.4      6.615      9.183
REMARK  5 active torsions:
REMARK  status: ('A' for Active; 'I' for Inactive)
REMARK    1  A    between atoms: C_2  and  C_3 
REMARK    2  A    between atoms: N_12  and  N_13 
REMARK       I    between atoms: N_13  and  C_14 
REMARK    3  A    between atoms: C_14  and  C_15 
REMARK    4  A    between atoms: C_15  and  N_16 
REMARK       I    between atoms: N_16  and  C_17 
REMARK    5  A    between atoms: C_17  and  C_18 
ROOT
HETATM    1  N   UNL     1      41.219 -14.674   0.388  1.00  0.00    -0.255 N 
HETATM    2  C   UNL     1      40.929 -13.321   0.382  1.00  0.00     0.254 C 
HETATM    3  O   UNL     1      40.862 -12.617   1.387  1.00  0.00    -0.270 OA
HETATM    4  H   UNL     1      41.746 -15.035  -0.414  1.00  0.00     0.191 HD
ENDROOT
BRANCH   1   5
HETATM    5  N   UNL     1      41.497 -15.262   1.612  1.00  0.00    -0.167 N 
HETATM    6  C   UNL     1      40.542 -15.729   2.470  1.00  0.00     0.345 C 
HETATM    7  N   UNL     1      41.188 -16.255   3.572  1.00  0.00    -0.319 N 
HETATM    8  O   UNL     1      39.330 -15.702   2.338  1.00  0.00    -0.245 OA
HETATM    9  C   UNL     1      42.631 -16.301   3.394  1.00  0.00     0.141 C 
HETATM   10  H   UNL     1      40.670 -16.798   4.249  1.00  0.00     0.166 HD
HETATM   11  C   UNL     1      43.342 -15.485   4.479  1.00  0.00     0.055 C 
HETATM   12  C   UNL     1      42.770 -15.522   2.061  1.00  0.00     0.279 C 
HETATM   13  O   UNL     1      43.824 -15.198   1.525  1.00  0.00    -0.268 OA
BRANCH   9  14
HETATM   14  C   UNL     1      43.085 -17.757   3.345  1.00  0.00    -0.021 A 
HETATM   15  C   UNL     1      42.855 -18.529   2.187  1.00  0.00     0.010 A 
HETATM   16  C   UNL     1      43.286 -19.855   2.101  1.00  0.00     0.001 A 
HETATM   17  C   UNL     1      43.965 -20.437   3.165  1.00  0.00     0.000 A 
HETATM   18  C   UNL     1      44.216 -19.692   4.313  1.00  0.00     0.001 A 
HETATM   19  C   UNL     1      43.785 -18.364   4.402  1.00  0.00     0.010 A 
ENDBRANCH   9  14
ENDBRANCH   1   5
BRANCH   2  20
HETATM   20  C   UNL     1      40.742 -12.760  -1.026  1.00  0.00     0.227 C 
BRANCH  20  21
HETATM   21  N   UNL     1      41.064 -11.347  -1.088  1.00  0.00    -0.348 N 
HETATM   22  C   UNL     1      41.084 -10.686  -2.298  1.00  0.00     0.252 C 
HETATM   23  O   UNL     1      40.941 -11.293  -3.357  1.00  0.00    -0.268 OA
HETATM   24  H   UNL     1      41.103 -10.845  -0.213  1.00  0.00     0.163 HD
BRANCH  22  25
HETATM   25  C   UNL     1      41.258  -9.203  -2.278  1.00  0.00     0.033 A 
HETATM   26  C   UNL     1      41.243  -8.451  -1.096  1.00  0.00     0.036 A 
HETATM   27  C   UNL     1      41.376  -7.061  -1.159  1.00  0.00     0.012 A 
HETATM   28 BR   UNL     1      41.330  -6.047   0.438  1.00  0.00    -0.051 Br
HETATM   29  C   UNL     1      41.539  -6.412  -2.380  1.00  0.00     0.019 A 
HETATM   30  C   UNL     1      41.578  -7.159  -3.557  1.00  0.00     0.002 A 
HETATM   31  C   UNL     1      41.439  -8.548  -3.505  1.00  0.00     0.017 A 
ENDBRANCH  22  25
ENDBRANCH  20  21
ENDBRANCH   2  20
TORSDOF 5
ENDMDL
