MODEL 1
REMARK VINA RESULT:      -7.2      0.000      0.000
REMARK  5 active torsions:
REMARK  status: ('A' for Active; 'I' for Inactive)
REMARK    1  A    between atoms: C_2  and  C_3 
REMARK    2  A    between atoms: C_3  and  N_4 
REMARK    3  A    between atoms: C_10  and  C_11 
REMARK       I    between atoms: C_11  and  N_12 
REMARK    4  A    between atoms: N_12  and  C_13 
REMARK    5  A    between atoms: C_14  and  O_15 
ROOT
HETATM    1  C   UNL     1      42.709 -15.263   2.183  1.00  0.00     0.256 C 
HETATM    2  N   UNL     1      41.390 -15.228   1.792  1.00  0.00    -0.320 N 
HETATM    3  O   UNL     1      43.524 -14.371   1.970  1.00  0.00    -0.267 OA
HETATM    4  H   UNL     1      40.782 -15.952   2.145  1.00  0.00     0.169 HD
ENDROOT
BRANCH   1   5
HETATM    5  C   UNL     1      43.188 -16.478   2.928  1.00  0.00     0.032 A 
HETATM    6  C   UNL     1      43.521 -16.492   4.287  1.00  0.00     0.017 A 
HETATM    7  C   UNL     1      43.907 -17.687   4.914  1.00  0.00     0.010 A 
HETATM    8  C   UNL     1      43.949 -18.895   4.203  1.00  0.00    -0.033 A 
HETATM    9  C   UNL     1      43.622 -18.881   2.841  1.00  0.00     0.010 A 
HETATM   10  C   UNL     1      43.250 -17.687   2.215  1.00  0.00     0.017 A 
BRANCH   8  11
HETATM   11  C   UNL     1      44.337 -20.178   4.878  1.00  0.00     0.268 C 
BRANCH  11  12
HETATM   12  N   UNL     1      44.043 -21.352   4.028  1.00  0.00    -0.075 N 
HETATM   13  H   UNL     1      43.073 -21.666   4.156  1.00  0.00     0.274 HD
HETATM   14  H   UNL     1      44.156 -21.119   3.033  1.00  0.00     0.274 HD
HETATM   15  H   UNL     1      44.663 -22.140   4.245  1.00  0.00     0.274 HD
ENDBRANCH  11  12
ENDBRANCH   8  11
ENDBRANCH   1   5
BRANCH   2  16
HETATM   16  C   UNL     1      40.723 -14.284   0.959  1.00  0.00     0.069 A 
HETATM   17  C   UNL     1      40.622 -12.896   1.141  1.00  0.00     0.092 A 
HETATM   18  C   UNL     1      39.967 -12.092   0.199  1.00  0.00     0.040 A 
HETATM   19  C   UNL     1      39.397 -12.652  -0.941  1.00  0.00     0.022 A 
HETATM   20  C   UNL     1      39.483 -14.023  -1.133  1.00  0.00     0.013 A 
HETATM   21 BR   UNL     1      38.721 -14.805  -2.677  1.00  0.00    -0.051 Br
HETATM   22  C   UNL     1      40.138 -14.832  -0.198  1.00  0.00     0.051 A 
BRANCH  17  23
HETATM   23  O   UNL     1      41.133 -12.187   2.188  1.00  0.00    -0.358 OA
HETATM   24  H   UNL     1      41.265 -12.790   2.949  1.00  0.00     0.218 HD
ENDBRANCH  17  23
ENDBRANCH   2  16
TORSDOF 5
ENDMDL
MODEL 2
REMARK VINA RESULT:      -7.0      4.361      5.379
REMARK  5 active torsions:
REMARK  status: ('A' for Active; 'I' for Inactive)
REMARK    1  A    between atoms: C_2  and  C_3 
REMARK    2  A    between atoms: C_3  and  N_4 
REMARK    3  A    between atoms: C_10  and  C_11 
REMARK       I    between atoms: C_11  and  N_12 
REMARK    4  A    between atoms: N_12  and  C_13 
REMARK    5  A    between atoms: C_14  and  O_15 
ROOT
HETATM    1  C   UNL     1      42.969 -15.036   3.833  1.00  0.00     0.256 C 
HETATM    2  N   UNL     1      43.229 -14.557   5.097  1.00  0.00    -0.320 N 
HETATM    3  O   UNL     1      42.609 -14.343   2.885  1.00  0.00    -0.267 OA
HETATM    4  H   UNL     1      43.654 -15.193   5.755  1.00  0.00     0.169 HD
ENDROOT
BRANCH   1   5
HETATM    5  C   UNL     1      43.140 -16.509   3.591  1.00  0.00     0.032 A 
HETATM    6  C   UNL     1      42.734 -17.171   2.426  1.00  0.00     0.017 A 
HETATM    7  C   UNL     1      42.985 -18.543   2.262  1.00  0.00     0.010 A 
HETATM    8  C   UNL     1      43.664 -19.275   3.246  1.00  0.00    -0.033 A 
HETATM    9  C   UNL     1      44.066 -18.614   4.414  1.00  0.00     0.010 A 
HETATM   10  C   UNL     1      43.803 -17.252   4.582  1.00  0.00     0.017 A 
BRANCH   8  11
HETATM   11  C   UNL     1      43.956 -20.736   3.061  1.00  0.00     0.268 C 
BRANCH  11  12
HETATM   12  N   UNL     1      44.117 -21.428   4.357  1.00  0.00    -0.075 N 
HETATM   13  H   UNL     1      43.509 -21.015   5.074  1.00  0.00     0.274 HD
HETATM   14  H   UNL     1      43.859 -22.420   4.275  1.00  0.00     0.274 HD
HETATM   15  H   UNL     1      45.085 -21.376   4.694  1.00  0.00     0.274 HD
ENDBRANCH  11  12
ENDBRANCH   8  11
ENDBRANCH   1   5
BRANCH   2  16
HETATM   16  C   UNL     1      43.007 -13.255   5.630  1.00  0.00     0.069 A 
HETATM   17  C   UNL     1      41.830 -12.493   5.576  1.00  0.00     0.092 A 
HETATM   18  C   UNL     1      41.756 -11.237   6.195  1.00  0.00     0.040 A 
HETATM   19  C   UNL     1      42.852 -10.714   6.876  1.00  0.00     0.022 A 
HETATM   20  C   UNL     1      44.024 -11.453   6.934  1.00  0.00     0.013 A 
HETATM   21 BR   UNL     1      45.523 -10.765   7.858  1.00  0.00    -0.051 Br
HETATM   22  C   UNL     1      44.104 -12.708   6.321  1.00  0.00     0.051 A 
BRANCH  17  23
HETATM   23  O   UNL     1      40.666 -12.858   4.966  1.00  0.00    -0.358 OA
HETATM   24  H   UNL     1      40.728 -13.798   4.697  1.00  0.00     0.218 HD
ENDBRANCH  17  23
ENDBRANCH   2  16
TORSDOF 5
ENDMDL
MODEL 3
REMARK VINA RESULT:      -6.9      3.289      3.699
REMARK  5 active torsions:
REMARK  status: ('A' for Active; 'I' for Inactive)
REMARK    1  A    between atoms: C_2  and  C_3 
REMARK    2  A    between atoms: C_3  and  N_4 
REMARK    3  A    between atoms: C_10  and  C_11 
REMARK       I    between atoms: C_11  and  N_12 
REMARK    4  A    between atoms: N_12  and  C_13 
REMARK    5  A    between atoms: C_14  and  O_15 
ROOT
HETATM    1  C   UNL     1      42.743 -15.242   3.230  1.00  0.00     0.256 C 
HETATM    2  N   UNL     1      41.677 -14.814   3.990  1.00  0.00    -0.320 N 
HETATM    3  O   UNL     1      43.388 -14.528   2.468  1.00  0.00    -0.267 OA
HETATM    4  H   UNL     1      41.317 -15.451   4.683  1.00  0.00     0.169 HD
ENDROOT
BRANCH   1   5
HETATM    5  C   UNL     1      43.150 -16.684   3.342  1.00  0.00     0.032 A 
HETATM    6  C   UNL     1      43.734 -17.255   4.480  1.00  0.00     0.017 A 
HETATM    7  C   UNL     1      44.031 -18.627   4.516  1.00  0.00     0.010 A 
HETATM    8  C   UNL     1      43.734 -19.459   3.427  1.00  0.00    -0.033 A 
HETATM    9  C   UNL     1      43.155 -18.887   2.287  1.00  0.00     0.010 A 
HETATM   10  C   UNL     1      42.872 -17.519   2.247  1.00  0.00     0.017 A 
BRANCH   8  11
HETATM   11  C   UNL     1      44.027 -20.930   3.474  1.00  0.00     0.268 C 
BRANCH  11  12
HETATM   12  N   UNL     1      44.054 -21.436   4.864  1.00  0.00    -0.075 N 
HETATM   13  H   UNL     1      44.674 -20.865   5.451  1.00  0.00     0.274 HD
HETATM   14  H   UNL     1      43.117 -21.397   5.284  1.00  0.00     0.274 HD
HETATM   15  H   UNL     1      44.384 -22.407   4.905  1.00  0.00     0.274 HD
ENDBRANCH  11  12
ENDBRANCH   8  11
ENDBRANCH   1   5
BRANCH   2  16
HETATM   16  C   UNL     1      41.000 -13.561   3.965  1.00  0.00     0.069 A 
HETATM   17  C   UNL     1      39.778 -13.256   3.346  1.00  0.00     0.092 A 
HETATM   18  C   UNL     1      39.216 -11.976   3.453  1.00  0.00     0.040 A 
HETATM   19  C   UNL     1      39.860 -10.975   4.175  1.00  0.00     0.022 A 
HETATM   20  C   UNL     1      41.071 -11.259   4.788  1.00  0.00     0.013 A 
HETATM   21 BR   UNL     1      41.961  -9.916   5.778  1.00  0.00    -0.051 Br
HETATM   22  C   UNL     1      41.637 -12.534   4.687  1.00  0.00     0.051 A 
BRANCH  17  23
HETATM   23  O   UNL     1      39.013 -14.117   2.616  1.00  0.00    -0.358 OA
HETATM   24  H   UNL     1      38.331 -14.510   3.199  1.00  0.00     0.218 HD
ENDBRANCH  17  23
ENDBRANCH   2  16
TORSDOF 5
ENDMDL
MODEL 4
REMARK VINA RESULT:      -6.9      2.884      7.256
REMARK  5 active torsions:
REMARK  status: ('A' for Active; 'I' for Inactive)
REMARK    1  A    between atoms: C_2  and  C_3 
REMARK    2  A    between atoms: C_3  and  N_4 
REMARK    3  A    between atoms: C_10  and  C_11 
REMARK       I    between atoms: C_11  and  N_12 
REMARK    4  A    between atoms: N_12  and  C_13 
REMARK    5  A    between atoms: C_14  and  O_15 
ROOT
HETATM    1  C   UNL     1      41.030 -15.158   1.899  1.00  0.00     0.256 C 
HETATM    2  N   UNL     1      42.325 -15.624   1.898  1.00  0.00    -0.320 N 
HETATM    3  O   UNL     1      40.207 -15.383   2.781  1.00  0.00    -0.267 OA
HETATM    4  H   UNL     1      42.949 -15.258   1.196  1.00  0.00     0.169 HD
ENDROOT
BRANCH   1   5
HETATM    5  C   UNL     1      40.589 -14.310   0.739  1.00  0.00     0.032 A 
HETATM    6  C   UNL     1      40.958 -12.972   0.552  1.00  0.00     0.017 A 
HETATM    7  C   UNL     1      40.544 -12.272  -0.593  1.00  0.00     0.010 A 
HETATM    8  C   UNL     1      39.771 -12.898  -1.582  1.00  0.00    -0.033 A 
HETATM    9  C   UNL     1      39.397 -14.234  -1.392  1.00  0.00     0.010 A 
HETATM   10  C   UNL     1      39.798 -14.926  -0.246  1.00  0.00     0.017 A 
BRANCH   8  11
HETATM   11  C   UNL     1      39.350 -12.158  -2.818  1.00  0.00     0.268 C 
BRANCH  11  12
HETATM   12  N   UNL     1      38.036 -12.625  -3.311  1.00  0.00    -0.075 N 
HETATM   13  H   UNL     1      37.827 -12.227  -4.234  1.00  0.00     0.274 HD
HETATM   14  H   UNL     1      38.027 -13.647  -3.412  1.00  0.00     0.274 HD
HETATM   15  H   UNL     1      37.278 -12.359  -2.672  1.00  0.00     0.274 HD
ENDBRANCH  11  12
ENDBRANCH   8  11
ENDBRANCH   1   5
BRANCH   2  16
HETATM   16  C   UNL     1      42.947 -16.553   2.781  1.00  0.00     0.069 A 
HETATM   17  C   UNL     1      43.359 -16.338   4.106  1.00  0.00     0.092 A 
HETATM   18  C   UNL     1      43.916 -17.377   4.864  1.00  0.00     0.040 A 
HETATM   19  C   UNL     1      44.078 -18.648   4.320  1.00  0.00     0.022 A 
HETATM   20  C   UNL     1      43.681 -18.874   3.011  1.00  0.00     0.013 A 
HETATM   21 BR   UNL     1      43.886 -20.595   2.252  1.00  0.00    -0.051 Br
HETATM   22  C   UNL     1      43.121 -17.844   2.248  1.00  0.00     0.051 A 
BRANCH  17  23
HETATM   23  O   UNL     1      43.261 -15.164   4.794  1.00  0.00    -0.358 OA
HETATM   24  H   UNL     1      42.625 -15.278   5.530  1.00  0.00     0.218 HD
ENDBRANCH  17  23
ENDBRANCH   2  16
TORSDOF 5
ENDMDL
MODEL 5
REMARK VINA RESULT:      -6.9      0.823      1.371
REMARK  5 active torsions:
REMARK  status: ('A' for Active; 'I' for Inactive)
REMARK    1  A    between atoms: C_2  and  C_3 
REMARK    2  A    between atoms: C_3  and  N_4 
REMARK    3  A    between atoms: C_10  and  C_11 
REMARK       I    between atoms: C_11  and  N_12 
REMARK    4  A    between atoms: N_12  and  C_13 
REMARK    5  A    between atoms: C_14  and  O_15 
ROOT
HETATM    1  C   UNL     1      42.157 -15.128   1.836  1.00  0.00     0.256 C 
HETATM    2  N   UNL     1      40.874 -15.187   1.342  1.00  0.00    -0.320 N 
HETATM    3  O   UNL     1      42.893 -14.148   1.754  1.00  0.00    -0.267 OA
HETATM    4  H   UNL     1      40.317 -15.990   1.593  1.00  0.00     0.169 HD
ENDROOT
BRANCH   1   5
HETATM    5  C   UNL     1      42.699 -16.346   2.529  1.00  0.00     0.032 A 
HETATM    6  C   UNL     1      42.740 -17.626   1.962  1.00  0.00     0.017 A 
HETATM    7  C   UNL     1      43.317 -18.698   2.662  1.00  0.00     0.010 A 
HETATM    8  C   UNL     1      43.882 -18.510   3.932  1.00  0.00    -0.033 A 
HETATM    9  C   UNL     1      43.837 -17.231   4.502  1.00  0.00     0.010 A 
HETATM   10  C   UNL     1      43.250 -16.168   3.809  1.00  0.00     0.017 A 
BRANCH   8  11
HETATM   11  C   UNL     1      44.522 -19.649   4.670  1.00  0.00     0.268 C 
BRANCH  11  12
HETATM   12  N   UNL     1      43.722 -20.054   5.846  1.00  0.00    -0.075 N 
HETATM   13  H   UNL     1      43.003 -19.352   6.061  1.00  0.00     0.274 HD
HETATM   14  H   UNL     1      43.236 -20.941   5.668  1.00  0.00     0.274 HD
HETATM   15  H   UNL     1      44.309 -20.172   6.680  1.00  0.00     0.274 HD
ENDBRANCH  11  12
ENDBRANCH   8  11
ENDBRANCH   1   5
BRANCH   2  16
HETATM   16  C   UNL     1      40.179 -14.247   0.527  1.00  0.00     0.069 A 
HETATM   17  C   UNL     1      39.964 -12.883   0.778  1.00  0.00     0.092 A 
HETATM   18  C   UNL     1      39.298 -12.076  -0.153  1.00  0.00     0.040 A 
HETATM   19  C   UNL     1      38.829 -12.609  -1.351  1.00  0.00     0.022 A 
HETATM   20  C   UNL     1      39.029 -13.956  -1.611  1.00  0.00     0.013 A 
HETATM   21 BR   UNL     1      38.405 -14.701  -3.234  1.00  0.00    -0.051 Br
HETATM   22  C   UNL     1      39.695 -14.768  -0.688  1.00  0.00     0.051 A 
BRANCH  17  23
HETATM   23  O   UNL     1      40.368 -12.200   1.888  1.00  0.00    -0.358 OA
HETATM   24  H   UNL     1      41.081 -11.578   1.638  1.00  0.00     0.218 HD
ENDBRANCH  17  23
ENDBRANCH   2  16
TORSDOF 5
ENDMDL
MODEL 6
REMARK VINA RESULT:      -6.7     10.474     12.046
REMARK  5 active torsions:
REMARK  status: ('A' for Active; 'I' for Inactive)
REMARK    1  A    between atoms: C_2  and  C_3 
REMARK    2  A    between atoms: C_3  and  N_4 
REMARK    3  A    between atoms: C_10  and  C_11 
REMARK       I    between atoms: C_11  and  N_12 
REMARK    4  A    between atoms: N_12  and  C_13 
REMARK    5  A    between atoms: C_14  and  O_15 
ROOT
HETATM    1  C   UNL     1      43.893 -10.305  11.133  1.00  0.00     0.256 C 
HETATM    2  N   UNL     1      44.015  -9.754   9.877  1.00  0.00    -0.320 N 
HETATM    3  O   UNL     1      44.337 -11.402  11.460  1.00  0.00    -0.267 OA
HETATM    4  H   UNL     1      43.737  -8.791   9.766  1.00  0.00     0.169 HD
ENDROOT
BRANCH   1   5
HETATM    5  C   UNL     1      43.170  -9.508  12.182  1.00  0.00     0.032 A 
HETATM    6  C   UNL     1      42.072  -9.977  12.914  1.00  0.00     0.017 A 
HETATM    7  C   UNL     1      41.492  -9.184  13.916  1.00  0.00     0.010 A 
HETATM    8  C   UNL     1      42.008  -7.915  14.222  1.00  0.00    -0.033 A 
HETATM    9  C   UNL     1      43.103  -7.444  13.486  1.00  0.00     0.010 A 
HETATM   10  C   UNL     1      43.671  -8.230  12.480  1.00  0.00     0.017 A 
BRANCH   8  11
HETATM   11  C   UNL     1      41.405  -7.077  15.311  1.00  0.00     0.268 C 
BRANCH  11  12
HETATM   12  N   UNL     1      42.445  -6.411  16.125  1.00  0.00    -0.075 N 
HETATM   13  H   UNL     1      42.996  -5.758  15.556  1.00  0.00     0.274 HD
HETATM   14  H   UNL     1      42.019  -5.866  16.885  1.00  0.00     0.274 HD
HETATM   15  H   UNL     1      43.091  -7.092  16.541  1.00  0.00     0.274 HD
ENDBRANCH  11  12
ENDBRANCH   8  11
ENDBRANCH   1   5
BRANCH   2  16
HETATM   16  C   UNL     1      44.511 -10.344   8.680  1.00  0.00     0.069 A 
HETATM   17  C   UNL     1      45.633  -9.956   7.930  1.00  0.00     0.092 A 
HETATM   18  C   UNL     1      46.021 -10.676   6.792  1.00  0.00     0.040 A 
HETATM   19  C   UNL     1      45.301 -11.791   6.374  1.00  0.00     0.022 A 
HETATM   20  C   UNL     1      44.187 -12.183   7.101  1.00  0.00     0.013 A 
HETATM   21 BR   UNL     1      43.196 -13.699   6.556  1.00  0.00    -0.051 Br
HETATM   22  C   UNL     1      43.794 -11.473   8.240  1.00  0.00     0.051 A 
BRANCH  17  23
HETATM   23  O   UNL     1      46.454  -8.902   8.205  1.00  0.00    -0.358 OA
HETATM   24  H   UNL     1      45.927  -8.185   8.614  1.00  0.00     0.218 HD
ENDBRANCH  17  23
ENDBRANCH   2  16
TORSDOF 5
ENDMDL
MODEL 7
REMARK VINA RESULT:      -6.6      2.756      3.575
REMARK  5 active torsions:
REMARK  status: ('A' for Active; 'I' for Inactive)
REMARK    1  A    between atoms: C_2  and  C_3 
REMARK    2  A    between atoms: C_3  and  N_4 
REMARK    3  A    between atoms: C_10  and  C_11 
REMARK       I    between atoms: C_11  and  N_12 
REMARK    4  A    between atoms: N_12  and  C_13 
REMARK    5  A    between atoms: C_14  and  O_15 
ROOT
HETATM    1  C   UNL     1      40.606 -14.573   0.208  1.00  0.00     0.256 C 
HETATM    2  N   UNL     1      41.166 -13.386  -0.207  1.00  0.00    -0.320 N 
HETATM    3  O   UNL     1      39.622 -15.098  -0.305  1.00  0.00    -0.267 OA
HETATM    4  H   UNL     1      42.053 -13.126   0.196  1.00  0.00     0.169 HD
ENDROOT
BRANCH   1   5
HETATM    5  C   UNL     1      41.244 -15.282   1.370  1.00  0.00     0.032 A 
HETATM    6  C   UNL     1      40.552 -15.722   2.504  1.00  0.00     0.017 A 
HETATM    7  C   UNL     1      41.221 -16.427   3.518  1.00  0.00     0.010 A 
HETATM    8  C   UNL     1      42.588 -16.723   3.410  1.00  0.00    -0.033 A 
HETATM    9  C   UNL     1      43.282 -16.278   2.278  1.00  0.00     0.010 A 
HETATM   10  C   UNL     1      42.617 -15.565   1.276  1.00  0.00     0.017 A 
BRANCH   8  11
HETATM   11  C   UNL     1      43.298 -17.499   4.481  1.00  0.00     0.268 C 
BRANCH  11  12
HETATM   12  N   UNL     1      44.218 -18.504   3.906  1.00  0.00    -0.075 N 
HETATM   13  H   UNL     1      44.663 -18.149   3.051  1.00  0.00     0.274 HD
HETATM   14  H   UNL     1      44.971 -18.730   4.569  1.00  0.00     0.274 HD
HETATM   15  H   UNL     1      43.726 -19.374   3.671  1.00  0.00     0.274 HD
ENDBRANCH  11  12
ENDBRANCH   8  11
ENDBRANCH   1   5
BRANCH   2  16
HETATM   16  C   UNL     1      40.683 -12.451  -1.167  1.00  0.00     0.069 A 
HETATM   17  C   UNL     1      40.829 -12.498  -2.563  1.00  0.00     0.092 A 
HETATM   18  C   UNL     1      40.250 -11.518  -3.380  1.00  0.00     0.040 A 
HETATM   19  C   UNL     1      39.517 -10.471  -2.827  1.00  0.00     0.022 A 
HETATM   20  C   UNL     1      39.368 -10.408  -1.450  1.00  0.00     0.013 A 
HETATM   21 BR   UNL     1      38.373  -8.999  -0.676  1.00  0.00    -0.051 Br
HETATM   22  C   UNL     1      39.941 -11.384  -0.627  1.00  0.00     0.051 A 
BRANCH  17  23
HETATM   23  O   UNL     1      41.499 -13.455  -3.266  1.00  0.00    -0.358 OA
HETATM   24  H   UNL     1      41.858 -14.118  -2.641  1.00  0.00     0.218 HD
ENDBRANCH  17  23
ENDBRANCH   2  16
TORSDOF 5
ENDMDL
MODEL 8
REMARK VINA RESULT:      -6.6      2.327      2.658
REMARK  5 active torsions:
REMARK  status: ('A' for Active; 'I' for Inactive)
REMARK    1  A    between atoms: C_2  and  C_3 
REMARK    2  A    between atoms: C_3  and  N_4 
REMARK    3  A    between atoms: C_10  and  C_11 
REMARK       I    between atoms: C_11  and  N_12 
REMARK    4  A    between atoms: N_12  and  C_13 
REMARK    5  A    between atoms: C_14  and  O_15 
ROOT
HETATM    1  C   UNL     1      40.740 -15.552   1.683  1.00  0.00     0.256 C 
HETATM    2  N   UNL     1      41.248 -14.739   0.694  1.00  0.00    -0.320 N 
HETATM    3  O   UNL     1      39.545 -15.701   1.918  1.00  0.00    -0.267 OA
HETATM    4  H   UNL     1      42.236 -14.806   0.502  1.00  0.00     0.169 HD
ENDROOT
BRANCH   1   5
HETATM    5  C   UNL     1      41.715 -16.315   2.534  1.00  0.00     0.032 A 
HETATM    6  C   UNL     1      41.693 -16.339   3.934  1.00  0.00     0.017 A 
HETATM    7  C   UNL     1      42.611 -17.126   4.648  1.00  0.00     0.010 A 
HETATM    8  C   UNL     1      43.555 -17.919   3.980  1.00  0.00    -0.033 A 
HETATM    9  C   UNL     1      43.581 -17.891   2.579  1.00  0.00     0.010 A 
HETATM   10  C   UNL     1      42.676 -17.097   1.871  1.00  0.00     0.017 A 
BRANCH   8  11
HETATM   11  C   UNL     1      44.520 -18.781   4.741  1.00  0.00     0.268 C 
BRANCH  11  12
HETATM   12  N   UNL     1      43.826 -19.631   5.732  1.00  0.00    -0.075 N 
HETATM   13  H   UNL     1      42.806 -19.538   5.647  1.00  0.00     0.274 HD
HETATM   14  H   UNL     1      44.053 -20.622   5.586  1.00  0.00     0.274 HD
HETATM   15  H   UNL     1      44.087 -19.380   6.693  1.00  0.00     0.274 HD
ENDBRANCH  11  12
ENDBRANCH   8  11
ENDBRANCH   1   5
BRANCH   2  16
HETATM   16  C   UNL     1      40.569 -13.808  -0.142  1.00  0.00     0.069 A 
HETATM   17  C   UNL     1      39.494 -14.056  -1.011  1.00  0.00     0.092 A 
HETATM   18  C   UNL     1      38.899 -13.015  -1.736  1.00  0.00     0.040 A 
HETATM   19  C   UNL     1      39.363 -11.708  -1.616  1.00  0.00     0.022 A 
HETATM   20  C   UNL     1      40.428 -11.447  -0.766  1.00  0.00     0.013 A 
HETATM   21 BR   UNL     1      41.072  -9.679  -0.581  1.00  0.00    -0.051 Br
HETATM   22  C   UNL     1      41.025 -12.480  -0.036  1.00  0.00     0.051 A 
BRANCH  17  23
HETATM   23  O   UNL     1      38.910 -15.268  -1.236  1.00  0.00    -0.358 OA
HETATM   24  H   UNL     1      38.299 -15.191  -1.998  1.00  0.00     0.218 HD
ENDBRANCH  17  23
ENDBRANCH   2  16
TORSDOF 5
ENDMDL
MODEL 9
REMARK VINA RESULT:      -6.6     13.801     14.911
REMARK  5 active torsions:
REMARK  status: ('A' for Active; 'I' for Inactive)
REMARK    1  A    between atoms: C_2  and  C_3 
REMARK    2  A    between atoms: C_3  and  N_4 
REMARK    3  A    between atoms: C_10  and  C_11 
REMARK       I    between atoms: C_11  and  N_12 
REMARK    4  A    between atoms: N_12  and  C_13 
REMARK    5  A    between atoms: C_14  and  O_15 
ROOT
HETATM    1  C   UNL     1      42.416 -29.454   1.284  1.00  0.00     0.256 C 
HETATM    2  N   UNL     1      43.595 -29.935   0.761  1.00  0.00    -0.320 N 
HETATM    3  O   UNL     1      41.903 -28.381   0.979  1.00  0.00    -0.267 OA
HETATM    4  H   UNL     1      43.844 -30.888   0.978  1.00  0.00     0.169 HD
ENDROOT
BRANCH   1   5
HETATM    5  C   UNL     1      41.701 -30.302   2.298  1.00  0.00     0.032 A 
HETATM    6  C   UNL     1      41.773 -30.108   3.682  1.00  0.00     0.017 A 
HETATM    7  C   UNL     1      41.025 -30.915   4.555  1.00  0.00     0.010 A 
HETATM    8  C   UNL     1      40.176 -31.917   4.062  1.00  0.00    -0.033 A 
HETATM    9  C   UNL     1      40.107 -32.115   2.678  1.00  0.00     0.010 A 
HETATM   10  C   UNL     1      40.863 -31.320   1.811  1.00  0.00     0.017 A 
BRANCH   8  11
HETATM   11  C   UNL     1      39.356 -32.763   4.993  1.00  0.00     0.268 C 
BRANCH  11  12
HETATM   12  N   UNL     1      37.967 -32.915   4.510  1.00  0.00    -0.075 N 
HETATM   13  H   UNL     1      37.884 -33.718   3.875  1.00  0.00     0.274 HD
HETATM   14  H   UNL     1      37.324 -33.081   5.294  1.00  0.00     0.274 HD
HETATM   15  H   UNL     1      37.649 -32.079   4.006  1.00  0.00     0.274 HD
ENDBRANCH  11  12
ENDBRANCH   8  11
ENDBRANCH   1   5
BRANCH   2  16
HETATM   16  C   UNL     1      44.535 -29.283  -0.088  1.00  0.00     0.069 A 
HETATM   17  C   UNL     1      45.637 -28.500   0.290  1.00  0.00     0.092 A 
HETATM   18  C   UNL     1      46.502 -27.962  -0.672  1.00  0.00     0.040 A 
HETATM   19  C   UNL     1      46.286 -28.188  -2.029  1.00  0.00     0.022 A 
HETATM   20  C   UNL     1      45.198 -28.954  -2.419  1.00  0.00     0.013 A 
HETATM   21 BR   UNL     1      44.888 -29.279  -4.256  1.00  0.00    -0.051 Br
HETATM   22  C   UNL     1      44.332 -29.497  -1.464  1.00  0.00     0.051 A 
BRANCH  17  23
HETATM   23  O   UNL     1      46.001 -28.193   1.569  1.00  0.00    -0.358 OA
HETATM   24  H   UNL     1      45.465 -27.435   1.880  1.00  0.00     0.218 HD
ENDBRANCH  17  23
ENDBRANCH   2  16
TORSDOF 5
ENDMDL
MODEL 10
REMARK VINA RESULT:      -6.2     16.140     17.564
REMARK  5 active torsions:
REMARK  status: ('A' for Active; 'I' for Inactive)
REMARK    1  A    between atoms: C_2  and  C_3 
REMARK    2  A    between atoms: C_3  and  N_4 
REMARK    3  A    between atoms: C_10  and  C_11 
REMARK       I    between atoms: C_11  and  N_12 
REMARK    4  A    between atoms: N_12  and  C_13 
REMARK    5  A    between atoms: C_14  and  O_15 
ROOT
HETATM    1  C   UNL     1      41.315  -6.772  15.747  1.00  0.00     0.256 C 
HETATM    2  N   UNL     1      41.967  -6.838  16.958  1.00  0.00    -0.320 N 
HETATM    3  O   UNL     1      40.337  -6.065  15.520  1.00  0.00    -0.267 OA
HETATM    4  H   UNL     1      42.840  -7.342  16.986  1.00  0.00     0.169 HD
ENDROOT
BRANCH   1   5
HETATM    5  C   UNL     1      41.835  -7.620  14.622  1.00  0.00     0.032 A 
HETATM    6  C   UNL     1      43.000  -7.343  13.896  1.00  0.00     0.017 A 
HETATM    7  C   UNL     1      43.442  -8.224  12.895  1.00  0.00     0.010 A 
HETATM    8  C   UNL     1      42.742  -9.406  12.613  1.00  0.00    -0.033 A 
HETATM    9  C   UNL     1      41.574  -9.680  13.335  1.00  0.00     0.010 A 
HETATM   10  C   UNL     1      41.128  -8.796  14.321  1.00  0.00     0.017 A 
BRANCH   8  11
HETATM   11  C   UNL     1      43.228 -10.360  11.562  1.00  0.00     0.268 C 
BRANCH  11  12
HETATM   12  N   UNL     1      43.607 -11.666  12.144  1.00  0.00    -0.075 N 
HETATM   13  H   UNL     1      43.191 -11.788  13.075  1.00  0.00     0.274 HD
HETATM   14  H   UNL     1      43.269 -12.438  11.557  1.00  0.00     0.274 HD
HETATM   15  H   UNL     1      44.625 -11.756  12.237  1.00  0.00     0.274 HD
ENDBRANCH  11  12
ENDBRANCH   8  11
ENDBRANCH   1   5
BRANCH   2  16
HETATM   16  C   UNL     1      41.602  -6.265  18.210  1.00  0.00     0.069 A 
HETATM   17  C   UNL     1      41.808  -4.947  18.646  1.00  0.00     0.092 A 
HETATM   18  C   UNL     1      41.343  -4.522  19.898  1.00  0.00     0.040 A 
HETATM   19  C   UNL     1      40.669  -5.400  20.742  1.00  0.00     0.022 A 
HETATM   20  C   UNL     1      40.463  -6.707  20.328  1.00  0.00     0.013 A 
HETATM   21 BR   UNL     1      39.544  -7.916  21.456  1.00  0.00    -0.051 Br
HETATM   22  C   UNL     1      40.921  -7.138  19.079  1.00  0.00     0.051 A 
BRANCH  17  23
HETATM   23  O   UNL     1      42.434  -3.960  17.943  1.00  0.00    -0.358 OA
HETATM   24  H   UNL     1      42.146  -4.002  17.008  1.00  0.00     0.218 HD
ENDBRANCH  17  23
ENDBRANCH   2  16
TORSDOF 5
ENDMDL
