MODEL 1
REMARK VINA RESULT:      -8.3      0.000      0.000
REMARK  6 active torsions:
REMARK  status: ('A' for Active; 'I' for Inactive)
REMARK    1  A    between atoms: C_2  and  C_3 
REMARK    2  A    between atoms: C_2  and  C_9 
REMARK    3  A    between atoms: C_9  and  N_10 
REMARK       I    between atoms: N_10  and  C_11 
REMARK    4  A    between atoms: C_11  and  C_12 
REMARK    5  A    between atoms: C_13  and  O_14 
REMARK    6  A    between atoms: O_14  and  C_15 
ROOT
HETATM    1  N   UNL     1      42.115 -14.994   2.577  1.00  0.00    -0.356 N 
HETATM    2  C   UNL     1      43.028 -16.023   2.544  1.00  0.00     0.254 C 
HETATM    3  O   UNL     1      43.625 -16.346   1.522  1.00  0.00    -0.268 OA
HETATM    4  H   UNL     1      41.627 -14.806   3.446  1.00  0.00     0.162 HD
ENDROOT
BRANCH   2   5
HETATM    5  C   UNL     1      43.264 -16.783   3.816  1.00  0.00     0.067 A 
HETATM    6  C   UNL     1      43.809 -18.082   3.890  1.00  0.00     0.090 A 
HETATM    7  C   UNL     1      44.028 -18.670   5.146  1.00  0.00     0.040 A 
HETATM    8  C   UNL     1      43.661 -18.003   6.316  1.00  0.00     0.026 A 
HETATM    9  C   UNL     1      43.087 -16.739   6.240  1.00  0.00     0.035 A 
HETATM   10 CL   UNL     1      42.632 -15.921   7.684  1.00  0.00    -0.084 Cl
HETATM   11  C   UNL     1      42.892 -16.129   5.005  1.00  0.00     0.043 A 
BRANCH   6  12
HETATM   12  O   UNL     1      44.168 -18.719   2.728  1.00  0.00    -0.289 OA
BRANCH  12  13
HETATM   13  C   UNL     1      43.427 -19.899   2.438  1.00  0.00     0.505 C 
HETATM   14  F   UNL     1      42.223 -19.498   1.956  1.00  0.00    -0.184 F 
HETATM   15  F   UNL     1      44.045 -20.562   1.430  1.00  0.00    -0.184 F 
ENDBRANCH  12  13
ENDBRANCH   6  12
ENDBRANCH   2   5
BRANCH   1  16
HETATM   16  C   UNL     1      41.809 -14.169   1.420  1.00  0.00     0.136 C 
BRANCH  16  17
HETATM   17  C   UNL     1      40.312 -14.236   0.979  1.00  0.00    -0.004 C 
HETATM   18  C   UNL     1      39.505 -13.283   1.894  1.00  0.00     0.021 C 
HETATM   19  C   UNL     1      39.800 -15.669   1.254  1.00  0.00     0.021 C 
BRANCH  17  20
HETATM   20  C   UNL     1      40.120 -13.945  -0.520  1.00  0.00    -0.046 A 
HETATM   21  C   UNL     1      39.373 -14.778  -1.365  1.00  0.00     0.027 A 
HETATM   22  C   UNL     1      39.261 -14.461  -2.714  1.00  0.00     0.116 A 
HETATM   23  N   UNL     1      39.831 -13.384  -3.288  1.00  0.00    -0.273 NA
HETATM   24  C   UNL     1      40.554 -12.590  -2.473  1.00  0.00     0.116 A 
HETATM   25  C   UNL     1      40.730 -12.830  -1.117  1.00  0.00     0.027 A 
ENDBRANCH  17  20
ENDBRANCH  16  17
ENDBRANCH   1  16
TORSDOF 6
ENDMDL
MODEL 2
REMARK VINA RESULT:      -8.2      3.996      5.319
REMARK  6 active torsions:
REMARK  status: ('A' for Active; 'I' for Inactive)
REMARK    1  A    between atoms: C_2  and  C_3 
REMARK    2  A    between atoms: C_2  and  C_9 
REMARK    3  A    between atoms: C_9  and  N_10 
REMARK       I    between atoms: N_10  and  C_11 
REMARK    4  A    between atoms: C_11  and  C_12 
REMARK    5  A    between atoms: C_13  and  O_14 
REMARK    6  A    between atoms: O_14  and  C_15 
ROOT
HETATM    1  N   UNL     1      41.144 -15.307   3.794  1.00  0.00    -0.356 N 
HETATM    2  C   UNL     1      42.194 -15.717   3.004  1.00  0.00     0.254 C 
HETATM    3  O   UNL     1      42.521 -15.125   1.980  1.00  0.00    -0.268 OA
HETATM    4  H   UNL     1      40.901 -15.865   4.605  1.00  0.00     0.162 HD
ENDROOT
BRANCH   2   5
HETATM    5  C   UNL     1      42.935 -16.953   3.419  1.00  0.00     0.067 A 
HETATM    6  C   UNL     1      43.601 -17.119   4.651  1.00  0.00     0.090 A 
HETATM    7  C   UNL     1      44.219 -18.345   4.943  1.00  0.00     0.040 A 
HETATM    8  C   UNL     1      44.227 -19.378   4.005  1.00  0.00     0.026 A 
HETATM    9  C   UNL     1      43.605 -19.199   2.774  1.00  0.00     0.035 A 
HETATM   10 CL   UNL     1      43.619 -20.473   1.618  1.00  0.00    -0.084 Cl
HETATM   11  C   UNL     1      42.960 -18.002   2.480  1.00  0.00     0.043 A 
BRANCH   6  12
HETATM   12  O   UNL     1      43.578 -16.093   5.562  1.00  0.00    -0.289 OA
BRANCH  12  13
HETATM   13  C   UNL     1      42.904 -16.387   6.780  1.00  0.00     0.505 C 
HETATM   14  F   UNL     1      42.804 -15.221   7.465  1.00  0.00    -0.184 F 
HETATM   15  F   UNL     1      41.637 -16.775   6.491  1.00  0.00    -0.184 F 
ENDBRANCH  12  13
ENDBRANCH   6  12
ENDBRANCH   2   5
BRANCH   1  16
HETATM   16  C   UNL     1      40.358 -14.117   3.514  1.00  0.00     0.136 C 
BRANCH  16  17
HETATM   17  C   UNL     1      40.498 -13.001   4.597  1.00  0.00    -0.004 C 
HETATM   18  C   UNL     1      40.013 -13.586   5.946  1.00  0.00     0.021 C 
HETATM   19  C   UNL     1      39.528 -11.855   4.226  1.00  0.00     0.021 C 
BRANCH  17  20
HETATM   20  C   UNL     1      41.918 -12.413   4.666  1.00  0.00    -0.046 A 
HETATM   21  C   UNL     1      42.638 -12.030   3.525  1.00  0.00     0.027 A 
HETATM   22  C   UNL     1      43.925 -11.525   3.664  1.00  0.00     0.116 A 
HETATM   23  N   UNL     1      44.553 -11.370   4.846  1.00  0.00    -0.273 NA
HETATM   24  C   UNL     1      43.860 -11.747   5.939  1.00  0.00     0.116 A 
HETATM   25  C   UNL     1      42.575 -12.269   5.898  1.00  0.00     0.027 A 
ENDBRANCH  17  20
ENDBRANCH  16  17
ENDBRANCH   1  16
TORSDOF 6
ENDMDL
MODEL 3
REMARK VINA RESULT:      -8.2      2.671      3.371
REMARK  6 active torsions:
REMARK  status: ('A' for Active; 'I' for Inactive)
REMARK    1  A    between atoms: C_2  and  C_3 
REMARK    2  A    between atoms: C_2  and  C_9 
REMARK    3  A    between atoms: C_9  and  N_10 
REMARK       I    between atoms: N_10  and  C_11 
REMARK    4  A    between atoms: C_11  and  C_12 
REMARK    5  A    between atoms: C_13  and  O_14 
REMARK    6  A    between atoms: O_14  and  C_15 
ROOT
HETATM    1  N   UNL     1      42.426 -15.493   1.806  1.00  0.00    -0.356 N 
HETATM    2  C   UNL     1      42.785 -15.625   3.128  1.00  0.00     0.254 C 
HETATM    3  O   UNL     1      42.743 -14.689   3.921  1.00  0.00    -0.268 OA
HETATM    4  H   UNL     1      42.523 -16.296   1.195  1.00  0.00     0.162 HD
ENDROOT
BRANCH   2   5
HETATM    5  C   UNL     1      43.269 -16.968   3.586  1.00  0.00     0.067 A 
HETATM    6  C   UNL     1      43.674 -17.274   4.902  1.00  0.00     0.090 A 
HETATM    7  C   UNL     1      44.061 -18.585   5.220  1.00  0.00     0.040 A 
HETATM    8  C   UNL     1      44.100 -19.573   4.234  1.00  0.00     0.026 A 
HETATM    9  C   UNL     1      43.739 -19.261   2.928  1.00  0.00     0.035 A 
HETATM   10 CL   UNL     1      43.792 -20.480   1.715  1.00  0.00    -0.084 Cl
HETATM   11  C   UNL     1      43.323 -17.974   2.603  1.00  0.00     0.043 A 
BRANCH   6  12
HETATM   12  O   UNL     1      43.625 -16.290   5.858  1.00  0.00    -0.289 OA
BRANCH  12  13
HETATM   13  C   UNL     1      42.714 -16.535   6.924  1.00  0.00     0.505 C 
HETATM   14  F   UNL     1      42.803 -15.475   7.766  1.00  0.00    -0.184 F 
HETATM   15  F   UNL     1      41.453 -16.528   6.426  1.00  0.00    -0.184 F 
ENDBRANCH  12  13
ENDBRANCH   6  12
ENDBRANCH   2   5
BRANCH   1  16
HETATM   16  C   UNL     1      41.925 -14.251   1.240  1.00  0.00     0.136 C 
BRANCH  16  17
HETATM   17  C   UNL     1      40.401 -14.286   0.898  1.00  0.00    -0.004 C 
HETATM   18  C   UNL     1      39.677 -13.310   1.856  1.00  0.00     0.021 C 
HETATM   19  C   UNL     1      39.876 -15.706   1.215  1.00  0.00     0.021 C 
BRANCH  17  20
HETATM   20  C   UNL     1      40.119 -14.000  -0.588  1.00  0.00    -0.046 A 
HETATM   21  C   UNL     1      40.584 -12.851  -1.242  1.00  0.00     0.027 A 
HETATM   22  C   UNL     1      40.272 -12.651  -2.581  1.00  0.00     0.116 A 
HETATM   23  N   UNL     1      39.535 -13.502  -3.321  1.00  0.00    -0.273 NA
HETATM   24  C   UNL     1      39.083 -14.601  -2.686  1.00  0.00     0.116 A 
HETATM   25  C   UNL     1      39.336 -14.882  -1.350  1.00  0.00     0.027 A 
ENDBRANCH  17  20
ENDBRANCH  16  17
ENDBRANCH   1  16
TORSDOF 6
ENDMDL
MODEL 4
REMARK VINA RESULT:      -8.0      4.473      6.852
REMARK  6 active torsions:
REMARK  status: ('A' for Active; 'I' for Inactive)
REMARK    1  A    between atoms: C_2  and  C_3 
REMARK    2  A    between atoms: C_2  and  C_9 
REMARK    3  A    between atoms: C_9  and  N_10 
REMARK       I    between atoms: N_10  and  C_11 
REMARK    4  A    between atoms: C_11  and  C_12 
REMARK    5  A    between atoms: C_13  and  O_14 
REMARK    6  A    between atoms: O_14  and  C_15 
ROOT
HETATM    1  N   UNL     1      43.436 -14.822   5.933  1.00  0.00    -0.356 N 
HETATM    2  C   UNL     1      42.961 -16.100   6.116  1.00  0.00     0.254 C 
HETATM    3  O   UNL     1      42.291 -16.424   7.092  1.00  0.00    -0.268 OA
HETATM    4  H   UNL     1      44.018 -14.632   5.125  1.00  0.00     0.162 HD
ENDROOT
BRANCH   2   5
HETATM    5  C   UNL     1      43.312 -17.127   5.081  1.00  0.00     0.067 A 
HETATM    6  C   UNL     1      43.289 -16.908   3.688  1.00  0.00     0.090 A 
HETATM    7  C   UNL     1      43.687 -17.937   2.819  1.00  0.00     0.040 A 
HETATM    8  C   UNL     1      44.052 -19.188   3.320  1.00  0.00     0.026 A 
HETATM    9  C   UNL     1      44.035 -19.415   4.692  1.00  0.00     0.035 A 
HETATM   10 CL   UNL     1      44.481 -20.959   5.305  1.00  0.00    -0.084 Cl
HETATM   11  C   UNL     1      43.673 -18.397   5.568  1.00  0.00     0.043 A 
BRANCH   6  12
HETATM   12  O   UNL     1      42.932 -15.670   3.215  1.00  0.00    -0.289 OA
BRANCH  12  13
HETATM   13  C   UNL     1      43.355 -15.391   1.886  1.00  0.00     0.505 C 
HETATM   14  F   UNL     1      42.246 -15.425   1.106  1.00  0.00    -0.184 F 
HETATM   15  F   UNL     1      43.821 -14.118   1.839  1.00  0.00    -0.184 F 
ENDBRANCH  12  13
ENDBRANCH   6  12
ENDBRANCH   2   5
BRANCH   1  16
HETATM   16  C   UNL     1      43.153 -13.731   6.852  1.00  0.00     0.136 C 
BRANCH  16  17
HETATM   17  C   UNL     1      43.147 -12.324   6.175  1.00  0.00    -0.004 C 
HETATM   18  C   UNL     1      41.676 -11.856   6.066  1.00  0.00     0.021 C 
HETATM   19  C   UNL     1      43.677 -12.490   4.731  1.00  0.00     0.021 C 
BRANCH  17  20
HETATM   20  C   UNL     1      44.055 -11.313   6.897  1.00  0.00    -0.046 A 
HETATM   21  C   UNL     1      43.554 -10.193   7.577  1.00  0.00     0.027 A 
HETATM   22  C   UNL     1      44.437  -9.312   8.189  1.00  0.00     0.116 A 
HETATM   23  N   UNL     1      45.777  -9.455   8.179  1.00  0.00    -0.273 NA
HETATM   24  C   UNL     1      46.254 -10.528   7.518  1.00  0.00     0.116 A 
HETATM   25  C   UNL     1      45.451 -11.457   6.869  1.00  0.00     0.027 A 
ENDBRANCH  17  20
ENDBRANCH  16  17
ENDBRANCH   1  16
TORSDOF 6
ENDMDL
MODEL 5
REMARK VINA RESULT:      -8.0      3.928      7.751
REMARK  6 active torsions:
REMARK  status: ('A' for Active; 'I' for Inactive)
REMARK    1  A    between atoms: C_2  and  C_3 
REMARK    2  A    between atoms: C_2  and  C_9 
REMARK    3  A    between atoms: C_9  and  N_10 
REMARK       I    between atoms: N_10  and  C_11 
REMARK    4  A    between atoms: C_11  and  C_12 
REMARK    5  A    between atoms: C_13  and  O_14 
REMARK    6  A    between atoms: O_14  and  C_15 
ROOT
HETATM    1  N   UNL     1      41.327 -14.684   0.503  1.00  0.00    -0.356 N 
HETATM    2  C   UNL     1      40.501 -13.586   0.435  1.00  0.00     0.254 C 
HETATM    3  O   UNL     1      39.649 -13.345   1.286  1.00  0.00    -0.268 OA
HETATM    4  H   UNL     1      41.981 -14.845  -0.254  1.00  0.00     0.162 HD
ENDROOT
BRANCH   2   5
HETATM    5  C   UNL     1      40.648 -12.677  -0.749  1.00  0.00     0.067 A 
HETATM    6  C   UNL     1      40.469 -13.067  -2.093  1.00  0.00     0.090 A 
HETATM    7  C   UNL     1      40.587 -12.110  -3.112  1.00  0.00     0.040 A 
HETATM    8  C   UNL     1      40.933 -10.791  -2.812  1.00  0.00     0.026 A 
HETATM    9  C   UNL     1      41.149 -10.417  -1.491  1.00  0.00     0.035 A 
HETATM   10 CL   UNL     1      41.578  -8.792  -1.125  1.00  0.00    -0.084 Cl
HETATM   11  C   UNL     1      41.005 -11.345  -0.465  1.00  0.00     0.043 A 
BRANCH   6  12
HETATM   12  O   UNL     1      40.125 -14.367  -2.367  1.00  0.00    -0.289 OA
BRANCH  12  13
HETATM   13  C   UNL     1      38.776 -14.557  -2.777  1.00  0.00     0.505 C 
HETATM   14  F   UNL     1      38.489 -15.869  -2.588  1.00  0.00    -0.184 F 
HETATM   15  F   UNL     1      37.967 -13.861  -1.940  1.00  0.00    -0.184 F 
ENDBRANCH  12  13
ENDBRANCH   6  12
ENDBRANCH   2   5
BRANCH   1  16
HETATM   16  C   UNL     1      41.299 -15.631   1.605  1.00  0.00     0.136 C 
BRANCH  16  17
HETATM   17  C   UNL     1      42.496 -15.478   2.597  1.00  0.00    -0.004 C 
HETATM   18  C   UNL     1      42.038 -14.559   3.755  1.00  0.00     0.021 C 
HETATM   19  C   UNL     1      43.635 -14.739   1.856  1.00  0.00     0.021 C 
BRANCH  17  20
HETATM   20  C   UNL     1      43.047 -16.833   3.078  1.00  0.00    -0.046 A 
HETATM   21  C   UNL     1      43.601 -17.018   4.352  1.00  0.00     0.027 A 
HETATM   22  C   UNL     1      44.097 -18.266   4.708  1.00  0.00     0.116 A 
HETATM   23  N   UNL     1      44.086 -19.343   3.899  1.00  0.00    -0.273 NA
HETATM   24  C   UNL     1      43.559 -19.159   2.673  1.00  0.00     0.116 A 
HETATM   25  C   UNL     1      43.048 -17.948   2.225  1.00  0.00     0.027 A 
ENDBRANCH  17  20
ENDBRANCH  16  17
ENDBRANCH   1  16
TORSDOF 6
ENDMDL
MODEL 6
REMARK VINA RESULT:      -8.0      3.432      7.159
REMARK  6 active torsions:
REMARK  status: ('A' for Active; 'I' for Inactive)
REMARK    1  A    between atoms: C_2  and  C_3 
REMARK    2  A    between atoms: C_2  and  C_9 
REMARK    3  A    between atoms: C_9  and  N_10 
REMARK       I    between atoms: N_10  and  C_11 
REMARK    4  A    between atoms: C_11  and  C_12 
REMARK    5  A    between atoms: C_13  and  O_14 
REMARK    6  A    between atoms: O_14  and  C_15 
ROOT
HETATM    1  N   UNL     1      41.078 -15.201   3.014  1.00  0.00    -0.356 N 
HETATM    2  C   UNL     1      40.146 -15.083   2.008  1.00  0.00     0.254 C 
HETATM    3  O   UNL     1      39.614 -16.055   1.481  1.00  0.00    -0.268 OA
HETATM    4  H   UNL     1      41.509 -14.359   3.377  1.00  0.00     0.162 HD
ENDROOT
BRANCH   2   5
HETATM    5  C   UNL     1      39.804 -13.700   1.538  1.00  0.00     0.067 A 
HETATM    6  C   UNL     1      39.902 -13.255   0.203  1.00  0.00     0.090 A 
HETATM    7  C   UNL     1      39.504 -11.948  -0.121  1.00  0.00     0.040 A 
HETATM    8  C   UNL     1      39.065 -11.072   0.873  1.00  0.00     0.026 A 
HETATM    9  C   UNL     1      39.008 -11.499   2.194  1.00  0.00     0.035 A 
HETATM   10 CL   UNL     1      38.470 -10.416   3.417  1.00  0.00    -0.084 Cl
HETATM   11  C   UNL     1      39.368 -12.801   2.529  1.00  0.00     0.043 A 
BRANCH   6  12
HETATM   12  O   UNL     1      40.331 -14.133  -0.761  1.00  0.00    -0.289 OA
BRANCH  12  13
HETATM   13  C   UNL     1      39.383 -14.411  -1.784  1.00  0.00     0.505 C 
HETATM   14  F   UNL     1      40.060 -14.404  -2.959  1.00  0.00    -0.184 F 
HETATM   15  F   UNL     1      38.920 -15.674  -1.613  1.00  0.00    -0.184 F 
ENDBRANCH  12  13
ENDBRANCH   6  12
ENDBRANCH   2   5
BRANCH   1  16
HETATM   16  C   UNL     1      41.485 -16.481   3.572  1.00  0.00     0.136 C 
BRANCH  16  17
HETATM   17  C   UNL     1      43.014 -16.768   3.438  1.00  0.00    -0.004 C 
HETATM   18  C   UNL     1      43.726 -16.117   4.649  1.00  0.00     0.021 C 
HETATM   19  C   UNL     1      43.524 -16.044   2.171  1.00  0.00     0.021 C 
BRANCH  17  20
HETATM   20  C   UNL     1      43.327 -18.267   3.284  1.00  0.00    -0.046 A 
HETATM   21  C   UNL     1      43.040 -18.986   2.116  1.00  0.00     0.027 A 
HETATM   22  C   UNL     1      43.333 -20.343   2.057  1.00  0.00     0.116 A 
HETATM   23  N   UNL     1      43.888 -21.041   3.067  1.00  0.00    -0.273 NA
HETATM   24  C   UNL     1      44.156 -20.347   4.191  1.00  0.00     0.116 A 
HETATM   25  C   UNL     1      43.891 -18.993   4.345  1.00  0.00     0.027 A 
ENDBRANCH  17  20
ENDBRANCH  16  17
ENDBRANCH   1  16
TORSDOF 6
ENDMDL
MODEL 7
REMARK VINA RESULT:      -8.0      3.629      5.123
REMARK  6 active torsions:
REMARK  status: ('A' for Active; 'I' for Inactive)
REMARK    1  A    between atoms: C_2  and  C_3 
REMARK    2  A    between atoms: C_2  and  C_9 
REMARK    3  A    between atoms: C_9  and  N_10 
REMARK       I    between atoms: N_10  and  C_11 
REMARK    4  A    between atoms: C_11  and  C_12 
REMARK    5  A    between atoms: C_13  and  O_14 
REMARK    6  A    between atoms: O_14  and  C_15 
ROOT
HETATM    1  N   UNL     1      42.540 -14.782   2.386  1.00  0.00    -0.356 N 
HETATM    2  C   UNL     1      41.865 -15.938   2.707  1.00  0.00     0.254 C 
HETATM    3  O   UNL     1      40.645 -16.036   2.625  1.00  0.00    -0.268 OA
HETATM    4  H   UNL     1      43.545 -14.756   2.516  1.00  0.00     0.162 HD
ENDROOT
BRANCH   2   5
HETATM    5  C   UNL     1      42.674 -17.101   3.198  1.00  0.00     0.067 A 
HETATM    6  C   UNL     1      43.258 -17.194   4.479  1.00  0.00     0.090 A 
HETATM    7  C   UNL     1      43.953 -18.359   4.840  1.00  0.00     0.040 A 
HETATM    8  C   UNL     1      44.118 -19.400   3.924  1.00  0.00     0.026 A 
HETATM    9  C   UNL     1      43.577 -19.290   2.648  1.00  0.00     0.035 A 
HETATM   10 CL   UNL     1      43.785 -20.574   1.522  1.00  0.00    -0.084 Cl
HETATM   11  C   UNL     1      42.858 -18.156   2.285  1.00  0.00     0.043 A 
BRANCH   6  12
HETATM   12  O   UNL     1      43.081 -16.162   5.366  1.00  0.00    -0.289 OA
BRANCH  12  13
HETATM   13  C   UNL     1      42.245 -16.463   6.478  1.00  0.00     0.505 C 
HETATM   14  F   UNL     1      42.358 -15.427   7.346  1.00  0.00    -0.184 F 
HETATM   15  F   UNL     1      40.956 -16.477   6.059  1.00  0.00    -0.184 F 
ENDBRANCH  12  13
ENDBRANCH   6  12
ENDBRANCH   2   5
BRANCH   1  16
HETATM   16  C   UNL     1      41.877 -13.591   1.882  1.00  0.00     0.136 C 
BRANCH  16  17
HETATM   17  C   UNL     1      42.041 -12.341   2.804  1.00  0.00    -0.004 C 
HETATM   18  C   UNL     1      41.955 -11.079   1.913  1.00  0.00     0.021 C 
HETATM   19  C   UNL     1      43.467 -12.376   3.402  1.00  0.00     0.021 C 
BRANCH  17  20
HETATM   20  C   UNL     1      41.040 -12.329   3.973  1.00  0.00    -0.046 A 
HETATM   21  C   UNL     1      41.112 -13.232   5.044  1.00  0.00     0.027 A 
HETATM   22  C   UNL     1      40.159 -13.173   6.054  1.00  0.00     0.116 A 
HETATM   23  N   UNL     1      39.144 -12.289   6.085  1.00  0.00    -0.273 NA
HETATM   24  C   UNL     1      39.075 -11.428   5.050  1.00  0.00     0.116 A 
HETATM   25  C   UNL     1      39.974 -11.416   3.992  1.00  0.00     0.027 A 
ENDBRANCH  17  20
ENDBRANCH  16  17
ENDBRANCH   1  16
TORSDOF 6
ENDMDL
MODEL 8
REMARK VINA RESULT:      -7.5      4.261      6.601
REMARK  6 active torsions:
REMARK  status: ('A' for Active; 'I' for Inactive)
REMARK    1  A    between atoms: C_2  and  C_3 
REMARK    2  A    between atoms: C_2  and  C_9 
REMARK    3  A    between atoms: C_9  and  N_10 
REMARK       I    between atoms: N_10  and  C_11 
REMARK    4  A    between atoms: C_11  and  C_12 
REMARK    5  A    between atoms: C_13  and  O_14 
REMARK    6  A    between atoms: O_14  and  C_15 
ROOT
HETATM    1  N   UNL     1      41.980 -13.487   4.566  1.00  0.00    -0.356 N 
HETATM    2  C   UNL     1      41.557 -14.772   4.821  1.00  0.00     0.254 C 
HETATM    3  O   UNL     1      40.720 -15.034   5.679  1.00  0.00    -0.268 OA
HETATM    4  H   UNL     1      42.705 -13.345   3.871  1.00  0.00     0.162 HD
ENDROOT
BRANCH   2   5
HETATM    5  C   UNL     1      42.177 -15.880   4.022  1.00  0.00     0.067 A 
HETATM    6  C   UNL     1      42.112 -15.996   2.618  1.00  0.00     0.090 A 
HETATM    7  C   UNL     1      42.777 -17.055   1.980  1.00  0.00     0.040 A 
HETATM    8  C   UNL     1      43.453 -18.022   2.727  1.00  0.00     0.026 A 
HETATM    9  C   UNL     1      43.482 -17.929   4.114  1.00  0.00     0.035 A 
HETATM   10 CL   UNL     1      44.314 -19.123   5.030  1.00  0.00    -0.084 Cl
HETATM   11  C   UNL     1      42.856 -16.868   4.760  1.00  0.00     0.043 A 
BRANCH   6  12
HETATM   12  O   UNL     1      41.446 -15.033   1.902  1.00  0.00    -0.289 OA
BRANCH  12  13
HETATM   13  C   UNL     1      40.260 -15.480   1.254  1.00  0.00     0.505 C 
HETATM   14  F   UNL     1      39.398 -15.859   2.231  1.00  0.00    -0.184 F 
HETATM   15  F   UNL     1      39.689 -14.426   0.621  1.00  0.00    -0.184 F 
ENDBRANCH  12  13
ENDBRANCH   6  12
ENDBRANCH   2   5
BRANCH   1  16
HETATM   16  C   UNL     1      41.447 -12.325   5.256  1.00  0.00     0.136 C 
BRANCH  16  17
HETATM   17  C   UNL     1      42.347 -11.054   5.136  1.00  0.00    -0.004 C 
HETATM   18  C   UNL     1      41.424  -9.812   5.197  1.00  0.00     0.021 C 
HETATM   19  C   UNL     1      42.997 -11.065   3.733  1.00  0.00     0.021 C 
BRANCH  17  20
HETATM   20  C   UNL     1      43.477 -11.024   6.180  1.00  0.00    -0.046 A 
HETATM   21  C   UNL     1      44.802 -11.364   5.875  1.00  0.00     0.027 A 
HETATM   22  C   UNL     1      45.765 -11.333   6.876  1.00  0.00     0.116 A 
HETATM   23  N   UNL     1      45.516 -10.990   8.154  1.00  0.00    -0.273 NA
HETATM   24  C   UNL     1      44.239 -10.670   8.445  1.00  0.00     0.116 A 
HETATM   25  C   UNL     1      43.209 -10.681   7.515  1.00  0.00     0.027 A 
ENDBRANCH  17  20
ENDBRANCH  16  17
ENDBRANCH   1  16
TORSDOF 6
ENDMDL
MODEL 9
REMARK VINA RESULT:      -7.5      3.151      3.800
REMARK  6 active torsions:
REMARK  status: ('A' for Active; 'I' for Inactive)
REMARK    1  A    between atoms: C_2  and  C_3 
REMARK    2  A    between atoms: C_2  and  C_9 
REMARK    3  A    between atoms: C_9  and  N_10 
REMARK       I    between atoms: N_10  and  C_11 
REMARK    4  A    between atoms: C_11  and  C_12 
REMARK    5  A    between atoms: C_13  and  O_14 
REMARK    6  A    between atoms: O_14  and  C_15 
ROOT
HETATM    1  N   UNL     1      41.244 -14.496   3.406  1.00  0.00    -0.356 N 
HETATM    2  C   UNL     1      41.088 -15.846   3.187  1.00  0.00     0.254 C 
HETATM    3  O   UNL     1      40.040 -16.332   2.771  1.00  0.00    -0.268 OA
HETATM    4  H   UNL     1      42.123 -14.166   3.789  1.00  0.00     0.162 HD
ENDROOT
BRANCH   2   5
HETATM    5  C   UNL     1      42.250 -16.740   3.501  1.00  0.00     0.067 A 
HETATM    6  C   UNL     1      43.140 -16.558   4.580  1.00  0.00     0.090 A 
HETATM    7  C   UNL     1      44.163 -17.494   4.799  1.00  0.00     0.040 A 
HETATM    8  C   UNL     1      44.340 -18.569   3.926  1.00  0.00     0.026 A 
HETATM    9  C   UNL     1      43.488 -18.725   2.839  1.00  0.00     0.035 A 
HETATM   10 CL   UNL     1      43.712 -20.049   1.764  1.00  0.00    -0.084 Cl
HETATM   11  C   UNL     1      42.449 -17.825   2.626  1.00  0.00     0.043 A 
BRANCH   6  12
HETATM   12  O   UNL     1      42.946 -15.497   5.429  1.00  0.00    -0.289 OA
BRANCH  12  13
HETATM   13  C   UNL     1      43.853 -15.431   6.523  1.00  0.00     0.505 C 
HETATM   14  F   UNL     1      44.301 -14.152   6.586  1.00  0.00    -0.184 F 
HETATM   15  F   UNL     1      43.165 -15.656   7.670  1.00  0.00    -0.184 F 
ENDBRANCH  12  13
ENDBRANCH   6  12
ENDBRANCH   2   5
BRANCH   1  16
HETATM   16  C   UNL     1      40.203 -13.522   3.126  1.00  0.00     0.136 C 
BRANCH  16  17
HETATM   17  C   UNL     1      40.545 -12.558   1.946  1.00  0.00    -0.004 C 
HETATM   18  C   UNL     1      42.086 -12.496   1.815  1.00  0.00     0.021 C 
HETATM   19  C   UNL     1      40.067 -11.140   2.338  1.00  0.00     0.021 C 
BRANCH  17  20
HETATM   20  C   UNL     1      39.838 -12.948   0.635  1.00  0.00    -0.046 A 
HETATM   21  C   UNL     1      40.094 -14.151  -0.036  1.00  0.00     0.027 A 
HETATM   22  C   UNL     1      39.432 -14.426  -1.227  1.00  0.00     0.116 A 
HETATM   23  N   UNL     1      38.536 -13.600  -1.801  1.00  0.00    -0.273 NA
HETATM   24  C   UNL     1      38.298 -12.441  -1.156  1.00  0.00     0.116 A 
HETATM   25  C   UNL     1      38.917 -12.077   0.032  1.00  0.00     0.027 A 
ENDBRANCH  17  20
ENDBRANCH  16  17
ENDBRANCH   1  16
TORSDOF 6
ENDMDL
MODEL 10
REMARK VINA RESULT:      -7.4     13.968     15.351
REMARK  6 active torsions:
REMARK  status: ('A' for Active; 'I' for Inactive)
REMARK    1  A    between atoms: C_2  and  C_3 
REMARK    2  A    between atoms: C_2  and  C_9 
REMARK    3  A    between atoms: C_9  and  N_10 
REMARK       I    between atoms: N_10  and  C_11 
REMARK    4  A    between atoms: C_11  and  C_12 
REMARK    5  A    between atoms: C_13  and  O_14 
REMARK    6  A    between atoms: O_14  and  C_15 
ROOT
HETATM    1  N   UNL     1      46.719 -29.638   0.703  1.00  0.00    -0.356 N 
HETATM    2  C   UNL     1      47.873 -29.069   0.215  1.00  0.00     0.254 C 
HETATM    3  O   UNL     1      47.904 -27.936  -0.258  1.00  0.00    -0.268 OA
HETATM    4  H   UNL     1      46.756 -30.592   1.042  1.00  0.00     0.162 HD
ENDROOT
BRANCH   2   5
HETATM    5  C   UNL     1      49.125 -29.895   0.250  1.00  0.00     0.067 A 
HETATM    6  C   UNL     1      49.660 -30.499   1.407  1.00  0.00     0.090 A 
HETATM    7  C   UNL     1      50.814 -31.291   1.302  1.00  0.00     0.040 A 
HETATM    8  C   UNL     1      51.465 -31.440   0.076  1.00  0.00     0.026 A 
HETATM    9  C   UNL     1      50.959 -30.810  -1.055  1.00  0.00     0.035 A 
HETATM   10 CL   UNL     1      51.766 -30.993  -2.564  1.00  0.00    -0.084 Cl
HETATM   11  C   UNL     1      49.799 -30.048  -0.976  1.00  0.00     0.043 A 
BRANCH   6  12
HETATM   12  O   UNL     1      49.003 -30.344   2.602  1.00  0.00    -0.289 OA
BRANCH  12  13
HETATM   13  C   UNL     1      49.589 -29.400   3.491  1.00  0.00     0.505 C 
HETATM   14  F   UNL     1      48.570 -28.820   4.174  1.00  0.00    -0.184 F 
HETATM   15  F   UNL     1      50.335 -30.070   4.403  1.00  0.00    -0.184 F 
ENDBRANCH  12  13
ENDBRANCH   6  12
ENDBRANCH   2   5
BRANCH   1  16
HETATM   16  C   UNL     1      45.445 -28.939   0.743  1.00  0.00     0.136 C 
BRANCH  16  17
HETATM   17  C   UNL     1      44.331 -29.612  -0.120  1.00  0.00    -0.004 C 
HETATM   18  C   UNL     1      42.960 -29.143   0.426  1.00  0.00     0.021 C 
HETATM   19  C   UNL     1      44.411 -31.140   0.110  1.00  0.00     0.021 C 
BRANCH  17  20
HETATM   20  C   UNL     1      44.506 -29.352  -1.626  1.00  0.00    -0.046 A 
HETATM   21  C   UNL     1      44.217 -30.316  -2.602  1.00  0.00     0.027 A 
HETATM   22  C   UNL     1      44.419 -30.015  -3.944  1.00  0.00     0.116 A 
HETATM   23  N   UNL     1      44.885 -28.833  -4.392  1.00  0.00    -0.273 NA
HETATM   24  C   UNL     1      45.168 -27.912  -3.450  1.00  0.00     0.116 A 
HETATM   25  C   UNL     1      45.007 -28.124  -2.087  1.00  0.00     0.027 A 
ENDBRANCH  17  20
ENDBRANCH  16  17
ENDBRANCH   1  16
TORSDOF 6
ENDMDL
