MODEL 1
REMARK VINA RESULT:      -9.3      0.000      0.000
REMARK  6 active torsions:
REMARK  status: ('A' for Active; 'I' for Inactive)
REMARK    1  A    between atoms: C_2  and  C_3 
REMARK    2  A    between atoms: C_5  and  N_6 
REMARK       I    between atoms: N_6  and  C_7 
REMARK    3  A    between atoms: C_7  and  C_8 
REMARK    4  A    between atoms: N_11  and  C_12 
REMARK    5  A    between atoms: C_18  and  C_19 
REMARK    6  A    between atoms: C_28  and  O_29 
ROOT
HETATM    1  C   UNL     1      41.335 -12.865   2.436  1.00  0.00     0.081 C 
HETATM    2  C   UNL     1      41.760 -12.882   3.916  1.00  0.00     0.034 C 
HETATM    3  C   UNL     1      41.646 -14.262   4.573  1.00  0.00     0.125 C 
HETATM    4  N   UNL     1      42.349 -15.285   3.784  1.00  0.00    -0.364 N 
HETATM    5  C   UNL     1      41.900 -15.333   2.379  1.00  0.00     0.125 C 
HETATM    6  C   UNL     1      42.086 -13.981   1.708  1.00  0.00     0.034 C 
ENDROOT
BRANCH   1   7
HETATM    7  C   UNL     1      39.819 -12.975   2.288  1.00  0.00     0.226 C 
HETATM    8  N   UNL     1      39.171 -12.879   1.098  1.00  0.00    -0.324 N 
HETATM    9  H   UNL     1      38.204 -13.170   1.211  1.00  0.00     0.169 HD
HETATM   10  O   UNL     1      39.108 -13.187   3.278  1.00  0.00    -0.273 OA
BRANCH   8  11
HETATM   11  C   UNL     1      39.525 -12.590  -0.235  1.00  0.00     0.068 A 
HETATM   12  C   UNL     1      39.743 -11.319  -0.769  1.00  0.00     0.040 A 
HETATM   13  C   UNL     1      40.226 -11.129  -2.085  1.00  0.00    -0.048 A 
HETATM   14  C   UNL     1      40.455 -12.277  -2.865  1.00  0.00     0.011 A 
HETATM   15  C   UNL     1      40.171 -13.551  -2.377  1.00  0.00     0.039 A 
HETATM   16  C   UNL     1      39.692 -13.691  -1.083  1.00  0.00     0.092 A 
BRANCH  13  17
HETATM   17  C   UNL     1      40.583  -9.722  -2.607  1.00  0.00    -0.024 C 
HETATM   18  C   UNL     1      39.380  -8.797  -2.338  1.00  0.00     0.019 C 
HETATM   19  C   UNL     1      40.884  -9.703  -4.125  1.00  0.00     0.019 C 
HETATM   20  C   UNL     1      41.828  -9.129  -1.908  1.00  0.00     0.019 C 
ENDBRANCH  13  17
BRANCH  16  21
HETATM   21  O   UNL     1      39.401 -14.956  -0.645  1.00  0.00    -0.358 OA
HETATM   22  H   UNL     1      40.258 -15.411  -0.568  1.00  0.00     0.218 HD
ENDBRANCH  16  21
ENDBRANCH   8  11
ENDBRANCH   1   7
BRANCH   4  23
HETATM   23  C   UNL     1      42.840 -16.469   4.352  1.00  0.00     0.146 A 
HETATM   24  N   UNL     1      42.987 -17.506   3.557  1.00  0.00    -0.146 NA
HETATM   25  N   UNL     1      43.467 -18.634   4.132  1.00  0.00    -0.188 N 
HETATM   26  C   UNL     1      43.814 -18.817   5.449  1.00  0.00     0.175 A 
HETATM   27  C   UNL     1      43.711 -19.834   3.524  1.00  0.00     0.258 A 
HETATM   28  C   UNL     1      43.675 -17.713   6.307  1.00  0.00     0.058 A 
HETATM   29  N   UNL     1      44.232 -20.049   5.633  1.00  0.00    -0.128 NA
HETATM   30  C   UNL     1      43.213 -16.558   5.812  1.00  0.00     0.056 A 
HETATM   31  N   UNL     1      44.168 -20.695   4.418  1.00  0.00    -0.123 NA
BRANCH  27  32
HETATM   32  C   UNL     1      43.467 -20.017   2.087  1.00  0.00     0.454 C 
HETATM   33  F   UNL     1      44.333 -20.898   1.517  1.00  0.00    -0.163 F 
HETATM   34  F   UNL     1      42.220 -20.499   1.829  1.00  0.00    -0.163 F 
HETATM   35  F   UNL     1      43.572 -18.855   1.385  1.00  0.00    -0.163 F 
ENDBRANCH  27  32
ENDBRANCH   4  23
TORSDOF 6
ENDMDL
MODEL 2
REMARK VINA RESULT:      -9.2      4.920      7.247
REMARK  6 active torsions:
REMARK  status: ('A' for Active; 'I' for Inactive)
REMARK    1  A    between atoms: C_2  and  C_3 
REMARK    2  A    between atoms: C_5  and  N_6 
REMARK       I    between atoms: N_6  and  C_7 
REMARK    3  A    between atoms: C_7  and  C_8 
REMARK    4  A    between atoms: N_11  and  C_12 
REMARK    5  A    between atoms: C_18  and  C_19 
REMARK    6  A    between atoms: C_28  and  O_29 
ROOT
HETATM    1  C   UNL     1      42.280 -13.155   6.082  1.00  0.00     0.081 C 
HETATM    2  C   UNL     1      41.333 -14.126   5.354  1.00  0.00     0.034 C 
HETATM    3  C   UNL     1      42.035 -15.372   4.801  1.00  0.00     0.125 C 
HETATM    4  N   UNL     1      42.821 -16.045   5.846  1.00  0.00    -0.364 N 
HETATM    5  C   UNL     1      43.787 -15.147   6.504  1.00  0.00     0.125 C 
HETATM    6  C   UNL     1      43.078 -13.950   7.118  1.00  0.00     0.034 C 
ENDROOT
BRANCH   1   7
HETATM    7  C   UNL     1      43.171 -12.399   5.099  1.00  0.00     0.226 C 
HETATM    8  N   UNL     1      44.064 -11.445   5.473  1.00  0.00    -0.324 N 
HETATM    9  H   UNL     1      44.671 -11.220   4.691  1.00  0.00     0.169 HD
HETATM   10  O   UNL     1      43.128 -12.657   3.890  1.00  0.00    -0.273 OA
BRANCH   8  11
HETATM   11  C   UNL     1      44.413 -10.791   6.671  1.00  0.00     0.068 A 
HETATM   12  C   UNL     1      43.526 -10.198   7.571  1.00  0.00     0.040 A 
HETATM   13  C   UNL     1      43.954  -9.678   8.816  1.00  0.00    -0.048 A 
HETATM   14  C   UNL     1      45.327  -9.750   9.113  1.00  0.00     0.011 A 
HETATM   15  C   UNL     1      46.238 -10.268   8.195  1.00  0.00     0.039 A 
HETATM   16  C   UNL     1      45.777 -10.760   6.984  1.00  0.00     0.092 A 
BRANCH  13  17
HETATM   17  C   UNL     1      42.938  -9.147   9.848  1.00  0.00    -0.024 C 
HETATM   18  C   UNL     1      41.550  -9.120   9.177  1.00  0.00     0.019 C 
HETATM   19  C   UNL     1      43.271  -7.719  10.340  1.00  0.00     0.019 C 
HETATM   20  C   UNL     1      42.858 -10.035  11.111  1.00  0.00     0.019 C 
ENDBRANCH  13  17
BRANCH  16  21
HETATM   21  O   UNL     1      46.704 -11.240   6.097  1.00  0.00    -0.358 OA
HETATM   22  H   UNL     1      46.675 -12.210   6.184  1.00  0.00     0.218 HD
ENDBRANCH  16  21
ENDBRANCH   8  11
ENDBRANCH   1   7
BRANCH   4  23
HETATM   23  C   UNL     1      43.133 -17.411   5.791  1.00  0.00     0.146 A 
HETATM   24  N   UNL     1      43.224 -17.963   4.601  1.00  0.00    -0.146 NA
HETATM   25  N   UNL     1      43.532 -19.282   4.578  1.00  0.00    -0.188 N 
HETATM   26  C   UNL     1      43.755 -20.105   5.655  1.00  0.00     0.175 A 
HETATM   27  C   UNL     1      43.687 -20.077   3.476  1.00  0.00     0.258 A 
HETATM   28  C   UNL     1      43.674 -19.525   6.932  1.00  0.00     0.058 A 
HETATM   29  N   UNL     1      44.019 -21.323   5.238  1.00  0.00    -0.128 NA
HETATM   30  C   UNL     1      43.382 -18.223   7.038  1.00  0.00     0.056 A 
HETATM   31  N   UNL     1      43.976 -21.309   3.862  1.00  0.00    -0.123 NA
BRANCH  27  32
HETATM   32  C   UNL     1      43.534 -19.530   2.121  1.00  0.00     0.454 C 
HETATM   33  F   UNL     1      42.284 -19.045   1.890  1.00  0.00    -0.163 F 
HETATM   34  F   UNL     1      44.386 -18.497   1.879  1.00  0.00    -0.163 F 
HETATM   35  F   UNL     1      43.781 -20.455   1.153  1.00  0.00    -0.163 F 
ENDBRANCH  27  32
ENDBRANCH   4  23
TORSDOF 6
ENDMDL
MODEL 3
REMARK VINA RESULT:      -9.0      1.913      2.806
REMARK  6 active torsions:
REMARK  status: ('A' for Active; 'I' for Inactive)
REMARK    1  A    between atoms: C_2  and  C_3 
REMARK    2  A    between atoms: C_5  and  N_6 
REMARK       I    between atoms: N_6  and  C_7 
REMARK    3  A    between atoms: C_7  and  C_8 
REMARK    4  A    between atoms: N_11  and  C_12 
REMARK    5  A    between atoms: C_18  and  C_19 
REMARK    6  A    between atoms: C_28  and  O_29 
ROOT
HETATM    1  C   UNL     1      42.666 -12.453   4.268  1.00  0.00     0.081 C 
HETATM    2  C   UNL     1      43.246 -12.848   5.638  1.00  0.00     0.034 C 
HETATM    3  C   UNL     1      42.812 -14.240   6.112  1.00  0.00     0.125 C 
HETATM    4  N   UNL     1      43.079 -15.257   5.085  1.00  0.00    -0.364 N 
HETATM    5  C   UNL     1      42.467 -14.932   3.783  1.00  0.00     0.125 C 
HETATM    6  C   UNL     1      42.959 -13.584   3.279  1.00  0.00     0.034 C 
ENDROOT
BRANCH   1   7
HETATM    7  C   UNL     1      41.179 -12.120   4.364  1.00  0.00     0.226 C 
HETATM    8  N   UNL     1      40.389 -11.881   3.284  1.00  0.00    -0.324 N 
HETATM    9  H   UNL     1      39.414 -11.872   3.569  1.00  0.00     0.169 HD
HETATM   10  O   UNL     1      40.617 -12.080   5.466  1.00  0.00    -0.273 OA
BRANCH   8  11
HETATM   11  C   UNL     1      40.577 -11.755   1.894  1.00  0.00     0.068 A 
HETATM   12  C   UNL     1      40.148 -12.661   0.922  1.00  0.00     0.040 A 
HETATM   13  C   UNL     1      40.262 -12.389  -0.462  1.00  0.00    -0.048 A 
HETATM   14  C   UNL     1      40.859 -11.172  -0.838  1.00  0.00     0.011 A 
HETATM   15  C   UNL     1      41.363 -10.289   0.115  1.00  0.00     0.039 A 
HETATM   16  C   UNL     1      41.236 -10.598   1.461  1.00  0.00     0.092 A 
BRANCH  13  17
HETATM   17  C   UNL     1      39.664 -13.345  -1.514  1.00  0.00    -0.024 C 
HETATM   18  C   UNL     1      40.595 -13.341  -2.742  1.00  0.00     0.019 C 
HETATM   19  C   UNL     1      38.248 -12.924  -1.973  1.00  0.00     0.019 C 
HETATM   20  C   UNL     1      39.539 -14.796  -0.993  1.00  0.00     0.019 C 
ENDBRANCH  13  17
BRANCH  16  21
HETATM   21  O   UNL     1      41.764  -9.719   2.369  1.00  0.00    -0.358 OA
HETATM   22  H   UNL     1      42.710  -9.941   2.432  1.00  0.00     0.218 HD
ENDBRANCH  16  21
ENDBRANCH   8  11
ENDBRANCH   1   7
BRANCH   4  23
HETATM   23  C   UNL     1      43.266 -16.611   5.396  1.00  0.00     0.146 A 
HETATM   24  N   UNL     1      43.412 -17.448   4.393  1.00  0.00    -0.146 NA
HETATM   25  N   UNL     1      43.595 -18.749   4.724  1.00  0.00    -0.188 N 
HETATM   26  C   UNL     1      43.642 -19.290   5.986  1.00  0.00     0.175 A 
HETATM   27  C   UNL     1      43.774 -19.803   3.871  1.00  0.00     0.258 A 
HETATM   28  C   UNL     1      43.502 -18.405   7.068  1.00  0.00     0.058 A 
HETATM   29  N   UNL     1      43.828 -20.589   5.908  1.00  0.00    -0.128 NA
HETATM   30  C   UNL     1      43.324 -17.100   6.823  1.00  0.00     0.056 A 
HETATM   31  N   UNL     1      43.911 -20.916   4.573  1.00  0.00    -0.123 NA
BRANCH  27  32
HETATM   32  C   UNL     1      43.796 -19.604   2.416  1.00  0.00     0.454 C 
HETATM   33  F   UNL     1      44.625 -18.593   2.038  1.00  0.00    -0.163 F 
HETATM   34  F   UNL     1      44.225 -20.709   1.747  1.00  0.00    -0.163 F 
HETATM   35  F   UNL     1      42.567 -19.313   1.909  1.00  0.00    -0.163 F 
ENDBRANCH  27  32
ENDBRANCH   4  23
TORSDOF 6
ENDMDL
MODEL 4
REMARK VINA RESULT:      -8.9      3.988      8.266
REMARK  6 active torsions:
REMARK  status: ('A' for Active; 'I' for Inactive)
REMARK    1  A    between atoms: C_2  and  C_3 
REMARK    2  A    between atoms: C_5  and  N_6 
REMARK       I    between atoms: N_6  and  C_7 
REMARK    3  A    between atoms: C_7  and  C_8 
REMARK    4  A    between atoms: N_11  and  C_12 
REMARK    5  A    between atoms: C_18  and  C_19 
REMARK    6  A    between atoms: C_28  and  O_29 
ROOT
HETATM    1  C   UNL     1      41.117 -11.854   5.070  1.00  0.00     0.081 C 
HETATM    2  C   UNL     1      41.583 -12.599   3.805  1.00  0.00     0.034 C 
HETATM    3  C   UNL     1      40.444 -12.940   2.838  1.00  0.00     0.125 C 
HETATM    4  N   UNL     1      39.647 -11.747   2.515  1.00  0.00    -0.364 N 
HETATM    5  C   UNL     1      39.130 -11.062   3.714  1.00  0.00     0.125 C 
HETATM    6  C   UNL     1      40.269 -10.656   4.636  1.00  0.00     0.034 C 
ENDROOT
BRANCH   1   7
HETATM    7  C   UNL     1      40.381 -12.786   6.030  1.00  0.00     0.226 C 
HETATM    8  N   UNL     1      40.776 -14.059   6.292  1.00  0.00    -0.324 N 
HETATM    9  H   UNL     1      40.261 -14.419   7.090  1.00  0.00     0.169 HD
HETATM   10  O   UNL     1      39.381 -12.391   6.641  1.00  0.00    -0.273 OA
BRANCH   8  11
HETATM   11  C   UNL     1      41.769 -14.937   5.814  1.00  0.00     0.068 A 
HETATM   12  C   UNL     1      41.753 -15.604   4.588  1.00  0.00     0.040 A 
HETATM   13  C   UNL     1      42.857 -16.363   4.131  1.00  0.00    -0.048 A 
HETATM   14  C   UNL     1      43.978 -16.454   4.976  1.00  0.00     0.011 A 
HETATM   15  C   UNL     1      43.983 -15.859   6.236  1.00  0.00     0.039 A 
HETATM   16  C   UNL     1      42.877 -15.130   6.648  1.00  0.00     0.092 A 
BRANCH  13  17
HETATM   17  C   UNL     1      42.867 -16.982   2.718  1.00  0.00    -0.024 C 
HETATM   18  C   UNL     1      41.404 -17.185   2.279  1.00  0.00     0.019 C 
HETATM   19  C   UNL     1      43.587 -18.351   2.667  1.00  0.00     0.019 C 
HETATM   20  C   UNL     1      43.574 -16.079   1.681  1.00  0.00     0.019 C 
ENDBRANCH  13  17
BRANCH  16  21
HETATM   21  O   UNL     1      42.908 -14.579   7.901  1.00  0.00    -0.358 OA
HETATM   22  H   UNL     1      43.790 -14.176   7.990  1.00  0.00     0.218 HD
ENDBRANCH  16  21
ENDBRANCH   8  11
ENDBRANCH   1   7
BRANCH   4  23
HETATM   23  C   UNL     1      38.907 -11.634   1.329  1.00  0.00     0.146 A 
HETATM   24  N   UNL     1      39.122 -12.533   0.394  1.00  0.00    -0.146 NA
HETATM   25  N   UNL     1      38.390 -12.401  -0.738  1.00  0.00    -0.188 N 
HETATM   26  C   UNL     1      37.455 -11.434  -1.019  1.00  0.00     0.175 A 
HETATM   27  C   UNL     1      38.425 -13.204  -1.844  1.00  0.00     0.258 A 
HETATM   28  C   UNL     1      37.206 -10.475  -0.024  1.00  0.00     0.058 A 
HETATM   29  N   UNL     1      36.960 -11.629  -2.221  1.00  0.00    -0.128 NA
HETATM   30  C   UNL     1      37.885 -10.542   1.129  1.00  0.00     0.056 A 
HETATM   31  N   UNL     1      37.571 -12.746  -2.745  1.00  0.00    -0.123 NA
BRANCH  27  32
HETATM   32  C   UNL     1      39.315 -14.371  -1.905  1.00  0.00     0.454 C 
HETATM   33  F   UNL     1      39.164 -15.200  -0.836  1.00  0.00    -0.163 F 
HETATM   34  F   UNL     1      39.091 -15.138  -3.007  1.00  0.00    -0.163 F 
HETATM   35  F   UNL     1      40.630 -14.025  -1.950  1.00  0.00    -0.163 F 
ENDBRANCH  27  32
ENDBRANCH   4  23
TORSDOF 6
ENDMDL
MODEL 5
REMARK VINA RESULT:      -8.8      5.380      9.334
REMARK  6 active torsions:
REMARK  status: ('A' for Active; 'I' for Inactive)
REMARK    1  A    between atoms: C_2  and  C_3 
REMARK    2  A    between atoms: C_5  and  N_6 
REMARK       I    between atoms: N_6  and  C_7 
REMARK    3  A    between atoms: C_7  and  C_8 
REMARK    4  A    between atoms: N_11  and  C_12 
REMARK    5  A    between atoms: C_18  and  C_19 
REMARK    6  A    between atoms: C_28  and  O_29 
ROOT
HETATM    1  C   UNL     1      42.199 -11.659   5.157  1.00  0.00     0.081 C 
HETATM    2  C   UNL     1      42.709 -11.073   3.827  1.00  0.00     0.034 C 
HETATM    3  C   UNL     1      42.672 -12.068   2.662  1.00  0.00     0.125 C 
HETATM    4  N   UNL     1      41.339 -12.674   2.524  1.00  0.00    -0.364 N 
HETATM    5  C   UNL     1      40.866 -13.307   3.770  1.00  0.00     0.125 C 
HETATM    6  C   UNL     1      40.831 -12.297   4.906  1.00  0.00     0.034 C 
ENDROOT
BRANCH   1   7
HETATM    7  C   UNL     1      43.207 -12.633   5.762  1.00  0.00     0.226 C 
HETATM    8  N   UNL     1      44.085 -12.294   6.742  1.00  0.00    -0.324 N 
HETATM    9  H   UNL     1      44.518 -13.133   7.118  1.00  0.00     0.169 HD
HETATM   10  O   UNL     1      43.242 -13.811   5.384  1.00  0.00    -0.273 OA
BRANCH   8  11
HETATM   11  C   UNL     1      44.451 -11.114   7.418  1.00  0.00     0.068 A 
HETATM   12  C   UNL     1      43.657 -10.403   8.319  1.00  0.00     0.040 A 
HETATM   13  C   UNL     1      44.154  -9.301   9.053  1.00  0.00    -0.048 A 
HETATM   14  C   UNL     1      45.487  -8.915   8.823  1.00  0.00     0.011 A 
HETATM   15  C   UNL     1      46.273  -9.562   7.872  1.00  0.00     0.039 A 
HETATM   16  C   UNL     1      45.743 -10.634   7.169  1.00  0.00     0.092 A 
BRANCH  13  17
HETATM   17  C   UNL     1      43.298  -8.614  10.138  1.00  0.00    -0.024 C 
HETATM   18  C   UNL     1      41.879  -9.213  10.071  1.00  0.00     0.019 C 
HETATM   19  C   UNL     1      43.192  -7.084   9.941  1.00  0.00     0.019 C 
HETATM   20  C   UNL     1      43.860  -8.833  11.562  1.00  0.00     0.019 C 
ENDBRANCH  13  17
BRANCH  16  21
HETATM   21  O   UNL     1      46.536 -11.231   6.226  1.00  0.00    -0.358 OA
HETATM   22  H   UNL     1      46.833 -10.514   5.638  1.00  0.00     0.218 HD
ENDBRANCH  16  21
ENDBRANCH   8  11
ENDBRANCH   1   7
BRANCH   4  23
HETATM   23  C   UNL     1      40.871 -13.195   1.310  1.00  0.00     0.146 A 
HETATM   24  N   UNL     1      40.915 -12.409   0.257  1.00  0.00    -0.146 NA
HETATM   25  N   UNL     1      40.460 -12.941  -0.903  1.00  0.00    -0.188 N 
HETATM   26  C   UNL     1      39.956 -14.204  -1.101  1.00  0.00     0.175 A 
HETATM   27  C   UNL     1      40.406 -12.334  -2.127  1.00  0.00     0.258 A 
HETATM   28  C   UNL     1      39.916 -15.059   0.013  1.00  0.00     0.058 A 
HETATM   29  N   UNL     1      39.609 -14.353  -2.360  1.00  0.00    -0.128 NA
HETATM   30  C   UNL     1      40.355 -14.609   1.195  1.00  0.00     0.056 A 
HETATM   31  N   UNL     1      39.892 -13.173  -3.011  1.00  0.00    -0.123 NA
BRANCH  27  32
HETATM   32  C   UNL     1      40.880 -10.956  -2.310  1.00  0.00     0.454 C 
HETATM   33  F   UNL     1      42.121 -10.756  -1.790  1.00  0.00    -0.163 F 
HETATM   34  F   UNL     1      40.964 -10.605  -3.622  1.00  0.00    -0.163 F 
HETATM   35  F   UNL     1      40.059 -10.038  -1.729  1.00  0.00    -0.163 F 
ENDBRANCH  27  32
ENDBRANCH   4  23
TORSDOF 6
ENDMDL
MODEL 6
REMARK VINA RESULT:      -8.8      2.303      3.327
REMARK  6 active torsions:
REMARK  status: ('A' for Active; 'I' for Inactive)
REMARK    1  A    between atoms: C_2  and  C_3 
REMARK    2  A    between atoms: C_5  and  N_6 
REMARK       I    between atoms: N_6  and  C_7 
REMARK    3  A    between atoms: C_7  and  C_8 
REMARK    4  A    between atoms: N_11  and  C_12 
REMARK    5  A    between atoms: C_18  and  C_19 
REMARK    6  A    between atoms: C_28  and  O_29 
ROOT
HETATM    1  C   UNL     1      39.257 -11.627   3.860  1.00  0.00     0.081 C 
HETATM    2  C   UNL     1      39.198 -12.985   3.134  1.00  0.00     0.034 C 
HETATM    3  C   UNL     1      40.455 -13.839   3.326  1.00  0.00     0.125 C 
HETATM    4  N   UNL     1      40.783 -13.989   4.751  1.00  0.00    -0.364 N 
HETATM    5  C   UNL     1      40.918 -12.695   5.446  1.00  0.00     0.125 C 
HETATM    6  C   UNL     1      39.640 -11.880   5.319  1.00  0.00     0.034 C 
ENDROOT
BRANCH   1   7
HETATM    7  C   UNL     1      40.204 -10.658   3.157  1.00  0.00     0.226 C 
HETATM    8  N   UNL     1      40.131 -10.363   1.832  1.00  0.00    -0.324 N 
HETATM    9  H   UNL     1      40.725  -9.565   1.626  1.00  0.00     0.169 HD
HETATM   10  O   UNL     1      41.084 -10.068   3.796  1.00  0.00    -0.273 OA
BRANCH   8  11
HETATM   11  C   UNL     1      39.377 -10.809   0.729  1.00  0.00     0.068 A 
HETATM   12  C   UNL     1      39.728 -11.840  -0.143  1.00  0.00     0.040 A 
HETATM   13  C   UNL     1      38.848 -12.311  -1.146  1.00  0.00    -0.048 A 
HETATM   14  C   UNL     1      37.596 -11.678  -1.260  1.00  0.00     0.011 A 
HETATM   15  C   UNL     1      37.256 -10.597  -0.450  1.00  0.00     0.039 A 
HETATM   16  C   UNL     1      38.153 -10.163   0.515  1.00  0.00     0.092 A 
BRANCH  13  17
HETATM   17  C   UNL     1      39.207 -13.536  -2.011  1.00  0.00    -0.024 C 
HETATM   18  C   UNL     1      40.498 -13.207  -2.785  1.00  0.00     0.019 C 
HETATM   19  C   UNL     1      38.103 -13.895  -3.033  1.00  0.00     0.019 C 
HETATM   20  C   UNL     1      39.448 -14.808  -1.165  1.00  0.00     0.019 C 
ENDBRANCH  13  17
BRANCH  16  21
HETATM   21  O   UNL     1      37.795  -9.083   1.278  1.00  0.00    -0.358 OA
HETATM   22  H   UNL     1      37.740  -9.413   2.192  1.00  0.00     0.218 HD
ENDBRANCH  16  21
ENDBRANCH   8  11
ENDBRANCH   1   7
BRANCH   4  23
HETATM   23  C   UNL     1      41.522 -15.073   5.245  1.00  0.00     0.146 A 
HETATM   24  N   UNL     1      42.006 -15.924   4.367  1.00  0.00    -0.146 NA
HETATM   25  N   UNL     1      42.719 -16.960   4.872  1.00  0.00    -0.188 N 
HETATM   26  C   UNL     1      42.988 -17.221   6.195  1.00  0.00     0.175 A 
HETATM   27  C   UNL     1      43.324 -17.967   4.174  1.00  0.00     0.258 A 
HETATM   28  C   UNL     1      42.488 -16.312   7.141  1.00  0.00     0.058 A 
HETATM   29  N   UNL     1      43.702 -18.320   6.295  1.00  0.00    -0.128 NA
HETATM   30  C   UNL     1      41.779 -15.257   6.721  1.00  0.00     0.056 A 
HETATM   31  N   UNL     1      43.916 -18.794   5.020  1.00  0.00    -0.123 NA
BRANCH  27  32
HETATM   32  C   UNL     1      43.261 -18.014   2.707  1.00  0.00     0.454 C 
HETATM   33  F   UNL     1      41.985 -18.080   2.239  1.00  0.00    -0.163 F 
HETATM   34  F   UNL     1      43.815 -16.914   2.128  1.00  0.00    -0.163 F 
HETATM   35  F   UNL     1      43.925 -19.084   2.189  1.00  0.00    -0.163 F 
ENDBRANCH  27  32
ENDBRANCH   4  23
TORSDOF 6
ENDMDL
MODEL 7
REMARK VINA RESULT:      -8.8      6.065      9.157
REMARK  6 active torsions:
REMARK  status: ('A' for Active; 'I' for Inactive)
REMARK    1  A    between atoms: C_2  and  C_3 
REMARK    2  A    between atoms: C_5  and  N_6 
REMARK       I    between atoms: N_6  and  C_7 
REMARK    3  A    between atoms: C_7  and  C_8 
REMARK    4  A    between atoms: N_11  and  C_12 
REMARK    5  A    between atoms: C_18  and  C_19 
REMARK    6  A    between atoms: C_28  and  O_29 
ROOT
HETATM    1  C   UNL     1      41.303 -12.162   3.760  1.00  0.00     0.081 C 
HETATM    2  C   UNL     1      41.176 -10.719   4.283  1.00  0.00     0.034 C 
HETATM    3  C   UNL     1      41.493 -10.576   5.776  1.00  0.00     0.125 C 
HETATM    4  N   UNL     1      42.799 -11.168   6.100  1.00  0.00    -0.364 N 
HETATM    5  C   UNL     1      42.912 -12.575   5.673  1.00  0.00     0.125 C 
HETATM    6  C   UNL     1      42.672 -12.704   4.176  1.00  0.00     0.034 C 
ENDROOT
BRANCH   1   7
HETATM    7  C   UNL     1      40.148 -13.036   4.242  1.00  0.00     0.226 C 
HETATM    8  N   UNL     1      40.199 -14.393   4.288  1.00  0.00    -0.324 N 
HETATM    9  H   UNL     1      39.405 -14.748   4.813  1.00  0.00     0.169 HD
HETATM   10  O   UNL     1      39.098 -12.519   4.644  1.00  0.00    -0.273 OA
BRANCH   8  11
HETATM   11  C   UNL     1      41.111 -15.392   3.894  1.00  0.00     0.068 A 
HETATM   12  C   UNL     1      42.114 -15.948   4.689  1.00  0.00     0.040 A 
HETATM   13  C   UNL     1      42.900 -17.041   4.253  1.00  0.00    -0.048 A 
HETATM   14  C   UNL     1      42.658 -17.541   2.961  1.00  0.00     0.011 A 
HETATM   15  C   UNL     1      41.714 -16.950   2.123  1.00  0.00     0.039 A 
HETATM   16  C   UNL     1      40.971 -15.876   2.587  1.00  0.00     0.092 A 
BRANCH  13  17
HETATM   17  C   UNL     1      43.911 -17.722   5.198  1.00  0.00    -0.024 C 
HETATM   18  C   UNL     1      44.781 -18.675   4.354  1.00  0.00     0.019 C 
HETATM   19  C   UNL     1      43.230 -18.546   6.316  1.00  0.00     0.019 C 
HETATM   20  C   UNL     1      44.837 -16.706   5.907  1.00  0.00     0.019 C 
ENDBRANCH  13  17
BRANCH  16  21
HETATM   21  O   UNL     1      40.070 -15.306   1.728  1.00  0.00    -0.358 OA
HETATM   22  H   UNL     1      39.267 -15.147   2.256  1.00  0.00     0.218 HD
ENDBRANCH  16  21
ENDBRANCH   8  11
ENDBRANCH   1   7
BRANCH   4  23
HETATM   23  C   UNL     1      43.557 -10.760   7.207  1.00  0.00     0.146 A 
HETATM   24  N   UNL     1      42.921 -10.153   8.185  1.00  0.00    -0.146 NA
HETATM   25  N   UNL     1      43.678  -9.775   9.243  1.00  0.00    -0.188 N 
HETATM   26  C   UNL     1      45.031  -9.950   9.406  1.00  0.00     0.175 A 
HETATM   27  C   UNL     1      43.256  -9.137  10.376  1.00  0.00     0.258 A 
HETATM   28  C   UNL     1      45.720 -10.609   8.375  1.00  0.00     0.058 A 
HETATM   29  N   UNL     1      45.410  -9.444  10.558  1.00  0.00    -0.128 NA
HETATM   30  C   UNL     1      45.041 -11.022   7.297  1.00  0.00     0.056 A 
HETATM   31  N   UNL     1      44.291  -8.929  11.174  1.00  0.00    -0.123 NA
BRANCH  27  32
HETATM   32  C   UNL     1      41.841  -8.790  10.567  1.00  0.00     0.454 C 
HETATM   33  F   UNL     1      41.346  -8.032   9.553  1.00  0.00    -0.163 F 
HETATM   34  F   UNL     1      41.042  -9.890  10.636  1.00  0.00    -0.163 F 
HETATM   35  F   UNL     1      41.623  -8.097  11.718  1.00  0.00    -0.163 F 
ENDBRANCH  27  32
ENDBRANCH   4  23
TORSDOF 6
ENDMDL
MODEL 8
REMARK VINA RESULT:      -8.7      7.082      9.737
REMARK  6 active torsions:
REMARK  status: ('A' for Active; 'I' for Inactive)
REMARK    1  A    between atoms: C_2  and  C_3 
REMARK    2  A    between atoms: C_5  and  N_6 
REMARK       I    between atoms: N_6  and  C_7 
REMARK    3  A    between atoms: C_7  and  C_8 
REMARK    4  A    between atoms: N_11  and  C_12 
REMARK    5  A    between atoms: C_18  and  C_19 
REMARK    6  A    between atoms: C_28  and  O_29 
ROOT
HETATM    1  C   UNL     1      44.024 -12.842   5.905  1.00  0.00     0.081 C 
HETATM    2  C   UNL     1      42.908 -11.953   5.325  1.00  0.00     0.034 C 
HETATM    3  C   UNL     1      42.189 -11.103   6.378  1.00  0.00     0.125 C 
HETATM    4  N   UNL     1      43.148 -10.332   7.183  1.00  0.00    -0.364 N 
HETATM    5  C   UNL     1      44.182 -11.177   7.808  1.00  0.00     0.125 C 
HETATM    6  C   UNL     1      44.945 -11.962   6.752  1.00  0.00     0.034 C 
ENDROOT
BRANCH   1   7
HETATM    7  C   UNL     1      43.450 -14.023   6.683  1.00  0.00     0.226 C 
HETATM    8  N   UNL     1      42.916 -15.125   6.093  1.00  0.00    -0.324 N 
HETATM    9  H   UNL     1      42.776 -15.852   6.788  1.00  0.00     0.169 HD
HETATM   10  O   UNL     1      43.476 -14.030   7.920  1.00  0.00    -0.273 OA
BRANCH   8  11
HETATM   11  C   UNL     1      42.619 -15.532   4.777  1.00  0.00     0.068 A 
HETATM   12  C   UNL     1      41.664 -14.960   3.936  1.00  0.00     0.040 A 
HETATM   13  C   UNL     1      41.525 -15.347   2.582  1.00  0.00    -0.048 A 
HETATM   14  C   UNL     1      42.370 -16.366   2.107  1.00  0.00     0.011 A 
HETATM   15  C   UNL     1      43.278 -17.004   2.952  1.00  0.00     0.039 A 
HETATM   16  C   UNL     1      43.377 -16.597   4.274  1.00  0.00     0.092 A 
BRANCH  13  17
HETATM   17  C   UNL     1      40.553 -14.610   1.638  1.00  0.00    -0.024 C 
HETATM   18  C   UNL     1      39.859 -15.665   0.755  1.00  0.00     0.019 C 
HETATM   19  C   UNL     1      41.266 -13.593   0.716  1.00  0.00     0.019 C 
HETATM   20  C   UNL     1      39.469 -13.818   2.406  1.00  0.00     0.019 C 
ENDBRANCH  13  17
BRANCH  16  21
HETATM   21  O   UNL     1      44.262 -17.262   5.080  1.00  0.00    -0.358 OA
HETATM   22  H   UNL     1      43.764 -17.492   5.884  1.00  0.00     0.218 HD
ENDBRANCH  16  21
ENDBRANCH   8  11
ENDBRANCH   1   7
BRANCH   4  23
HETATM   23  C   UNL     1      42.798  -9.141   7.835  1.00  0.00     0.146 A 
HETATM   24  N   UNL     1      43.046  -9.062   9.124  1.00  0.00    -0.146 NA
HETATM   25  N   UNL     1      42.702  -7.899   9.727  1.00  0.00    -0.188 N 
HETATM   26  C   UNL     1      42.121  -6.797   9.145  1.00  0.00     0.175 A 
HETATM   27  C   UNL     1      42.860  -7.571  11.044  1.00  0.00     0.258 A 
HETATM   28  C   UNL     1      41.863  -6.863   7.766  1.00  0.00     0.058 A 
HETATM   29  N   UNL     1      41.929  -5.864  10.050  1.00  0.00    -0.128 NA
HETATM   30  C   UNL     1      42.182  -7.978   7.096  1.00  0.00     0.056 A 
HETATM   31  N   UNL     1      42.394  -6.350  11.252  1.00  0.00    -0.123 NA
BRANCH  27  32
HETATM   32  C   UNL     1      43.470  -8.514  11.991  1.00  0.00     0.454 C 
HETATM   33  F   UNL     1      42.680  -9.593  12.239  1.00  0.00    -0.163 F 
HETATM   34  F   UNL     1      44.653  -9.013  11.536  1.00  0.00    -0.163 F 
HETATM   35  F   UNL     1      43.744  -7.943  13.196  1.00  0.00    -0.163 F 
ENDBRANCH  27  32
ENDBRANCH   4  23
TORSDOF 6
ENDMDL
MODEL 9
REMARK VINA RESULT:      -8.7      5.792      9.059
REMARK  6 active torsions:
REMARK  status: ('A' for Active; 'I' for Inactive)
REMARK    1  A    between atoms: C_2  and  C_3 
REMARK    2  A    between atoms: C_5  and  N_6 
REMARK       I    between atoms: N_6  and  C_7 
REMARK    3  A    between atoms: C_7  and  C_8 
REMARK    4  A    between atoms: N_11  and  C_12 
REMARK    5  A    between atoms: C_18  and  C_19 
REMARK    6  A    between atoms: C_28  and  O_29 
ROOT
HETATM    1  C   UNL     1      41.921 -11.707   3.184  1.00  0.00     0.081 C 
HETATM    2  C   UNL     1      41.538 -10.231   3.399  1.00  0.00     0.034 C 
HETATM    3  C   UNL     1      40.934  -9.947   4.779  1.00  0.00     0.125 C 
HETATM    4  N   UNL     1      41.802 -10.454   5.852  1.00  0.00    -0.364 N 
HETATM    5  C   UNL     1      42.119 -11.887   5.703  1.00  0.00     0.125 C 
HETATM    6  C   UNL     1      42.788 -12.153   4.364  1.00  0.00     0.034 C 
ENDROOT
BRANCH   1   7
HETATM    7  C   UNL     1      40.687 -12.583   2.990  1.00  0.00     0.226 C 
HETATM    8  N   UNL     1      40.726 -13.941   2.955  1.00  0.00    -0.324 N 
HETATM    9  H   UNL     1      39.782 -14.312   3.009  1.00  0.00     0.169 HD
HETATM   10  O   UNL     1      39.566 -12.070   2.880  1.00  0.00    -0.273 OA
BRANCH   8  11
HETATM   11  C   UNL     1      41.727 -14.932   2.970  1.00  0.00     0.068 A 
HETATM   12  C   UNL     1      42.304 -15.499   4.108  1.00  0.00     0.040 A 
HETATM   13  C   UNL     1      43.209 -16.583   4.031  1.00  0.00    -0.048 A 
HETATM   14  C   UNL     1      43.541 -17.064   2.752  1.00  0.00     0.011 A 
HETATM   15  C   UNL     1      43.036 -16.462   1.601  1.00  0.00     0.039 A 
HETATM   16  C   UNL     1      42.157 -15.397   1.721  1.00  0.00     0.092 A 
BRANCH  13  17
HETATM   17  C   UNL     1      43.731 -17.277   5.307  1.00  0.00    -0.024 C 
HETATM   18  C   UNL     1      44.324 -18.639   4.896  1.00  0.00     0.019 C 
HETATM   19  C   UNL     1      42.620 -17.524   6.355  1.00  0.00     0.019 C 
HETATM   20  C   UNL     1      44.830 -16.455   6.020  1.00  0.00     0.019 C 
ENDBRANCH  13  17
BRANCH  16  21
HETATM   21  O   UNL     1      41.699 -14.816   0.569  1.00  0.00    -0.358 OA
HETATM   22  H   UNL     1      41.801 -13.856   0.699  1.00  0.00     0.218 HD
ENDBRANCH  16  21
ENDBRANCH   8  11
ENDBRANCH   1   7
BRANCH   4  23
HETATM   23  C   UNL     1      41.786  -9.921   7.149  1.00  0.00     0.146 A 
HETATM   24  N   UNL     1      42.936  -9.828   7.779  1.00  0.00    -0.146 NA
HETATM   25  N   UNL     1      42.890  -9.306   9.028  1.00  0.00    -0.188 N 
HETATM   26  C   UNL     1      41.780  -8.868   9.709  1.00  0.00     0.175 A 
HETATM   27  C   UNL     1      43.941  -9.102   9.879  1.00  0.00     0.258 A 
HETATM   28  C   UNL     1      40.547  -8.949   9.043  1.00  0.00     0.058 A 
HETATM   29  N   UNL     1      42.130  -8.435  10.900  1.00  0.00    -0.128 NA
HETATM   30  C   UNL     1      40.509  -9.448   7.800  1.00  0.00     0.056 A 
HETATM   31  N   UNL     1      43.494  -8.581  11.010  1.00  0.00    -0.123 NA
BRANCH  27  32
HETATM   32  C   UNL     1      45.313  -9.444   9.482  1.00  0.00     0.454 C 
HETATM   33  F   UNL     1      45.420 -10.716   9.012  1.00  0.00    -0.163 F 
HETATM   34  F   UNL     1      45.784  -8.639   8.491  1.00  0.00    -0.163 F 
HETATM   35  F   UNL     1      46.199  -9.330  10.510  1.00  0.00    -0.163 F 
ENDBRANCH  27  32
ENDBRANCH   4  23
TORSDOF 6
ENDMDL
MODEL 10
REMARK VINA RESULT:      -8.6     15.392     17.343
REMARK  6 active torsions:
REMARK  status: ('A' for Active; 'I' for Inactive)
REMARK    1  A    between atoms: C_2  and  C_3 
REMARK    2  A    between atoms: C_5  and  N_6 
REMARK       I    between atoms: N_6  and  C_7 
REMARK    3  A    between atoms: C_7  and  C_8 
REMARK    4  A    between atoms: N_11  and  C_12 
REMARK    5  A    between atoms: C_18  and  C_19 
REMARK    6  A    between atoms: C_28  and  O_29 
ROOT
HETATM    1  C   UNL     1      42.963 -30.991   1.291  1.00  0.00     0.081 C 
HETATM    2  C   UNL     1      43.479 -31.154   2.733  1.00  0.00     0.034 C 
HETATM    3  C   UNL     1      42.407 -30.909   3.801  1.00  0.00     0.125 C 
HETATM    4  N   UNL     1      41.210 -31.724   3.547  1.00  0.00    -0.364 N 
HETATM    5  C   UNL     1      40.658 -31.524   2.194  1.00  0.00     0.125 C 
HETATM    6  C   UNL     1      41.702 -31.841   1.134  1.00  0.00     0.034 C 
ENDROOT
BRANCH   1   7
HETATM    7  C   UNL     1      42.737 -29.522   0.941  1.00  0.00     0.226 C 
HETATM    8  N   UNL     1      43.341 -28.896  -0.103  1.00  0.00    -0.324 N 
HETATM    9  H   UNL     1      42.903 -27.993  -0.260  1.00  0.00     0.169 HD
HETATM   10  O   UNL     1      41.949 -28.835   1.604  1.00  0.00    -0.273 OA
BRANCH   8  11
HETATM   11  C   UNL     1      44.320 -29.226  -1.060  1.00  0.00     0.068 A 
HETATM   12  C   UNL     1      44.156 -30.101  -2.135  1.00  0.00     0.040 A 
HETATM   13  C   UNL     1      45.153 -30.272  -3.125  1.00  0.00    -0.048 A 
HETATM   14  C   UNL     1      46.348 -29.546  -2.976  1.00  0.00     0.011 A 
HETATM   15  C   UNL     1      46.562 -28.726  -1.869  1.00  0.00     0.039 A 
HETATM   16  C   UNL     1      45.561 -28.593  -0.919  1.00  0.00     0.092 A 
BRANCH  13  17
HETATM   17  C   UNL     1      44.896 -31.143  -4.372  1.00  0.00    -0.024 C 
HETATM   18  C   UNL     1      46.264 -31.531  -4.968  1.00  0.00     0.019 C 
HETATM   19  C   UNL     1      44.080 -30.408  -5.461  1.00  0.00     0.019 C 
HETATM   20  C   UNL     1      44.117 -32.437  -4.040  1.00  0.00     0.019 C 
ENDBRANCH  13  17
BRANCH  16  21
HETATM   21  O   UNL     1      45.816 -27.798   0.167  1.00  0.00    -0.358 OA
HETATM   22  H   UNL     1      45.087 -27.153   0.198  1.00  0.00     0.218 HD
ENDBRANCH  16  21
ENDBRANCH   8  11
ENDBRANCH   1   7
BRANCH   4  23
HETATM   23  C   UNL     1      40.320 -32.094   4.565  1.00  0.00     0.146 A 
HETATM   24  N   UNL     1      39.201 -32.683   4.206  1.00  0.00    -0.146 NA
HETATM   25  N   UNL     1      38.363 -33.033   5.212  1.00  0.00    -0.188 N 
HETATM   26  C   UNL     1      38.550 -32.839   6.559  1.00  0.00     0.175 A 
HETATM   27  C   UNL     1      37.152 -33.657   5.100  1.00  0.00     0.258 A 
HETATM   28  C   UNL     1      39.747 -32.223   6.957  1.00  0.00     0.058 A 
HETATM   29  N   UNL     1      37.516 -33.305   7.224  1.00  0.00    -0.128 NA
HETATM   30  C   UNL     1      40.632 -31.853   6.023  1.00  0.00     0.056 A 
HETATM   31  N   UNL     1      36.630 -33.822   6.305  1.00  0.00    -0.123 NA
BRANCH  27  32
HETATM   32  C   UNL     1      36.616 -34.040   3.787  1.00  0.00     0.454 C 
HETATM   33  F   UNL     1      36.405 -32.970   2.974  1.00  0.00    -0.163 F 
HETATM   34  F   UNL     1      37.455 -34.868   3.106  1.00  0.00    -0.163 F 
HETATM   35  F   UNL     1      35.430 -34.702   3.878  1.00  0.00    -0.163 F 
ENDBRANCH  27  32
ENDBRANCH   4  23
TORSDOF 6
ENDMDL
