MODEL 1
REMARK VINA RESULT:      -8.0      0.000      0.000
REMARK  3 active torsions:
REMARK  status: ('A' for Active; 'I' for Inactive)
REMARK    1  A    between atoms: C_11  and  N_12 
REMARK       I    between atoms: N_12  and  C_13 
REMARK       I    between atoms: C_13  and  N_14 
REMARK    2  A    between atoms: N_14  and  C_15 
REMARK    3  A    between atoms: C_16  and  O_17 
ROOT
HETATM    1  N   UNL     1      42.376 -14.668   3.886  1.00  0.00    -0.338 N 
HETATM    2  C   UNL     1      42.445 -16.011   4.161  1.00  0.00     0.321 C 
HETATM    3  N   UNL     1      43.513 -16.660   3.600  1.00  0.00    -0.306 N 
HETATM    4  O   UNL     1      41.585 -16.483   4.894  1.00  0.00    -0.247 OA
HETATM    5  H   UNL     1      41.599 -14.286   4.410  1.00  0.00     0.164 HD
HETATM    6  H   UNL     1      44.376 -16.147   3.712  1.00  0.00     0.171 HD
ENDROOT
BRANCH   1   7
HETATM    7  C   UNL     1      42.840 -14.030   2.665  1.00  0.00     0.091 C 
HETATM    8  C   UNL     1      42.777 -12.502   2.732  1.00  0.00     0.063 C 
HETATM    9  C   UNL     1      41.403 -11.860   2.480  1.00  0.00     0.121 C 
HETATM   10  N   UNL     1      40.711 -12.525   1.312  1.00  0.00    -0.059 N 
HETATM   11  C   UNL     1      40.481 -11.855   3.705  1.00  0.00     0.046 C 
HETATM   12  C   UNL     1      41.612 -10.386   2.068  1.00  0.00     0.046 C 
HETATM   13  C   UNL     1      40.732 -14.033   1.151  1.00  0.00     0.121 C 
HETATM   14  H   UNL     1      41.120 -12.130   0.452  1.00  0.00     0.279 HD
HETATM   15  H   UNL     1      39.729 -12.209   1.284  1.00  0.00     0.279 HD
HETATM   16  C   UNL     1      39.662 -14.681   2.034  1.00  0.00     0.046 C 
HETATM   17  C   UNL     1      40.341 -14.305  -0.317  1.00  0.00     0.046 C 
HETATM   18  C   UNL     1      42.153 -14.556   1.399  1.00  0.00     0.063 C 
ENDBRANCH   1   7
BRANCH   3  19
HETATM   19  C   UNL     1      43.635 -18.071   3.610  1.00  0.00     0.072 A 
HETATM   20  C   UNL     1      44.046 -18.797   4.750  1.00  0.00     0.095 A 
HETATM   21  C   UNL     1      44.179 -20.190   4.662  1.00  0.00     0.042 A 
HETATM   22  C   UNL     1      43.888 -20.854   3.468  1.00  0.00     0.045 A 
HETATM   23  C   UNL     1      43.438 -20.131   2.373  1.00  0.00     0.118 A 
HETATM   24  F   UNL     1      43.140 -20.770   1.235  1.00  0.00    -0.206 F 
HETATM   25  C   UNL     1      43.295 -18.750   2.435  1.00  0.00     0.074 A 
BRANCH  20  26
HETATM   26  O   UNL     1      44.187 -18.094   5.922  1.00  0.00    -0.354 OA
HETATM   27  C   UNL     1      43.385 -18.522   7.017  1.00  0.00     0.210 C 
ENDBRANCH  20  26
ENDBRANCH   3  19
TORSDOF 3
ENDMDL
MODEL 2
REMARK VINA RESULT:      -7.9      1.721      3.064
REMARK  3 active torsions:
REMARK  status: ('A' for Active; 'I' for Inactive)
REMARK    1  A    between atoms: C_11  and  N_12 
REMARK       I    between atoms: N_12  and  C_13 
REMARK       I    between atoms: C_13  and  N_14 
REMARK    2  A    between atoms: N_14  and  C_15 
REMARK    3  A    between atoms: C_16  and  O_17 
ROOT
HETATM    1  N   UNL     1      41.801 -14.921   0.727  1.00  0.00    -0.338 N 
HETATM    2  C   UNL     1      42.670 -15.706   1.443  1.00  0.00     0.321 C 
HETATM    3  N   UNL     1      42.145 -16.892   1.883  1.00  0.00    -0.306 N 
HETATM    4  O   UNL     1      43.815 -15.297   1.586  1.00  0.00    -0.247 OA
HETATM    5  H   UNL     1      42.317 -14.117   0.393  1.00  0.00     0.164 HD
HETATM    6  H   UNL     1      41.617 -17.369   1.165  1.00  0.00     0.171 HD
ENDROOT
BRANCH   1   7
HETATM    7  C   UNL     1      40.362 -14.858   0.921  1.00  0.00     0.091 C 
HETATM    8  C   UNL     1      39.616 -14.363  -0.320  1.00  0.00     0.063 C 
HETATM    9  C   UNL     1      39.596 -12.843  -0.549  1.00  0.00     0.121 C 
HETATM   10  N   UNL     1      39.329 -12.114   0.749  1.00  0.00    -0.059 N 
HETATM   11  C   UNL     1      40.864 -12.294  -1.210  1.00  0.00     0.046 C 
HETATM   12  C   UNL     1      38.414 -12.497  -1.482  1.00  0.00     0.046 C 
HETATM   13  C   UNL     1      40.009 -12.541   2.035  1.00  0.00     0.121 C 
HETATM   14  H   UNL     1      38.314 -12.162   0.921  1.00  0.00     0.279 HD
HETATM   15  H   UNL     1      39.507 -11.108   0.606  1.00  0.00     0.279 HD
HETATM   16  C   UNL     1      41.426 -11.964   2.110  1.00  0.00     0.046 C 
HETATM   17  C   UNL     1      39.193 -11.898   3.177  1.00  0.00     0.046 C 
HETATM   18  C   UNL     1      39.946 -14.068   2.168  1.00  0.00     0.063 C 
ENDBRANCH   1   7
BRANCH   3  19
HETATM   19  C   UNL     1      42.827 -17.732   2.798  1.00  0.00     0.072 A 
HETATM   20  C   UNL     1      43.107 -17.349   4.128  1.00  0.00     0.095 A 
HETATM   21  C   UNL     1      43.822 -18.225   4.956  1.00  0.00     0.042 A 
HETATM   22  C   UNL     1      44.234 -19.472   4.478  1.00  0.00     0.045 A 
HETATM   23  C   UNL     1      43.907 -19.852   3.185  1.00  0.00     0.118 A 
HETATM   24  F   UNL     1      44.285 -21.055   2.734  1.00  0.00    -0.206 F 
HETATM   25  C   UNL     1      43.197 -19.003   2.345  1.00  0.00     0.074 A 
BRANCH  20  26
HETATM   26  O   UNL     1      42.558 -16.168   4.568  1.00  0.00    -0.354 OA
HETATM   27  C   UNL     1      41.393 -16.275   5.379  1.00  0.00     0.210 C 
ENDBRANCH  20  26
ENDBRANCH   3  19
TORSDOF 3
ENDMDL
MODEL 3
REMARK VINA RESULT:      -7.9      2.446      3.932
REMARK  3 active torsions:
REMARK  status: ('A' for Active; 'I' for Inactive)
REMARK    1  A    between atoms: C_11  and  N_12 
REMARK       I    between atoms: N_12  and  C_13 
REMARK       I    between atoms: C_13  and  N_14 
REMARK    2  A    between atoms: N_14  and  C_15 
REMARK    3  A    between atoms: C_16  and  O_17 
ROOT
HETATM    1  N   UNL     1      41.647 -15.008   0.757  1.00  0.00    -0.338 N 
HETATM    2  C   UNL     1      42.497 -15.507   1.712  1.00  0.00     0.321 C 
HETATM    3  N   UNL     1      42.034 -16.613   2.374  1.00  0.00    -0.306 N 
HETATM    4  O   UNL     1      43.578 -14.950   1.853  1.00  0.00    -0.247 OA
HETATM    5  H   UNL     1      42.122 -14.248   0.288  1.00  0.00     0.164 HD
HETATM    6  H   UNL     1      41.633 -17.296   1.747  1.00  0.00     0.171 HD
ENDROOT
BRANCH   1   7
HETATM    7  C   UNL     1      40.195 -15.064   0.805  1.00  0.00     0.091 C 
HETATM    8  C   UNL     1      39.549 -14.945  -0.578  1.00  0.00     0.063 C 
HETATM    9  C   UNL     1      39.420 -13.526  -1.155  1.00  0.00     0.121 C 
HETATM   10  N   UNL     1      38.948 -12.560  -0.092  1.00  0.00    -0.059 N 
HETATM   11  C   UNL     1      40.700 -13.000  -1.814  1.00  0.00     0.046 C 
HETATM   12  C   UNL     1      38.322 -13.531  -2.243  1.00  0.00     0.046 C 
HETATM   13  C   UNL     1      39.517 -12.611   1.313  1.00  0.00     0.121 C 
HETATM   14  H   UNL     1      37.928 -12.682  -0.003  1.00  0.00     0.279 HD
HETATM   15  H   UNL     1      39.050 -11.598  -0.449  1.00  0.00     0.279 HD
HETATM   16  C   UNL     1      40.860 -11.878   1.375  1.00  0.00     0.046 C 
HETATM   17  C   UNL     1      38.525 -11.825   2.198  1.00  0.00     0.046 C 
HETATM   18  C   UNL     1      39.575 -14.068   1.792  1.00  0.00     0.063 C 
ENDBRANCH   1   7
BRANCH   3  19
HETATM   19  C   UNL     1      42.682 -17.140   3.518  1.00  0.00     0.072 A 
HETATM   20  C   UNL     1      43.504 -18.288   3.473  1.00  0.00     0.095 A 
HETATM   21  C   UNL     1      44.076 -18.766   4.660  1.00  0.00     0.042 A 
HETATM   22  C   UNL     1      43.853 -18.103   5.870  1.00  0.00     0.045 A 
HETATM   23  C   UNL     1      43.084 -16.949   5.887  1.00  0.00     0.118 A 
HETATM   24  F   UNL     1      42.887 -16.302   7.043  1.00  0.00    -0.206 F 
HETATM   25  C   UNL     1      42.508 -16.453   4.724  1.00  0.00     0.074 A 
BRANCH  20  26
HETATM   26  O   UNL     1      43.784 -18.808   2.233  1.00  0.00    -0.354 OA
HETATM   27  C   UNL     1      43.497 -20.190   2.045  1.00  0.00     0.210 C 
ENDBRANCH  20  26
ENDBRANCH   3  19
TORSDOF 3
ENDMDL
MODEL 4
REMARK VINA RESULT:      -7.5      3.320      7.149
REMARK  3 active torsions:
REMARK  status: ('A' for Active; 'I' for Inactive)
REMARK    1  A    between atoms: C_11  and  N_12 
REMARK       I    between atoms: N_12  and  C_13 
REMARK       I    between atoms: C_13  and  N_14 
REMARK    2  A    between atoms: N_14  and  C_15 
REMARK    3  A    between atoms: C_16  and  O_17 
ROOT
HETATM    1  N   UNL     1      41.027 -13.928   2.912  1.00  0.00    -0.338 N 
HETATM    2  C   UNL     1      40.730 -13.380   1.689  1.00  0.00     0.321 C 
HETATM    3  N   UNL     1      39.502 -13.720   1.189  1.00  0.00    -0.306 N 
HETATM    4  O   UNL     1      41.558 -12.627   1.192  1.00  0.00    -0.247 OA
HETATM    5  H   UNL     1      41.916 -13.549   3.212  1.00  0.00     0.164 HD
HETATM    6  H   UNL     1      38.772 -13.656   1.885  1.00  0.00     0.171 HD
ENDROOT
BRANCH   1   7
HETATM    7  C   UNL     1      40.565 -15.219   3.394  1.00  0.00     0.091 C 
HETATM    8  C   UNL     1      40.824 -15.424   4.889  1.00  0.00     0.063 C 
HETATM    9  C   UNL     1      42.248 -15.847   5.287  1.00  0.00     0.121 C 
HETATM   10  N   UNL     1      42.768 -16.912   4.348  1.00  0.00    -0.059 N 
HETATM   11  C   UNL     1      43.245 -14.686   5.370  1.00  0.00     0.046 C 
HETATM   12  C   UNL     1      42.198 -16.501   6.686  1.00  0.00     0.046 C 
HETATM   13  C   UNL     1      42.545 -16.806   2.851  1.00  0.00     0.121 C 
HETATM   14  H   UNL     1      42.353 -17.808   4.646  1.00  0.00     0.279 HD
HETATM   15  H   UNL     1      43.777 -17.040   4.518  1.00  0.00     0.279 HD
HETATM   16  C   UNL     1      43.584 -15.874   2.220  1.00  0.00     0.046 C 
HETATM   17  C   UNL     1      42.797 -18.221   2.287  1.00  0.00     0.046 C 
HETATM   18  C   UNL     1      41.091 -16.404   2.575  1.00  0.00     0.063 C 
ENDBRANCH   1   7
BRANCH   3  19
HETATM   19  C   UNL     1      39.110 -13.411  -0.138  1.00  0.00     0.072 A 
HETATM   20  C   UNL     1      38.491 -12.192  -0.490  1.00  0.00     0.095 A 
HETATM   21  C   UNL     1      38.100 -11.984  -1.820  1.00  0.00     0.042 A 
HETATM   22  C   UNL     1      38.338 -12.962  -2.789  1.00  0.00     0.045 A 
HETATM   23  C   UNL     1      38.992 -14.132  -2.435  1.00  0.00     0.118 A 
HETATM   24  F   UNL     1      39.238 -15.061  -3.368  1.00  0.00    -0.206 F 
HETATM   25  C   UNL     1      39.392 -14.362  -1.125  1.00  0.00     0.074 A 
BRANCH  20  26
HETATM   26  O   UNL     1      38.409 -11.228   0.485  1.00  0.00    -0.354 OA
HETATM   27  C   UNL     1      37.117 -10.991   1.035  1.00  0.00     0.210 C 
ENDBRANCH  20  26
ENDBRANCH   3  19
TORSDOF 3
ENDMDL
MODEL 5
REMARK VINA RESULT:      -7.4      2.114      2.894
REMARK  3 active torsions:
REMARK  status: ('A' for Active; 'I' for Inactive)
REMARK    1  A    between atoms: C_11  and  N_12 
REMARK       I    between atoms: N_12  and  C_13 
REMARK       I    between atoms: C_13  and  N_14 
REMARK    2  A    between atoms: N_14  and  C_15 
REMARK    3  A    between atoms: C_16  and  O_17 
ROOT
HETATM    1  N   UNL     1      42.119 -14.730   5.886  1.00  0.00    -0.338 N 
HETATM    2  C   UNL     1      42.159 -16.045   5.496  1.00  0.00     0.321 C 
HETATM    3  N   UNL     1      43.391 -16.492   5.100  1.00  0.00    -0.306 N 
HETATM    4  O   UNL     1      41.120 -16.689   5.571  1.00  0.00    -0.247 OA
HETATM    5  H   UNL     1      41.185 -14.538   6.225  1.00  0.00     0.164 HD
HETATM    6  H   UNL     1      44.126 -16.201   5.730  1.00  0.00     0.171 HD
ENDROOT
BRANCH   1   7
HETATM    7  C   UNL     1      42.956 -13.666   5.357  1.00  0.00     0.091 C 
HETATM    8  C   UNL     1      42.746 -12.331   6.076  1.00  0.00     0.063 C 
HETATM    9  C   UNL     1      41.521 -11.506   5.649  1.00  0.00     0.121 C 
HETATM   10  N   UNL     1      41.381 -11.504   4.143  1.00  0.00    -0.059 N 
HETATM   11  C   UNL     1      40.208 -11.953   6.299  1.00  0.00     0.046 C 
HETATM   12  C   UNL     1      41.749 -10.033   6.058  1.00  0.00     0.046 C 
HETATM   13  C   UNL     1      41.587 -12.774   3.341  1.00  0.00     0.121 C 
HETATM   14  H   UNL     1      42.051 -10.810   3.778  1.00  0.00     0.279 HD
HETATM   15  H   UNL     1      40.460 -11.108   3.897  1.00  0.00     0.279 HD
HETATM   16  C   UNL     1      40.319 -13.633   3.364  1.00  0.00     0.046 C 
HETATM   17  C   UNL     1      41.804 -12.319   1.882  1.00  0.00     0.046 C 
HETATM   18  C   UNL     1      42.845 -13.497   3.837  1.00  0.00     0.063 C 
ENDBRANCH   1   7
BRANCH   3  19
HETATM   19  C   UNL     1      43.580 -17.752   4.481  1.00  0.00     0.072 A 
HETATM   20  C   UNL     1      43.449 -17.951   3.090  1.00  0.00     0.095 A 
HETATM   21  C   UNL     1      43.615 -19.240   2.565  1.00  0.00     0.042 A 
HETATM   22  C   UNL     1      43.927 -20.312   3.405  1.00  0.00     0.045 A 
HETATM   23  C   UNL     1      44.101 -20.089   4.763  1.00  0.00     0.118 A 
HETATM   24  F   UNL     1      44.419 -21.113   5.566  1.00  0.00    -0.206 F 
HETATM   25  C   UNL     1      43.945 -18.821   5.308  1.00  0.00     0.074 A 
BRANCH  20  26
HETATM   26  O   UNL     1      43.273 -16.832   2.312  1.00  0.00    -0.354 OA
HETATM   27  C   UNL     1      41.942 -16.557   1.890  1.00  0.00     0.210 C 
ENDBRANCH  20  26
ENDBRANCH   3  19
TORSDOF 3
ENDMDL
MODEL 6
REMARK VINA RESULT:      -7.2      1.841      2.907
REMARK  3 active torsions:
REMARK  status: ('A' for Active; 'I' for Inactive)
REMARK    1  A    between atoms: C_11  and  N_12 
REMARK       I    between atoms: N_12  and  C_13 
REMARK       I    between atoms: C_13  and  N_14 
REMARK    2  A    between atoms: N_14  and  C_15 
REMARK    3  A    between atoms: C_16  and  O_17 
ROOT
HETATM    1  N   UNL     1      41.634 -14.002   2.097  1.00  0.00    -0.338 N 
HETATM    2  C   UNL     1      42.478 -15.082   2.163  1.00  0.00     0.321 C 
HETATM    3  N   UNL     1      41.959 -16.182   2.792  1.00  0.00    -0.306 N 
HETATM    4  O   UNL     1      43.577 -14.973   1.632  1.00  0.00    -0.247 OA
HETATM    5  H   UNL     1      42.092 -13.285   1.550  1.00  0.00     0.164 HD
HETATM    6  H   UNL     1      41.015 -16.385   2.496  1.00  0.00     0.171 HD
ENDROOT
BRANCH   1   7
HETATM    7  C   UNL     1      40.624 -13.657   3.085  1.00  0.00     0.091 C 
HETATM    8  C   UNL     1      39.460 -12.860   2.492  1.00  0.00     0.063 C 
HETATM    9  C   UNL     1      39.694 -11.354   2.287  1.00  0.00     0.121 C 
HETATM   10  N   UNL     1      40.397 -10.757   3.485  1.00  0.00    -0.059 N 
HETATM   11  C   UNL     1      40.458 -11.010   1.003  1.00  0.00     0.046 C 
HETATM   12  C   UNL     1      38.323 -10.646   2.200  1.00  0.00     0.046 C 
HETATM   13  C   UNL     1      41.550 -11.480   4.151  1.00  0.00     0.121 C 
HETATM   14  H   UNL     1      39.681 -10.607   4.212  1.00  0.00     0.279 HD
HETATM   15  H   UNL     1      40.706  -9.802   3.246  1.00  0.00     0.279 HD
HETATM   16  C   UNL     1      42.853 -11.235   3.383  1.00  0.00     0.046 C 
HETATM   17  C   UNL     1      41.709 -10.828   5.542  1.00  0.00     0.046 C 
HETATM   18  C   UNL     1      41.195 -12.962   4.327  1.00  0.00     0.063 C 
ENDBRANCH   1   7
BRANCH   3  19
HETATM   19  C   UNL     1      42.750 -17.310   3.126  1.00  0.00     0.072 A 
HETATM   20  C   UNL     1      43.481 -17.404   4.330  1.00  0.00     0.095 A 
HETATM   21  C   UNL     1      44.270 -18.539   4.564  1.00  0.00     0.042 A 
HETATM   22  C   UNL     1      44.315 -19.574   3.627  1.00  0.00     0.045 A 
HETATM   23  C   UNL     1      43.551 -19.488   2.472  1.00  0.00     0.118 A 
HETATM   24  F   UNL     1      43.578 -20.489   1.584  1.00  0.00    -0.206 F 
HETATM   25  C   UNL     1      42.759 -18.375   2.218  1.00  0.00     0.074 A 
BRANCH  20  26
HETATM   26  O   UNL     1      43.286 -16.411   5.259  1.00  0.00    -0.354 OA
HETATM   27  C   UNL     1      42.490 -16.750   6.390  1.00  0.00     0.210 C 
ENDBRANCH  20  26
ENDBRANCH   3  19
TORSDOF 3
ENDMDL
MODEL 7
REMARK VINA RESULT:      -7.1      3.379      6.890
REMARK  3 active torsions:
REMARK  status: ('A' for Active; 'I' for Inactive)
REMARK    1  A    between atoms: C_11  and  N_12 
REMARK       I    between atoms: N_12  and  C_13 
REMARK       I    between atoms: C_13  and  N_14 
REMARK    2  A    between atoms: N_14  and  C_15 
REMARK    3  A    between atoms: C_16  and  O_17 
ROOT
HETATM    1  N   UNL     1      41.013 -14.506   3.110  1.00  0.00    -0.338 N 
HETATM    2  C   UNL     1      40.227 -14.183   2.032  1.00  0.00     0.321 C 
HETATM    3  N   UNL     1      40.788 -14.446   0.811  1.00  0.00    -0.306 N 
HETATM    4  O   UNL     1      39.111 -13.734   2.261  1.00  0.00    -0.247 OA
HETATM    5  H   UNL     1      40.470 -14.342   3.948  1.00  0.00     0.164 HD
HETATM    6  H   UNL     1      41.222 -15.357   0.775  1.00  0.00     0.171 HD
ENDROOT
BRANCH   1   7
HETATM    7  C   UNL     1      42.466 -14.463   3.140  1.00  0.00     0.091 C 
HETATM    8  C   UNL     1      43.091 -15.779   3.608  1.00  0.00     0.063 C 
HETATM    9  C   UNL     1      43.121 -16.023   5.126  1.00  0.00     0.121 C 
HETATM   10  N   UNL     1      43.537 -14.767   5.858  1.00  0.00    -0.059 N 
HETATM   11  C   UNL     1      41.804 -16.556   5.700  1.00  0.00     0.046 C 
HETATM   12  C   UNL     1      44.208 -17.077   5.437  1.00  0.00     0.046 C 
HETATM   13  C   UNL     1      42.985 -13.413   5.456  1.00  0.00     0.121 C 
HETATM   14  H   UNL     1      44.563 -14.701   5.787  1.00  0.00     0.279 HD
HETATM   15  H   UNL     1      43.369 -14.900   6.867  1.00  0.00     0.279 HD
HETATM   16  C   UNL     1      41.597 -13.198   6.067  1.00  0.00     0.046 C 
HETATM   17  C   UNL     1      43.930 -12.369   6.088  1.00  0.00     0.046 C 
HETATM   18  C   UNL     1      43.027 -13.273   3.929  1.00  0.00     0.063 C 
ENDBRANCH   1   7
BRANCH   3  19
HETATM   19  C   UNL     1      40.210 -13.997  -0.403  1.00  0.00     0.072 A 
HETATM   20  C   UNL     1      40.351 -12.675  -0.876  1.00  0.00     0.095 A 
HETATM   21  C   UNL     1      39.713 -12.303  -2.068  1.00  0.00     0.042 A 
HETATM   22  C   UNL     1      38.964 -13.237  -2.790  1.00  0.00     0.045 A 
HETATM   23  C   UNL     1      38.878 -14.544  -2.336  1.00  0.00     0.118 A 
HETATM   24  F   UNL     1      38.177 -15.444  -3.039  1.00  0.00    -0.206 F 
HETATM   25  C   UNL     1      39.503 -14.938  -1.160  1.00  0.00     0.074 A 
BRANCH  20  26
HETATM   26  O   UNL     1      41.207 -11.851  -0.186  1.00  0.00    -0.354 OA
HETATM   27  C   UNL     1      40.616 -10.746   0.489  1.00  0.00     0.210 C 
ENDBRANCH  20  26
ENDBRANCH   3  19
TORSDOF 3
ENDMDL
MODEL 8
REMARK VINA RESULT:      -7.0      3.985      5.246
REMARK  3 active torsions:
REMARK  status: ('A' for Active; 'I' for Inactive)
REMARK    1  A    between atoms: C_11  and  N_12 
REMARK       I    between atoms: N_12  and  C_13 
REMARK       I    between atoms: C_13  and  N_14 
REMARK    2  A    between atoms: N_14  and  C_15 
REMARK    3  A    between atoms: C_16  and  O_17 
ROOT
HETATM    1  N   UNL     1      42.518 -12.383   6.668  1.00  0.00    -0.338 N 
HETATM    2  C   UNL     1      42.235 -13.605   6.111  1.00  0.00     0.321 C 
HETATM    3  N   UNL     1      43.166 -14.059   5.215  1.00  0.00    -0.306 N 
HETATM    4  O   UNL     1      41.218 -14.175   6.486  1.00  0.00    -0.247 OA
HETATM    5  H   UNL     1      41.808 -12.188   7.362  1.00  0.00     0.164 HD
HETATM    6  H   UNL     1      44.111 -13.941   5.551  1.00  0.00     0.171 HD
ENDROOT
BRANCH   1   7
HETATM    7  C   UNL     1      43.240 -11.303   6.016  1.00  0.00     0.091 C 
HETATM    8  C   UNL     1      44.502 -10.886   6.775  1.00  0.00     0.063 C 
HETATM    9  C   UNL     1      44.301  -9.951   7.979  1.00  0.00     0.121 C 
HETATM   10  N   UNL     1      43.310  -8.860   7.644  1.00  0.00    -0.059 N 
HETATM   11  C   UNL     1      43.880 -10.669   9.265  1.00  0.00     0.046 C 
HETATM   12  C   UNL     1      45.638  -9.235   8.279  1.00  0.00     0.046 C 
HETATM   13  C   UNL     1      42.038  -9.172   6.880  1.00  0.00     0.121 C 
HETATM   14  H   UNL     1      43.816  -8.147   7.099  1.00  0.00     0.279 HD
HETATM   15  H   UNL     1      43.054  -8.366   8.514  1.00  0.00     0.279 HD
HETATM   16  C   UNL     1      40.967  -9.726   7.824  1.00  0.00     0.046 C 
HETATM   17  C   UNL     1      41.523  -7.816   6.349  1.00  0.00     0.046 C 
HETATM   18  C   UNL     1      42.363 -10.087   5.692  1.00  0.00     0.063 C 
ENDBRANCH   1   7
BRANCH   3  19
HETATM   19  C   UNL     1      42.944 -15.197   4.400  1.00  0.00     0.072 A 
HETATM   20  C   UNL     1      43.544 -16.450   4.654  1.00  0.00     0.095 A 
HETATM   21  C   UNL     1      43.301 -17.514   3.774  1.00  0.00     0.042 A 
HETATM   22  C   UNL     1      42.460 -17.343   2.672  1.00  0.00     0.045 A 
HETATM   23  C   UNL     1      41.840 -16.119   2.466  1.00  0.00     0.118 A 
HETATM   24  F   UNL     1      41.018 -15.961   1.421  1.00  0.00    -0.206 F 
HETATM   25  C   UNL     1      42.061 -15.050   3.325  1.00  0.00     0.074 A 
BRANCH  20  26
HETATM   26  O   UNL     1      44.250 -16.579   5.825  1.00  0.00    -0.354 OA
HETATM   27  C   UNL     1      43.576 -17.217   6.904  1.00  0.00     0.210 C 
ENDBRANCH  20  26
ENDBRANCH   3  19
TORSDOF 3
ENDMDL
MODEL 9
REMARK VINA RESULT:      -6.8      3.926      7.663
REMARK  3 active torsions:
REMARK  status: ('A' for Active; 'I' for Inactive)
REMARK    1  A    between atoms: C_11  and  N_12 
REMARK       I    between atoms: N_12  and  C_13 
REMARK       I    between atoms: C_13  and  N_14 
REMARK    2  A    between atoms: N_14  and  C_15 
REMARK    3  A    between atoms: C_16  and  O_17 
ROOT
HETATM    1  N   UNL     1      41.074 -13.559   2.531  1.00  0.00    -0.338 N 
HETATM    2  C   UNL     1      40.462 -12.969   1.453  1.00  0.00     0.321 C 
HETATM    3  N   UNL     1      41.115 -13.130   0.260  1.00  0.00    -0.306 N 
HETATM    4  O   UNL     1      39.396 -12.399   1.651  1.00  0.00    -0.247 OA
HETATM    5  H   UNL     1      40.468 -13.440   3.333  1.00  0.00     0.164 HD
HETATM    6  H   UNL     1      41.427 -14.080   0.118  1.00  0.00     0.171 HD
ENDROOT
BRANCH   1   7
HETATM    7  C   UNL     1      42.507 -13.735   2.697  1.00  0.00     0.091 C 
HETATM    8  C   UNL     1      42.917 -15.205   2.814  1.00  0.00     0.063 C 
HETATM    9  C   UNL     1      42.732 -15.861   4.192  1.00  0.00     0.121 C 
HETATM   10  N   UNL     1      43.194 -14.931   5.290  1.00  0.00    -0.059 N 
HETATM   11  C   UNL     1      41.302 -16.337   4.471  1.00  0.00     0.046 C 
HETATM   12  C   UNL     1      43.645 -17.105   4.275  1.00  0.00     0.046 C 
HETATM   13  C   UNL     1      42.852 -13.454   5.254  1.00  0.00     0.121 C 
HETATM   14  H   UNL     1      44.222 -14.996   5.331  1.00  0.00     0.279 HD
HETATM   15  H   UNL     1      42.888 -15.313   6.199  1.00  0.00     0.279 HD
HETATM   16  C   UNL     1      41.432 -13.219   5.779  1.00  0.00     0.046 C 
HETATM   17  C   UNL     1      43.824 -12.772   6.241  1.00  0.00     0.046 C 
HETATM   18  C   UNL     1      43.098 -12.904   3.843  1.00  0.00     0.063 C 
ENDBRANCH   1   7
BRANCH   3  19
HETATM   19  C   UNL     1      40.739 -12.428  -0.912  1.00  0.00     0.072 A 
HETATM   20  C   UNL     1      39.830 -12.949  -1.859  1.00  0.00     0.095 A 
HETATM   21  C   UNL     1      39.543 -12.205  -3.012  1.00  0.00     0.042 A 
HETATM   22  C   UNL     1      40.133 -10.955  -3.212  1.00  0.00     0.045 A 
HETATM   23  C   UNL     1      40.985 -10.437  -2.248  1.00  0.00     0.118 A 
HETATM   24  F   UNL     1      41.535  -9.229  -2.431  1.00  0.00    -0.206 F 
HETATM   25  C   UNL     1      41.284 -11.152  -1.095  1.00  0.00     0.074 A 
BRANCH  20  26
HETATM   26  O   UNL     1      39.190 -14.120  -1.533  1.00  0.00    -0.354 OA
HETATM   27  C   UNL     1      38.824 -14.966  -2.618  1.00  0.00     0.210 C 
ENDBRANCH  20  26
ENDBRANCH   3  19
TORSDOF 3
ENDMDL
MODEL 10
REMARK VINA RESULT:      -6.8      5.442      8.286
REMARK  3 active torsions:
REMARK  status: ('A' for Active; 'I' for Inactive)
REMARK    1  A    between atoms: C_11  and  N_12 
REMARK       I    between atoms: N_12  and  C_13 
REMARK       I    between atoms: C_13  and  N_14 
REMARK    2  A    between atoms: N_14  and  C_15 
REMARK    3  A    between atoms: C_16  and  O_17 
ROOT
HETATM    1  N   UNL     1      43.582 -13.377   5.647  1.00  0.00    -0.338 N 
HETATM    2  C   UNL     1      43.948 -12.163   6.173  1.00  0.00     0.321 C 
HETATM    3  N   UNL     1      43.596 -11.973   7.483  1.00  0.00    -0.306 N 
HETATM    4  O   UNL     1      44.571 -11.398   5.448  1.00  0.00    -0.247 OA
HETATM    5  H   UNL     1      43.958 -13.432   4.709  1.00  0.00     0.164 HD
HETATM    6  H   UNL     1      43.804 -12.778   8.057  1.00  0.00     0.171 HD
ENDROOT
BRANCH   1   7
HETATM    7  C   UNL     1      42.406 -14.143   6.027  1.00  0.00     0.091 C 
HETATM    8  C   UNL     1      42.751 -15.406   6.820  1.00  0.00     0.063 C 
HETATM    9  C   UNL     1      43.213 -16.624   6.004  1.00  0.00     0.121 C 
HETATM   10  N   UNL     1      42.350 -16.799   4.775  1.00  0.00    -0.059 N 
HETATM   11  C   UNL     1      44.693 -16.586   5.608  1.00  0.00     0.046 C 
HETATM   12  C   UNL     1      43.006 -17.898   6.854  1.00  0.00     0.046 C 
HETATM   13  C   UNL     1      41.943 -15.605   3.934  1.00  0.00     0.121 C 
HETATM   14  H   UNL     1      41.479 -17.258   5.079  1.00  0.00     0.279 HD
HETATM   15  H   UNL     1      42.792 -17.497   4.156  1.00  0.00     0.279 HD
HETATM   16  C   UNL     1      43.070 -15.216   2.973  1.00  0.00     0.046 C 
HETATM   17  C   UNL     1      40.752 -16.082   3.074  1.00  0.00     0.046 C 
HETATM   18  C   UNL     1      41.478 -14.466   4.850  1.00  0.00     0.063 C 
ENDBRANCH   1   7
BRANCH   3  19
HETATM   19  C   UNL     1      43.714 -10.717   8.127  1.00  0.00     0.072 A 
HETATM   20  C   UNL     1      42.813  -9.653   7.903  1.00  0.00     0.095 A 
HETATM   21  C   UNL     1      43.026  -8.429   8.553  1.00  0.00     0.042 A 
HETATM   22  C   UNL     1      44.104  -8.270   9.426  1.00  0.00     0.045 A 
HETATM   23  C   UNL     1      44.951  -9.340   9.672  1.00  0.00     0.118 A 
HETATM   24  F   UNL     1      45.973  -9.194  10.525  1.00  0.00    -0.206 F 
HETATM   25  C   UNL     1      44.760 -10.565   9.044  1.00  0.00     0.074 A 
BRANCH  20  26
HETATM   26  O   UNL     1      41.705  -9.923   7.137  1.00  0.00    -0.354 OA
HETATM   27  C   UNL     1      40.445  -9.571   7.699  1.00  0.00     0.210 C 
ENDBRANCH  20  26
ENDBRANCH   3  19
TORSDOF 3
ENDMDL
