MODEL 1
REMARK VINA RESULT:      -9.1      0.000      0.000
REMARK  3 active torsions:
REMARK  status: ('A' for Active; 'I' for Inactive)
REMARK    1  A    between atoms: C_4  and  C_5 
REMARK    2  A    between atoms: C_9  and  N_10 
REMARK       I    between atoms: N_10  and  C_11 
REMARK    3  A    between atoms: C_11  and  C_12 
ROOT
HETATM    1  C   UNL     1      42.024 -15.476   1.798  1.00  0.00     0.090 A 
HETATM    2  N   UNL     1      42.574 -14.258   1.641  1.00  0.00    -0.173 NA
HETATM    3  N   UNL     1      41.699 -13.586   0.878  1.00  0.00    -0.262 N 
HETATM    4  H   UNL     1      41.898 -12.622   0.616  1.00  0.00     0.191 HD
HETATM    5  C   UNL     1      40.590 -14.312   0.542  1.00  0.00     0.126 A 
HETATM    6  C   UNL     1      40.772 -15.545   1.119  1.00  0.00     0.084 A 
ENDROOT
BRANCH   5   7
HETATM    7  N   UNL     1      39.545 -13.832  -0.217  1.00  0.00    -0.306 N 
HETATM    8  C   UNL     1      39.715 -12.836  -1.163  1.00  0.00     0.281 C 
HETATM    9  O   UNL     1      40.771 -12.286  -1.434  1.00  0.00    -0.265 OA
HETATM   10  H   UNL     1      38.601 -14.181  -0.072  1.00  0.00     0.170 HD
BRANCH   8  11
HETATM   11  C   UNL     1      38.408 -12.452  -1.856  1.00  0.00     0.193 A 
HETATM   12  N   UNL     1      37.962 -11.242  -1.613  1.00  0.00    -0.241 NA
HETATM   13  C   UNL     1      36.793 -10.835  -2.227  1.00  0.00     0.054 A 
HETATM   14  C   UNL     1      36.369  -9.431  -1.884  1.00  0.00     0.072 C 
HETATM   15  C   UNL     1      36.080 -11.615  -3.070  1.00  0.00     0.033 A 
HETATM   16  C   UNL     1      34.810 -11.219  -3.768  1.00  0.00     0.070 C 
HETATM   17  N   UNL     1      36.521 -12.888  -3.333  1.00  0.00    -0.324 N 
HETATM   18  C   UNL     1      37.659 -13.413  -2.774  1.00  0.00     0.280 A 
HETATM   19  H   UNL     1      36.005 -13.502  -3.952  1.00  0.00     0.169 HD
HETATM   20  O   UNL     1      38.032 -14.554  -2.986  1.00  0.00    -0.265 OA
ENDBRANCH   8  11
ENDBRANCH   5   7
BRANCH   1  21
HETATM   21  C   UNL     1      42.687 -16.520   2.587  1.00  0.00    -0.005 A 
HETATM   22  C   UNL     1      42.855 -17.809   2.055  1.00  0.00     0.020 A 
HETATM   23  C   UNL     1      43.495 -18.819   2.785  1.00  0.00    -0.061 A 
HETATM   24  C   UNL     1      43.670 -20.192   2.208  1.00  0.00     0.048 C 
HETATM   25  C   UNL     1      43.964 -18.535   4.073  1.00  0.00     0.013 A 
HETATM   26  C   UNL     1      43.803 -17.260   4.630  1.00  0.00    -0.061 A 
HETATM   27  C   UNL     1      43.165 -16.260   3.881  1.00  0.00     0.020 A 
HETATM   28  C   UNL     1      44.304 -16.986   6.018  1.00  0.00     0.048 C 
ENDBRANCH   1  21
TORSDOF 3
ENDMDL
MODEL 2
REMARK VINA RESULT:      -9.1      0.046      1.720
REMARK  3 active torsions:
REMARK  status: ('A' for Active; 'I' for Inactive)
REMARK    1  A    between atoms: C_4  and  C_5 
REMARK    2  A    between atoms: C_9  and  N_10 
REMARK       I    between atoms: N_10  and  C_11 
REMARK    3  A    between atoms: C_11  and  C_12 
ROOT
HETATM    1  C   UNL     1      42.029 -15.474   1.821  1.00  0.00     0.090 A 
HETATM    2  N   UNL     1      42.573 -14.252   1.672  1.00  0.00    -0.173 NA
HETATM    3  N   UNL     1      41.697 -13.581   0.908  1.00  0.00    -0.262 N 
HETATM    4  H   UNL     1      41.892 -12.616   0.651  1.00  0.00     0.191 HD
HETATM    5  C   UNL     1      40.594 -14.312   0.565  1.00  0.00     0.126 A 
HETATM    6  C   UNL     1      40.781 -15.547   1.136  1.00  0.00     0.084 A 
ENDROOT
BRANCH   5   7
HETATM    7  N   UNL     1      39.549 -13.835  -0.197  1.00  0.00    -0.306 N 
HETATM    8  C   UNL     1      39.720 -12.845  -1.149  1.00  0.00     0.281 C 
HETATM    9  O   UNL     1      40.778 -12.297  -1.423  1.00  0.00    -0.265 OA
HETATM   10  H   UNL     1      38.604 -14.182  -0.049  1.00  0.00     0.170 HD
BRANCH   8  11
HETATM   11  C   UNL     1      38.413 -12.462  -1.843  1.00  0.00     0.193 A 
HETATM   12  N   UNL     1      37.961 -11.256  -1.593  1.00  0.00    -0.241 NA
HETATM   13  C   UNL     1      36.792 -10.851  -2.208  1.00  0.00     0.054 A 
HETATM   14  C   UNL     1      36.359  -9.451  -1.856  1.00  0.00     0.072 C 
HETATM   15  C   UNL     1      36.085 -11.629  -3.058  1.00  0.00     0.033 A 
HETATM   16  C   UNL     1      34.815 -11.234  -3.758  1.00  0.00     0.070 C 
HETATM   17  N   UNL     1      36.533 -12.897  -3.329  1.00  0.00    -0.324 N 
HETATM   18  C   UNL     1      37.673 -13.420  -2.770  1.00  0.00     0.280 A 
HETATM   19  H   UNL     1      36.023 -13.510  -3.954  1.00  0.00     0.169 HD
HETATM   20  O   UNL     1      38.052 -14.558  -2.989  1.00  0.00    -0.265 OA
ENDBRANCH   8  11
ENDBRANCH   5   7
BRANCH   1  21
HETATM   21  C   UNL     1      42.696 -16.518   2.608  1.00  0.00    -0.005 A 
HETATM   22  C   UNL     1      43.192 -16.228   3.889  1.00  0.00     0.020 A 
HETATM   23  C   UNL     1      43.822 -17.211   4.664  1.00  0.00    -0.061 A 
HETATM   24  C   UNL     1      44.347 -16.892   6.032  1.00  0.00     0.048 C 
HETATM   25  C   UNL     1      43.965 -18.501   4.141  1.00  0.00     0.013 A 
HETATM   26  C   UNL     1      43.486 -18.814   2.863  1.00  0.00    -0.061 A 
HETATM   27  C   UNL     1      42.853 -17.818   2.105  1.00  0.00     0.020 A 
HETATM   28  C   UNL     1      43.665 -20.202   2.321  1.00  0.00     0.048 C 
ENDBRANCH   1  21
TORSDOF 3
ENDMDL
MODEL 3
REMARK VINA RESULT:      -9.0      1.460      2.677
REMARK  3 active torsions:
REMARK  status: ('A' for Active; 'I' for Inactive)
REMARK    1  A    between atoms: C_4  and  C_5 
REMARK    2  A    between atoms: C_9  and  N_10 
REMARK       I    between atoms: N_10  and  C_11 
REMARK    3  A    between atoms: C_11  and  C_12 
ROOT
HETATM    1  C   UNL     1      41.370 -15.953   2.175  1.00  0.00     0.090 A 
HETATM    2  N   UNL     1      40.073 -15.953   2.533  1.00  0.00    -0.173 NA
HETATM    3  N   UNL     1      39.509 -15.008   1.765  1.00  0.00    -0.262 N 
HETATM    4  H   UNL     1      38.514 -14.816   1.856  1.00  0.00     0.191 HD
HETATM    5  C   UNL     1      40.385 -14.401   0.908  1.00  0.00     0.126 A 
HETATM    6  C   UNL     1      41.602 -14.987   1.152  1.00  0.00     0.084 A 
ENDROOT
BRANCH   5   7
HETATM    7  N   UNL     1      40.038 -13.416   0.010  1.00  0.00    -0.306 N 
HETATM    8  C   UNL     1      39.348 -13.690  -1.159  1.00  0.00     0.281 C 
HETATM    9  O   UNL     1      38.971 -14.795  -1.519  1.00  0.00    -0.265 OA
HETATM   10  H   UNL     1      40.318 -12.451   0.170  1.00  0.00     0.170 HD
BRANCH   8  11
HETATM   11  C   UNL     1      39.103 -12.441  -2.006  1.00  0.00     0.193 A 
HETATM   12  N   UNL     1      37.854 -12.053  -2.111  1.00  0.00    -0.241 NA
HETATM   13  C   UNL     1      37.577 -10.920  -2.851  1.00  0.00     0.054 A 
HETATM   14  C   UNL     1      36.115 -10.559  -2.908  1.00  0.00     0.072 C 
HETATM   15  C   UNL     1      38.523 -10.183  -3.474  1.00  0.00     0.033 A 
HETATM   16  C   UNL     1      38.276  -8.941  -4.283  1.00  0.00     0.070 C 
HETATM   17  N   UNL     1      39.836 -10.573  -3.387  1.00  0.00    -0.324 N 
HETATM   18  C   UNL     1      40.237 -11.689  -2.694  1.00  0.00     0.280 A 
HETATM   19  H   UNL     1      40.569 -10.050  -3.850  1.00  0.00     0.169 HD
HETATM   20  O   UNL     1      41.400 -12.050  -2.642  1.00  0.00    -0.265 OA
ENDBRANCH   8  11
ENDBRANCH   5   7
BRANCH   1  21
HETATM   21  C   UNL     1      42.336 -16.867   2.797  1.00  0.00    -0.005 A 
HETATM   22  C   UNL     1      42.997 -16.497   3.980  1.00  0.00     0.020 A 
HETATM   23  C   UNL     1      43.915 -17.357   4.598  1.00  0.00    -0.061 A 
HETATM   24  C   UNL     1      44.616 -16.954   5.861  1.00  0.00     0.048 C 
HETATM   25  C   UNL     1      44.181 -18.601   4.015  1.00  0.00     0.013 A 
HETATM   26  C   UNL     1      43.541 -18.990   2.832  1.00  0.00    -0.061 A 
HETATM   27  C   UNL     1      42.621 -18.118   2.231  1.00  0.00     0.020 A 
HETATM   28  C   UNL     1      43.854 -20.325   2.220  1.00  0.00     0.048 C 
ENDBRANCH   1  21
TORSDOF 3
ENDMDL
MODEL 4
REMARK VINA RESULT:      -9.0      1.696      1.851
REMARK  3 active torsions:
REMARK  status: ('A' for Active; 'I' for Inactive)
REMARK    1  A    between atoms: C_4  and  C_5 
REMARK    2  A    between atoms: C_9  and  N_10 
REMARK       I    between atoms: N_10  and  C_11 
REMARK    3  A    between atoms: C_11  and  C_12 
ROOT
HETATM    1  C   UNL     1      41.259 -15.910   2.178  1.00  0.00     0.090 A 
HETATM    2  N   UNL     1      40.023 -15.769   2.691  1.00  0.00    -0.173 NA
HETATM    3  N   UNL     1      39.417 -14.888   1.881  1.00  0.00    -0.262 N 
HETATM    4  H   UNL     1      38.456 -14.613   2.069  1.00  0.00     0.191 HD
HETATM    5  C   UNL     1      40.204 -14.458   0.849  1.00  0.00     0.126 A 
HETATM    6  C   UNL     1      41.408 -15.099   1.015  1.00  0.00     0.084 A 
ENDROOT
BRANCH   5   7
HETATM    7  N   UNL     1      39.799 -13.569  -0.122  1.00  0.00    -0.306 N 
HETATM    8  C   UNL     1      39.204 -12.358   0.186  1.00  0.00     0.281 C 
HETATM    9  O   UNL     1      38.980 -11.943   1.313  1.00  0.00    -0.265 OA
HETATM   10  H   UNL     1      39.897 -13.803  -1.108  1.00  0.00     0.170 HD
BRANCH   8  11
HETATM   11  C   UNL     1      38.816 -11.557  -1.057  1.00  0.00     0.193 A 
HETATM   12  N   UNL     1      39.257 -10.322  -1.106  1.00  0.00    -0.241 NA
HETATM   13  C   UNL     1      38.951  -9.558  -2.215  1.00  0.00     0.054 A 
HETATM   14  C   UNL     1      39.505  -8.157  -2.175  1.00  0.00     0.072 C 
HETATM   15  C   UNL     1      38.223 -10.012  -3.260  1.00  0.00     0.033 A 
HETATM   16  C   UNL     1      37.870  -9.226  -4.491  1.00  0.00     0.070 C 
HETATM   17  N   UNL     1      37.743 -11.298  -3.228  1.00  0.00    -0.324 N 
HETATM   18  C   UNL     1      37.967 -12.151  -2.175  1.00  0.00     0.280 A 
HETATM   19  H   UNL     1      37.185 -11.666  -3.989  1.00  0.00     0.169 HD
HETATM   20  O   UNL     1      37.514 -13.282  -2.136  1.00  0.00    -0.265 OA
ENDBRANCH   8  11
ENDBRANCH   5   7
BRANCH   1  21
HETATM   21  C   UNL     1      42.245 -16.809   2.791  1.00  0.00    -0.005 A 
HETATM   22  C   UNL     1      42.535 -18.048   2.197  1.00  0.00     0.020 A 
HETATM   23  C   UNL     1      43.480 -18.918   2.758  1.00  0.00    -0.061 A 
HETATM   24  C   UNL     1      43.785 -20.239   2.116  1.00  0.00     0.048 C 
HETATM   25  C   UNL     1      44.136 -18.542   3.936  1.00  0.00     0.013 A 
HETATM   26  C   UNL     1      43.859 -17.316   4.551  1.00  0.00    -0.061 A 
HETATM   27  C   UNL     1      42.914 -16.456   3.972  1.00  0.00     0.020 A 
HETATM   28  C   UNL     1      44.567 -16.943   5.822  1.00  0.00     0.048 C 
ENDBRANCH   1  21
TORSDOF 3
ENDMDL
MODEL 5
REMARK VINA RESULT:      -8.6      7.222     10.308
REMARK  3 active torsions:
REMARK  status: ('A' for Active; 'I' for Inactive)
REMARK    1  A    between atoms: C_4  and  C_5 
REMARK    2  A    between atoms: C_9  and  N_10 
REMARK       I    between atoms: N_10  and  C_11 
REMARK    3  A    between atoms: C_11  and  C_12 
ROOT
HETATM    1  C   UNL     1      42.843 -13.386   4.847  1.00  0.00     0.090 A 
HETATM    2  N   UNL     1      43.602 -12.408   4.321  1.00  0.00    -0.173 NA
HETATM    3  N   UNL     1      43.673 -11.477   5.284  1.00  0.00    -0.262 N 
HETATM    4  H   UNL     1      44.202 -10.623   5.119  1.00  0.00     0.191 HD
HETATM    5  C   UNL     1      43.001 -11.815   6.426  1.00  0.00     0.126 A 
HETATM    6  C   UNL     1      42.446 -13.046   6.174  1.00  0.00     0.084 A 
ENDROOT
BRANCH   5   7
HETATM    7  N   UNL     1      42.944 -11.031   7.558  1.00  0.00    -0.306 N 
HETATM    8  C   UNL     1      44.044 -10.832   8.375  1.00  0.00     0.281 C 
HETATM    9  O   UNL     1      45.156 -11.305   8.198  1.00  0.00    -0.265 OA
HETATM   10  H   UNL     1      42.067 -10.601   7.843  1.00  0.00     0.170 HD
BRANCH   8  11
HETATM   11  C   UNL     1      43.728  -9.949   9.583  1.00  0.00     0.193 A 
HETATM   12  N   UNL     1      43.489  -8.685   9.324  1.00  0.00    -0.241 NA
HETATM   13  C   UNL     1      43.181  -7.845  10.376  1.00  0.00     0.054 A 
HETATM   14  C   UNL     1      42.922  -6.416   9.972  1.00  0.00     0.072 C 
HETATM   15  C   UNL     1      43.110  -8.252  11.663  1.00  0.00     0.033 A 
HETATM   16  C   UNL     1      42.772  -7.382  12.840  1.00  0.00     0.070 C 
HETATM   17  N   UNL     1      43.364  -9.567  11.961  1.00  0.00    -0.324 N 
HETATM   18  C   UNL     1      43.695 -10.497  11.006  1.00  0.00     0.280 A 
HETATM   19  H   UNL     1      43.329  -9.903  12.916  1.00  0.00     0.169 HD
HETATM   20  O   UNL     1      43.950 -11.658  11.276  1.00  0.00    -0.265 OA
ENDBRANCH   8  11
ENDBRANCH   5   7
BRANCH   1  21
HETATM   21  C   UNL     1      42.530 -14.604   4.090  1.00  0.00    -0.005 A 
HETATM   22  C   UNL     1      41.442 -14.624   3.202  1.00  0.00     0.020 A 
HETATM   23  C   UNL     1      41.130 -15.772   2.461  1.00  0.00    -0.061 A 
HETATM   24  C   UNL     1      39.967 -15.783   1.514  1.00  0.00     0.048 C 
HETATM   25  C   UNL     1      41.916 -16.919   2.621  1.00  0.00     0.013 A 
HETATM   26  C   UNL     1      43.001 -16.928   3.505  1.00  0.00    -0.061 A 
HETATM   27  C   UNL     1      43.301 -15.767   4.234  1.00  0.00     0.020 A 
HETATM   28  C   UNL     1      43.819 -18.176   3.667  1.00  0.00     0.048 C 
ENDBRANCH   1  21
TORSDOF 3
ENDMDL
MODEL 6
REMARK VINA RESULT:      -8.6      7.227     10.329
REMARK  3 active torsions:
REMARK  status: ('A' for Active; 'I' for Inactive)
REMARK    1  A    between atoms: C_4  and  C_5 
REMARK    2  A    between atoms: C_9  and  N_10 
REMARK       I    between atoms: N_10  and  C_11 
REMARK    3  A    between atoms: C_11  and  C_12 
ROOT
HETATM    1  C   UNL     1      42.830 -13.365   4.838  1.00  0.00     0.090 A 
HETATM    2  N   UNL     1      43.611 -12.399   4.322  1.00  0.00    -0.173 NA
HETATM    3  N   UNL     1      43.687 -11.471   5.288  1.00  0.00    -0.262 N 
HETATM    4  H   UNL     1      44.232 -10.626   5.131  1.00  0.00     0.191 HD
HETATM    5  C   UNL     1      42.998 -11.800   6.423  1.00  0.00     0.126 A 
HETATM    6  C   UNL     1      42.426 -13.021   6.162  1.00  0.00     0.084 A 
ENDROOT
BRANCH   5   7
HETATM    7  N   UNL     1      42.942 -11.018   7.555  1.00  0.00    -0.306 N 
HETATM    8  C   UNL     1      44.042 -10.821   8.373  1.00  0.00     0.281 C 
HETATM    9  O   UNL     1      45.154 -11.295   8.194  1.00  0.00    -0.265 OA
HETATM   10  H   UNL     1      42.066 -10.587   7.841  1.00  0.00     0.170 HD
BRANCH   8  11
HETATM   11  C   UNL     1      43.729  -9.939   9.582  1.00  0.00     0.193 A 
HETATM   12  N   UNL     1      43.486  -8.675   9.323  1.00  0.00    -0.241 NA
HETATM   13  C   UNL     1      43.179  -7.836  10.377  1.00  0.00     0.054 A 
HETATM   14  C   UNL     1      42.916  -6.408   9.975  1.00  0.00     0.072 C 
HETATM   15  C   UNL     1      43.112  -8.244  11.664  1.00  0.00     0.033 A 
HETATM   16  C   UNL     1      42.776  -7.375  12.843  1.00  0.00     0.070 C 
HETATM   17  N   UNL     1      43.370  -9.559  11.960  1.00  0.00    -0.324 N 
HETATM   18  C   UNL     1      43.701 -10.487  11.004  1.00  0.00     0.280 A 
HETATM   19  H   UNL     1      43.339  -9.895  12.915  1.00  0.00     0.169 HD
HETATM   20  O   UNL     1      43.959 -11.648  11.274  1.00  0.00    -0.265 OA
ENDBRANCH   8  11
ENDBRANCH   5   7
BRANCH   1  21
HETATM   21  C   UNL     1      42.505 -14.577   4.076  1.00  0.00    -0.005 A 
HETATM   22  C   UNL     1      43.281 -15.737   4.228  1.00  0.00     0.020 A 
HETATM   23  C   UNL     1      42.983 -16.908   3.519  1.00  0.00    -0.061 A 
HETATM   24  C   UNL     1      43.817 -18.143   3.690  1.00  0.00     0.048 C 
HETATM   25  C   UNL     1      41.897 -16.912   2.637  1.00  0.00     0.013 A 
HETATM   26  C   UNL     1      41.112 -15.766   2.461  1.00  0.00    -0.061 A 
HETATM   27  C   UNL     1      41.422 -14.604   3.184  1.00  0.00     0.020 A 
HETATM   28  C   UNL     1      39.961 -15.793   1.498  1.00  0.00     0.048 C 
ENDBRANCH   1  21
TORSDOF 3
ENDMDL
MODEL 7
REMARK VINA RESULT:      -8.3      6.882      9.726
REMARK  3 active torsions:
REMARK  status: ('A' for Active; 'I' for Inactive)
REMARK    1  A    between atoms: C_4  and  C_5 
REMARK    2  A    between atoms: C_9  and  N_10 
REMARK       I    between atoms: N_10  and  C_11 
REMARK    3  A    between atoms: C_11  and  C_12 
ROOT
HETATM    1  C   UNL     1      42.823 -14.519   5.401  1.00  0.00     0.090 A 
HETATM    2  N   UNL     1      43.550 -14.888   6.471  1.00  0.00    -0.173 NA
HETATM    3  N   UNL     1      43.579 -13.800   7.254  1.00  0.00    -0.262 N 
HETATM    4  H   UNL     1      44.082 -13.832   8.139  1.00  0.00     0.191 HD
HETATM    5  C   UNL     1      42.887 -12.736   6.745  1.00  0.00     0.126 A 
HETATM    6  C   UNL     1      42.388 -13.167   5.540  1.00  0.00     0.084 A 
ENDROOT
BRANCH   5   7
HETATM    7  N   UNL     1      42.757 -11.518   7.374  1.00  0.00    -0.306 N 
HETATM    8  C   UNL     1      43.790 -10.945   8.096  1.00  0.00     0.281 C 
HETATM    9  O   UNL     1      44.901 -11.429   8.254  1.00  0.00    -0.265 OA
HETATM   10  H   UNL     1      41.872 -11.018   7.351  1.00  0.00     0.170 HD
BRANCH   8  11
HETATM   11  C   UNL     1      43.399  -9.607   8.725  1.00  0.00     0.193 A 
HETATM   12  N   UNL     1      43.600  -9.499  10.018  1.00  0.00    -0.241 NA
HETATM   13  C   UNL     1      43.281  -8.305  10.635  1.00  0.00     0.054 A 
HETATM   14  C   UNL     1      43.550  -8.283  12.118  1.00  0.00     0.072 C 
HETATM   15  C   UNL     1      42.774  -7.236   9.982  1.00  0.00     0.033 A 
HETATM   16  C   UNL     1      42.418  -5.916  10.604  1.00  0.00     0.070 C 
HETATM   17  N   UNL     1      42.547  -7.328   8.631  1.00  0.00    -0.324 N 
HETATM   18  C   UNL     1      42.809  -8.464   7.907  1.00  0.00     0.280 A 
HETATM   19  H   UNL     1      42.158  -6.549   8.112  1.00  0.00     0.169 HD
HETATM   20  O   UNL     1      42.578  -8.553   6.713  1.00  0.00    -0.265 OA
ENDBRANCH   8  11
ENDBRANCH   5   7
BRANCH   1  21
HETATM   21  C   UNL     1      42.555 -15.449   4.298  1.00  0.00    -0.005 A 
HETATM   22  C   UNL     1      41.470 -15.228   3.435  1.00  0.00     0.020 A 
HETATM   23  C   UNL     1      41.200 -16.097   2.369  1.00  0.00    -0.061 A 
HETATM   24  C   UNL     1      40.039 -15.852   1.452  1.00  0.00     0.048 C 
HETATM   25  C   UNL     1      42.027 -17.209   2.172  1.00  0.00     0.013 A 
HETATM   26  C   UNL     1      43.112 -17.456   3.022  1.00  0.00    -0.061 A 
HETATM   27  C   UNL     1      43.369 -16.571   4.081  1.00  0.00     0.020 A 
HETATM   28  C   UNL     1      43.975 -18.663   2.796  1.00  0.00     0.048 C 
ENDBRANCH   1  21
TORSDOF 3
ENDMDL
MODEL 8
REMARK VINA RESULT:      -8.1      1.775      2.396
REMARK  3 active torsions:
REMARK  status: ('A' for Active; 'I' for Inactive)
REMARK    1  A    between atoms: C_4  and  C_5 
REMARK    2  A    between atoms: C_9  and  N_10 
REMARK       I    between atoms: N_10  and  C_11 
REMARK    3  A    between atoms: C_11  and  C_12 
ROOT
HETATM    1  C   UNL     1      41.923 -15.594   2.138  1.00  0.00     0.090 A 
HETATM    2  N   UNL     1      42.600 -14.850   1.245  1.00  0.00    -0.173 NA
HETATM    3  N   UNL     1      41.726 -13.909   0.855  1.00  0.00    -0.262 N 
HETATM    4  H   UNL     1      42.010 -13.215   0.167  1.00  0.00     0.191 HD
HETATM    5  C   UNL     1      40.508 -14.001   1.470  1.00  0.00     0.126 A 
HETATM    6  C   UNL     1      40.601 -15.087   2.305  1.00  0.00     0.084 A 
ENDROOT
BRANCH   5   7
HETATM    7  N   UNL     1      39.457 -13.138   1.249  1.00  0.00    -0.306 N 
HETATM    8  C   UNL     1      39.378 -12.344   0.118  1.00  0.00     0.281 C 
HETATM    9  O   UNL     1      40.196 -12.315  -0.789  1.00  0.00    -0.265 OA
HETATM   10  H   UNL     1      38.719 -13.038   1.941  1.00  0.00     0.170 HD
BRANCH   8  11
HETATM   11  C   UNL     1      38.136 -11.452   0.109  1.00  0.00     0.193 A 
HETATM   12  N   UNL     1      37.616 -11.201  -1.070  1.00  0.00    -0.241 NA
HETATM   13  C   UNL     1      36.483 -10.414  -1.134  1.00  0.00     0.054 A 
HETATM   14  C   UNL     1      35.965 -10.189  -2.531  1.00  0.00     0.072 C 
HETATM   15  C   UNL     1      35.874  -9.887  -0.049  1.00  0.00     0.033 A 
HETATM   16  C   UNL     1      34.638  -9.033  -0.065  1.00  0.00     0.070 C 
HETATM   17  N   UNL     1      36.405 -10.127   1.194  1.00  0.00    -0.324 N 
HETATM   18  C   UNL     1      37.535 -10.881   1.389  1.00  0.00     0.280 A 
HETATM   19  H   UNL     1      35.979  -9.738   2.028  1.00  0.00     0.169 HD
HETATM   20  O   UNL     1      38.021 -11.067   2.492  1.00  0.00    -0.265 OA
ENDBRANCH   8  11
ENDBRANCH   5   7
BRANCH   1  21
HETATM   21  C   UNL     1      42.546 -16.743   2.807  1.00  0.00    -0.005 A 
HETATM   22  C   UNL     1      42.814 -17.919   2.089  1.00  0.00     0.020 A 
HETATM   23  C   UNL     1      43.418 -19.024   2.703  1.00  0.00    -0.061 A 
HETATM   24  C   UNL     1      43.701 -20.276   1.928  1.00  0.00     0.048 C 
HETATM   25  C   UNL     1      43.749 -18.950   4.061  1.00  0.00     0.013 A 
HETATM   26  C   UNL     1      43.486 -17.792   4.802  1.00  0.00    -0.061 A 
HETATM   27  C   UNL     1      42.886 -16.693   4.167  1.00  0.00     0.020 A 
HETATM   28  C   UNL     1      43.839 -17.744   6.260  1.00  0.00     0.048 C 
ENDBRANCH   1  21
TORSDOF 3
ENDMDL
MODEL 9
REMARK VINA RESULT:      -7.8      2.911      9.468
REMARK  3 active torsions:
REMARK  status: ('A' for Active; 'I' for Inactive)
REMARK    1  A    between atoms: C_4  and  C_5 
REMARK    2  A    between atoms: C_9  and  N_10 
REMARK       I    between atoms: N_10  and  C_11 
REMARK    3  A    between atoms: C_11  and  C_12 
ROOT
HETATM    1  C   UNL     1      39.872 -13.304   0.344  1.00  0.00     0.090 A 
HETATM    2  N   UNL     1      39.570 -12.889   1.587  1.00  0.00    -0.173 NA
HETATM    3  N   UNL     1      40.093 -13.824   2.394  1.00  0.00    -0.262 N 
HETATM    4  H   UNL     1      39.990 -13.731   3.403  1.00  0.00     0.191 HD
HETATM    5  C   UNL     1      40.738 -14.828   1.727  1.00  0.00     0.126 A 
HETATM    6  C   UNL     1      40.609 -14.524   0.395  1.00  0.00     0.084 A 
ENDROOT
BRANCH   5   7
HETATM    7  N   UNL     1      41.369 -15.889   2.339  1.00  0.00    -0.306 N 
HETATM    8  C   UNL     1      42.565 -15.745   3.022  1.00  0.00     0.281 C 
HETATM    9  O   UNL     1      43.180 -14.699   3.164  1.00  0.00    -0.265 OA
HETATM   10  H   UNL     1      40.982 -16.828   2.271  1.00  0.00     0.170 HD
BRANCH   8  11
HETATM   11  C   UNL     1      43.084 -17.066   3.589  1.00  0.00     0.193 A 
HETATM   12  N   UNL     1      43.209 -18.051   2.730  1.00  0.00    -0.241 NA
HETATM   13  C   UNL     1      43.689 -19.263   3.185  1.00  0.00     0.054 A 
HETATM   14  C   UNL     1      43.796 -20.326   2.121  1.00  0.00     0.072 C 
HETATM   15  C   UNL     1      44.043 -19.495   4.469  1.00  0.00     0.033 A 
HETATM   16  C   UNL     1      44.578 -20.790   5.012  1.00  0.00     0.070 C 
HETATM   17  N   UNL     1      43.913 -18.483   5.388  1.00  0.00    -0.324 N 
HETATM   18  C   UNL     1      43.434 -17.239   5.063  1.00  0.00     0.280 A 
HETATM   19  H   UNL     1      44.160 -18.626   6.360  1.00  0.00     0.169 HD
HETATM   20  O   UNL     1      43.291 -16.351   5.887  1.00  0.00    -0.265 OA
ENDBRANCH   8  11
ENDBRANCH   5   7
BRANCH   1  21
HETATM   21  C   UNL     1      39.469 -12.536  -0.840  1.00  0.00    -0.005 A 
HETATM   22  C   UNL     1      38.180 -12.686  -1.374  1.00  0.00     0.020 A 
HETATM   23  C   UNL     1      37.769 -11.955  -2.497  1.00  0.00    -0.061 A 
HETATM   24  C   UNL     1      36.389 -12.122  -3.061  1.00  0.00     0.048 C 
HETATM   25  C   UNL     1      38.669 -11.068  -3.098  1.00  0.00     0.013 A 
HETATM   26  C   UNL     1      39.963 -10.905  -2.589  1.00  0.00    -0.061 A 
HETATM   27  C   UNL     1      40.354 -11.641  -1.461  1.00  0.00     0.020 A 
HETATM   28  C   UNL     1      40.913  -9.956  -3.261  1.00  0.00     0.048 C 
ENDBRANCH   1  21
TORSDOF 3
ENDMDL
MODEL 10
REMARK VINA RESULT:      -7.8      7.219     10.600
REMARK  3 active torsions:
REMARK  status: ('A' for Active; 'I' for Inactive)
REMARK    1  A    between atoms: C_4  and  C_5 
REMARK    2  A    between atoms: C_9  and  N_10 
REMARK       I    between atoms: N_10  and  C_11 
REMARK    3  A    between atoms: C_11  and  C_12 
ROOT
HETATM    1  C   UNL     1      44.046 -10.102   8.404  1.00  0.00     0.090 A 
HETATM    2  N   UNL     1      45.355 -10.380   8.270  1.00  0.00    -0.173 NA
HETATM    3  N   UNL     1      45.398 -11.418   7.421  1.00  0.00    -0.262 N 
HETATM    4  H   UNL     1      46.297 -11.817   7.161  1.00  0.00     0.191 HD
HETATM    5  C   UNL     1      44.167 -11.821   6.983  1.00  0.00     0.126 A 
HETATM    6  C   UNL     1      43.267 -10.991   7.606  1.00  0.00     0.084 A 
ENDROOT
BRANCH   5   7
HETATM    7  N   UNL     1      43.955 -12.852   6.094  1.00  0.00    -0.306 N 
HETATM    8  C   UNL     1      43.433 -14.072   6.488  1.00  0.00     0.281 C 
HETATM    9  O   UNL     1      43.104 -14.370   7.625  1.00  0.00    -0.265 OA
HETATM   10  H   UNL     1      44.216 -12.750   5.116  1.00  0.00     0.170 HD
BRANCH   8  11
HETATM   11  C   UNL     1      43.317 -15.065   5.331  1.00  0.00     0.193 A 
HETATM   12  N   UNL     1      43.795 -16.267   5.555  1.00  0.00    -0.241 NA
HETATM   13  C   UNL     1      43.701 -17.209   4.550  1.00  0.00     0.054 A 
HETATM   14  C   UNL     1      44.276 -18.555   4.907  1.00  0.00     0.072 C 
HETATM   15  C   UNL     1      43.141 -16.965   3.344  1.00  0.00     0.033 A 
HETATM   16  C   UNL     1      43.007 -17.956   2.222  1.00  0.00     0.070 C 
HETATM   17  N   UNL     1      42.642 -15.713   3.082  1.00  0.00    -0.324 N 
HETATM   18  C   UNL     1      42.689 -14.688   3.994  1.00  0.00     0.280 A 
HETATM   19  H   UNL     1      42.225 -15.494   2.186  1.00  0.00     0.169 HD
HETATM   20  O   UNL     1      42.272 -13.568   3.748  1.00  0.00    -0.265 OA
ENDBRANCH   8  11
ENDBRANCH   5   7
BRANCH   1  21
HETATM   21  C   UNL     1      43.578  -9.008   9.264  1.00  0.00    -0.005 A 
HETATM   22  C   UNL     1      43.038  -7.844   8.695  1.00  0.00     0.020 A 
HETATM   23  C   UNL     1      42.575  -6.791   9.496  1.00  0.00    -0.061 A 
HETATM   24  C   UNL     1      41.999  -5.552   8.879  1.00  0.00     0.048 C 
HETATM   25  C   UNL     1      42.666  -6.905  10.888  1.00  0.00     0.013 A 
HETATM   26  C   UNL     1      43.207  -8.052  11.480  1.00  0.00    -0.061 A 
HETATM   27  C   UNL     1      43.660  -9.098  10.662  1.00  0.00     0.020 A 
HETATM   28  C   UNL     1      43.305  -8.143  12.975  1.00  0.00     0.048 C 
ENDBRANCH   1  21
TORSDOF 3
ENDMDL
