MODEL 1
REMARK VINA RESULT:      -7.8      0.000      0.000
REMARK  9 active torsions:
REMARK  status: ('A' for Active; 'I' for Inactive)
REMARK    1  A    between atoms: C_2  and  C_3 
REMARK    2  A    between atoms: C_3  and  C_4 
REMARK    3  A    between atoms: C_4  and  N_5 
REMARK       I    between atoms: N_5  and  C_6 
REMARK    4  A    between atoms: C_6  and  C_7 
REMARK    5  A    between atoms: C_14  and  S_15 
REMARK    6  A    between atoms: S_15  and  N_16 
REMARK    7  A    between atoms: N_16  and  C_17 
REMARK    8  A    between atoms: C_20  and  O_21 
REMARK    9  A    between atoms: O_21  and  C_22 
ROOT
HETATM    1  C   UNL     1      42.955 -10.357   7.036  1.00  0.00     0.098 A 
HETATM    2  C   UNL     1      41.773 -10.879   6.291  1.00  0.00     0.201 A 
HETATM    3  O   UNL     1      40.625 -10.678   6.680  1.00  0.00    -0.286 OA
HETATM    4  C   UNL     1      42.017 -11.666   5.052  1.00  0.00     0.043 A 
HETATM    5  C   UNL     1      43.344 -11.876   4.633  1.00  0.00     0.046 A 
HETATM    6  N   UNL     1      44.403 -11.373   5.396  1.00  0.00    -0.364 N 
HETATM    7  C   UNL     1      40.943 -12.195   4.331  1.00  0.00     0.043 A 
HETATM    8  C   UNL     1      41.204 -12.984   3.209  1.00  0.00     0.081 A 
HETATM    9  C   UNL     1      42.518 -13.201   2.778  1.00  0.00     0.027 A 
HETATM   10  C   UNL     1      43.584 -12.650   3.494  1.00  0.00     0.032 A 
HETATM   11  C   UNL     1      44.166 -10.632   6.525  1.00  0.00     0.109 A 
HETATM   12  H   UNL     1      45.346 -11.399   5.023  1.00  0.00     0.165 HD
ENDROOT
BRANCH   8  13
HETATM   13  S   UNL     1      39.851 -13.695   2.293  1.00  0.00     0.263 S 
HETATM   14  O   UNL     1      38.692 -12.853   2.491  1.00  0.00    -0.200 OA
HETATM   15  O   UNL     1      40.344 -13.995   0.965  1.00  0.00    -0.200 OA
BRANCH  13  16
HETATM   16  N   UNL     1      39.623 -15.188   3.050  1.00  0.00    -0.281 N 
HETATM   17  H   UNL     1      38.814 -15.690   2.689  1.00  0.00     0.179 HD
BRANCH  16  18
HETATM   18  C   UNL     1      40.754 -15.943   3.462  1.00  0.00     0.042 A 
HETATM   19  C   UNL     1      41.142 -15.963   4.798  1.00  0.00     0.033 A 
HETATM   20  C   UNL     1      42.286 -16.666   5.179  1.00  0.00     0.039 A 
HETATM   21  C   UNL     1      43.056 -17.343   4.229  1.00  0.00     0.068 A 
HETATM   22  C   UNL     1      42.662 -17.321   2.890  1.00  0.00     0.039 A 
HETATM   23  C   UNL     1      41.510 -16.623   2.507  1.00  0.00     0.033 A 
BRANCH  21  24
HETATM   24  O   UNL     1      44.150 -17.983   4.738  1.00  0.00    -0.352 OA
BRANCH  24  25
HETATM   25  C   UNL     1      44.394 -19.315   4.290  1.00  0.00     0.171 C 
HETATM   26  C   UNL     1      44.010 -20.262   5.413  1.00  0.00     0.034 C 
ENDBRANCH  24  25
ENDBRANCH  21  24
ENDBRANCH  16  18
ENDBRANCH  13  16
ENDBRANCH   8  13
BRANCH   1  27
HETATM   27  C   UNL     1      42.880  -9.562   8.296  1.00  0.00     0.257 C 
HETATM   28  N   UNL     1      41.893  -9.940   9.167  1.00  0.00    -0.357 N 
HETATM   29  H   UNL     1      41.251 -10.681   8.881  1.00  0.00     0.162 HD
HETATM   30  O   UNL     1      43.661  -8.642   8.523  1.00  0.00    -0.267 OA
BRANCH  28  31
HETATM   31  C   UNL     1      41.638  -9.249  10.412  1.00  0.00     0.123 C 
BRANCH  31  32
HETATM   32  C   UNL     1      42.462  -9.805  11.573  1.00  0.00     0.019 C 
BRANCH  32  33
HETATM   33  C   UNL     1      43.572  -8.850  12.017  1.00  0.00    -0.003 C 
HETATM   34  C   UNL     1      43.099  -7.929  13.129  1.00  0.00     0.005 C 
ENDBRANCH  32  33
ENDBRANCH  31  32
ENDBRANCH  28  31
ENDBRANCH   1  27
TORSDOF 9
ENDMDL
MODEL 2
REMARK VINA RESULT:      -7.8      2.895      9.833
REMARK  9 active torsions:
REMARK  status: ('A' for Active; 'I' for Inactive)
REMARK    1  A    between atoms: C_2  and  C_3 
REMARK    2  A    between atoms: C_3  and  C_4 
REMARK    3  A    between atoms: C_4  and  N_5 
REMARK       I    between atoms: N_5  and  C_6 
REMARK    4  A    between atoms: C_6  and  C_7 
REMARK    5  A    between atoms: C_14  and  S_15 
REMARK    6  A    between atoms: S_15  and  N_16 
REMARK    7  A    between atoms: N_16  and  C_17 
REMARK    8  A    between atoms: C_20  and  O_21 
REMARK    9  A    between atoms: O_21  and  C_22 
ROOT
HETATM    1  C   UNL     1      42.372 -14.728   5.143  1.00  0.00     0.098 A 
HETATM    2  C   UNL     1      43.323 -14.126   6.121  1.00  0.00     0.201 A 
HETATM    3  O   UNL     1      44.148 -14.809   6.724  1.00  0.00    -0.286 OA
HETATM    4  C   UNL     1      43.248 -12.659   6.361  1.00  0.00     0.043 A 
HETATM    5  C   UNL     1      42.292 -11.905   5.654  1.00  0.00     0.046 A 
HETATM    6  N   UNL     1      41.419 -12.544   4.767  1.00  0.00    -0.364 N 
HETATM    7  C   UNL     1      44.104 -12.052   7.284  1.00  0.00     0.043 A 
HETATM    8  C   UNL     1      43.966 -10.685   7.536  1.00  0.00     0.081 A 
HETATM    9  C   UNL     1      43.022  -9.921   6.840  1.00  0.00     0.027 A 
HETATM   10  C   UNL     1      42.185 -10.534   5.904  1.00  0.00     0.032 A 
HETATM   11  C   UNL     1      41.510 -13.892   4.539  1.00  0.00     0.109 A 
HETATM   12  H   UNL     1      40.831 -11.988   4.154  1.00  0.00     0.165 HD
ENDROOT
BRANCH   8  13
HETATM   13  S   UNL     1      45.025  -9.895   8.732  1.00  0.00     0.263 S 
HETATM   14  O   UNL     1      45.300 -10.854   9.780  1.00  0.00    -0.200 OA
HETATM   15  O   UNL     1      46.097  -9.256   7.999  1.00  0.00    -0.200 OA
BRANCH  13  16
HETATM   16  N   UNL     1      44.059  -8.643   9.326  1.00  0.00    -0.281 N 
HETATM   17  H   UNL     1      43.653  -8.077   8.584  1.00  0.00     0.179 HD
BRANCH  16  18
HETATM   18  C   UNL     1      43.300  -8.848  10.510  1.00  0.00     0.042 A 
HETATM   19  C   UNL     1      42.001  -9.343  10.439  1.00  0.00     0.033 A 
HETATM   20  C   UNL     1      41.249  -9.488  11.606  1.00  0.00     0.039 A 
HETATM   21  C   UNL     1      41.783  -9.130  12.847  1.00  0.00     0.068 A 
HETATM   22  C   UNL     1      43.086  -8.635  12.913  1.00  0.00     0.039 A 
HETATM   23  C   UNL     1      43.845  -8.496  11.745  1.00  0.00     0.033 A 
BRANCH  21  24
HETATM   24  O   UNL     1      40.937  -9.318  13.903  1.00  0.00    -0.352 OA
BRANCH  24  25
HETATM   25  C   UNL     1      41.090  -8.452  15.026  1.00  0.00     0.171 C 
HETATM   26  C   UNL     1      40.311  -7.180  14.744  1.00  0.00     0.034 C 
ENDBRANCH  24  25
ENDBRANCH  21  24
ENDBRANCH  16  18
ENDBRANCH  13  16
ENDBRANCH   8  13
BRANCH   1  27
HETATM   27  C   UNL     1      42.312 -16.178   4.800  1.00  0.00     0.257 C 
HETATM   28  N   UNL     1      43.491 -16.723   4.363  1.00  0.00    -0.357 N 
HETATM   29  H   UNL     1      44.297 -16.106   4.247  1.00  0.00     0.162 HD
HETATM   30  O   UNL     1      41.274 -16.824   4.913  1.00  0.00    -0.267 OA
BRANCH  28  31
HETATM   31  C   UNL     1      43.608 -18.100   3.935  1.00  0.00     0.123 C 
BRANCH  31  32
HETATM   32  C   UNL     1      43.249 -18.290   2.461  1.00  0.00     0.019 C 
BRANCH  32  33
HETATM   33  C   UNL     1      43.274 -19.760   2.036  1.00  0.00    -0.003 C 
HETATM   34  C   UNL     1      43.761 -20.655   3.164  1.00  0.00     0.005 C 
ENDBRANCH  32  33
ENDBRANCH  31  32
ENDBRANCH  28  31
ENDBRANCH   1  27
TORSDOF 9
ENDMDL
MODEL 3
REMARK VINA RESULT:      -7.6      2.491      3.049
REMARK  9 active torsions:
REMARK  status: ('A' for Active; 'I' for Inactive)
REMARK    1  A    between atoms: C_2  and  C_3 
REMARK    2  A    between atoms: C_3  and  C_4 
REMARK    3  A    between atoms: C_4  and  N_5 
REMARK       I    between atoms: N_5  and  C_6 
REMARK    4  A    between atoms: C_6  and  C_7 
REMARK    5  A    between atoms: C_14  and  S_15 
REMARK    6  A    between atoms: S_15  and  N_16 
REMARK    7  A    between atoms: N_16  and  C_17 
REMARK    8  A    between atoms: C_20  and  O_21 
REMARK    9  A    between atoms: O_21  and  C_22 
ROOT
HETATM    1  C   UNL     1      39.156 -10.752   6.474  1.00  0.00     0.098 A 
HETATM    2  C   UNL     1      39.529 -12.022   5.787  1.00  0.00     0.201 A 
HETATM    3  O   UNL     1      39.913 -13.007   6.415  1.00  0.00    -0.286 OA
HETATM    4  C   UNL     1      39.430 -12.072   4.303  1.00  0.00     0.043 A 
HETATM    5  C   UNL     1      38.985 -10.928   3.615  1.00  0.00     0.046 A 
HETATM    6  N   UNL     1      38.674  -9.765   4.327  1.00  0.00    -0.364 N 
HETATM    7  C   UNL     1      39.788 -13.234   3.612  1.00  0.00     0.043 A 
HETATM    8  C   UNL     1      39.748 -13.230   2.216  1.00  0.00     0.081 A 
HETATM    9  C   UNL     1      39.306 -12.100   1.517  1.00  0.00     0.027 A 
HETATM   10  C   UNL     1      38.930 -10.952   2.218  1.00  0.00     0.032 A 
HETATM   11  C   UNL     1      38.749  -9.736   5.695  1.00  0.00     0.109 A 
HETATM   12  H   UNL     1      38.219  -8.992   3.850  1.00  0.00     0.165 HD
ENDROOT
BRANCH   8  13
HETATM   13  S   UNL     1      40.231 -14.688   1.313  1.00  0.00     0.263 S 
HETATM   14  O   UNL     1      39.686 -15.836   2.004  1.00  0.00    -0.200 OA
HETATM   15  O   UNL     1      39.938 -14.443  -0.083  1.00  0.00    -0.200 OA
BRANCH  13  16
HETATM   16  N   UNL     1      41.915 -14.675   1.443  1.00  0.00    -0.281 N 
HETATM   17  H   UNL     1      42.307 -13.741   1.344  1.00  0.00     0.179 HD
BRANCH  16  18
HETATM   18  C   UNL     1      42.555 -15.583   2.329  1.00  0.00     0.042 A 
HETATM   19  C   UNL     1      42.927 -16.851   1.893  1.00  0.00     0.033 A 
HETATM   20  C   UNL     1      43.507 -17.750   2.790  1.00  0.00     0.039 A 
HETATM   21  C   UNL     1      43.707 -17.395   4.127  1.00  0.00     0.068 A 
HETATM   22  C   UNL     1      43.333 -16.122   4.559  1.00  0.00     0.039 A 
HETATM   23  C   UNL     1      42.759 -15.215   3.659  1.00  0.00     0.033 A 
BRANCH  21  24
HETATM   24  O   UNL     1      44.277 -18.372   4.893  1.00  0.00    -0.352 OA
BRANCH  24  25
HETATM   25  C   UNL     1      44.314 -19.690   4.350  1.00  0.00     0.171 C 
HETATM   26  C   UNL     1      43.958 -20.662   5.461  1.00  0.00     0.034 C 
ENDBRANCH  24  25
ENDBRANCH  21  24
ENDBRANCH  16  18
ENDBRANCH  13  16
ENDBRANCH   8  13
BRANCH   1  27
HETATM   27  C   UNL     1      39.209 -10.538   7.948  1.00  0.00     0.257 C 
HETATM   28  N   UNL     1      40.213  -9.711   8.383  1.00  0.00    -0.357 N 
HETATM   29  H   UNL     1      40.877  -9.353   7.695  1.00  0.00     0.162 HD
HETATM   30  O   UNL     1      38.400 -11.067   8.705  1.00  0.00    -0.267 OA
BRANCH  28  31
HETATM   31  C   UNL     1      40.449  -9.433   9.782  1.00  0.00     0.123 C 
BRANCH  31  32
HETATM   32  C   UNL     1      41.853  -8.887  10.045  1.00  0.00     0.019 C 
BRANCH  32  33
HETATM   33  C   UNL     1      42.648  -9.758  11.020  1.00  0.00    -0.003 C 
HETATM   34  C   UNL     1      43.393  -8.911  12.038  1.00  0.00     0.005 C 
ENDBRANCH  32  33
ENDBRANCH  31  32
ENDBRANCH  28  31
ENDBRANCH   1  27
TORSDOF 9
ENDMDL
MODEL 4
REMARK VINA RESULT:      -7.6      4.874      8.907
REMARK  9 active torsions:
REMARK  status: ('A' for Active; 'I' for Inactive)
REMARK    1  A    between atoms: C_2  and  C_3 
REMARK    2  A    between atoms: C_3  and  C_4 
REMARK    3  A    between atoms: C_4  and  N_5 
REMARK       I    between atoms: N_5  and  C_6 
REMARK    4  A    between atoms: C_6  and  C_7 
REMARK    5  A    between atoms: C_14  and  S_15 
REMARK    6  A    between atoms: S_15  and  N_16 
REMARK    7  A    between atoms: N_16  and  C_17 
REMARK    8  A    between atoms: C_20  and  O_21 
REMARK    9  A    between atoms: O_21  and  C_22 
ROOT
HETATM    1  C   UNL     1      41.371 -15.593   4.442  1.00  0.00     0.098 A 
HETATM    2  C   UNL     1      41.215 -15.638   2.960  1.00  0.00     0.201 A 
HETATM    3  O   UNL     1      41.724 -16.530   2.284  1.00  0.00    -0.286 OA
HETATM    4  C   UNL     1      40.425 -14.561   2.305  1.00  0.00     0.043 A 
HETATM    5  C   UNL     1      39.855 -13.555   3.107  1.00  0.00     0.046 A 
HETATM    6  N   UNL     1      40.062 -13.568   4.490  1.00  0.00    -0.364 N 
HETATM    7  C   UNL     1      40.269 -14.548   0.916  1.00  0.00     0.043 A 
HETATM    8  C   UNL     1      39.578 -13.490   0.322  1.00  0.00     0.081 A 
HETATM    9  C   UNL     1      39.003 -12.482   1.107  1.00  0.00     0.027 A 
HETATM   10  C   UNL     1      39.147 -12.516   2.496  1.00  0.00     0.032 A 
HETATM   11  C   UNL     1      40.774 -14.576   5.086  1.00  0.00     0.109 A 
HETATM   12  H   UNL     1      39.537 -12.931   5.082  1.00  0.00     0.165 HD
ENDROOT
BRANCH   8  13
HETATM   13  S   UNL     1      39.394 -13.435  -1.449  1.00  0.00     0.263 S 
HETATM   14  O   UNL     1      39.243 -14.794  -1.920  1.00  0.00    -0.200 OA
HETATM   15  O   UNL     1      38.402 -12.423  -1.745  1.00  0.00    -0.200 OA
BRANCH  13  16
HETATM   16  N   UNL     1      40.872 -12.800  -1.965  1.00  0.00    -0.281 N 
HETATM   17  H   UNL     1      41.338 -13.397  -2.645  1.00  0.00     0.179 HD
BRANCH  16  18
HETATM   18  C   UNL     1      41.022 -11.393  -2.091  1.00  0.00     0.042 A 
HETATM   19  C   UNL     1      40.817 -10.767  -3.317  1.00  0.00     0.033 A 
HETATM   20  C   UNL     1      41.021  -9.392  -3.437  1.00  0.00     0.039 A 
HETATM   21  C   UNL     1      41.441  -8.635  -2.340  1.00  0.00     0.068 A 
HETATM   22  C   UNL     1      41.644  -9.266  -1.112  1.00  0.00     0.039 A 
HETATM   23  C   UNL     1      41.433 -10.645  -0.987  1.00  0.00     0.033 A 
BRANCH  21  24
HETATM   24  O   UNL     1      41.606  -7.304  -2.600  1.00  0.00    -0.352 OA
BRANCH  24  25
HETATM   25  C   UNL     1      42.861  -6.894  -3.140  1.00  0.00     0.171 C 
HETATM   26  C   UNL     1      43.707  -6.358  -2.000  1.00  0.00     0.034 C 
ENDBRANCH  24  25
ENDBRANCH  21  24
ENDBRANCH  16  18
ENDBRANCH  13  16
ENDBRANCH   8  13
BRANCH   1  27
HETATM   27  C   UNL     1      42.137 -16.588   5.246  1.00  0.00     0.257 C 
HETATM   28  N   UNL     1      43.170 -17.201   4.585  1.00  0.00    -0.357 N 
HETATM   29  H   UNL     1      43.308 -16.987   3.596  1.00  0.00     0.162 HD
HETATM   30  O   UNL     1      41.854 -16.825   6.417  1.00  0.00    -0.267 OA
BRANCH  28  31
HETATM   31  C   UNL     1      43.987 -18.230   5.190  1.00  0.00     0.123 C 
BRANCH  31  32
HETATM   32  C   UNL     1      44.185 -19.438   4.273  1.00  0.00     0.019 C 
BRANCH  32  33
HETATM   33  C   UNL     1      43.967 -19.097   2.798  1.00  0.00    -0.003 C 
HETATM   34  C   UNL     1      43.285 -20.237   2.061  1.00  0.00     0.005 C 
ENDBRANCH  32  33
ENDBRANCH  31  32
ENDBRANCH  28  31
ENDBRANCH   1  27
TORSDOF 9
ENDMDL
MODEL 5
REMARK VINA RESULT:      -7.5      2.096      2.700
REMARK  9 active torsions:
REMARK  status: ('A' for Active; 'I' for Inactive)
REMARK    1  A    between atoms: C_2  and  C_3 
REMARK    2  A    between atoms: C_3  and  C_4 
REMARK    3  A    between atoms: C_4  and  N_5 
REMARK       I    between atoms: N_5  and  C_6 
REMARK    4  A    between atoms: C_6  and  C_7 
REMARK    5  A    between atoms: C_14  and  S_15 
REMARK    6  A    between atoms: S_15  and  N_16 
REMARK    7  A    between atoms: N_16  and  C_17 
REMARK    8  A    between atoms: C_20  and  O_21 
REMARK    9  A    between atoms: O_21  and  C_22 
ROOT
HETATM    1  C   UNL     1      43.493 -11.256   6.079  1.00  0.00     0.098 A 
HETATM    2  C   UNL     1      43.319 -11.537   4.625  1.00  0.00     0.201 A 
HETATM    3  O   UNL     1      44.249 -11.422   3.829  1.00  0.00    -0.286 OA
HETATM    4  C   UNL     1      41.974 -11.960   4.148  1.00  0.00     0.043 A 
HETATM    5  C   UNL     1      40.931 -12.083   5.085  1.00  0.00     0.046 A 
HETATM    6  N   UNL     1      41.165 -11.781   6.431  1.00  0.00    -0.364 N 
HETATM    7  C   UNL     1      41.756 -12.215   2.791  1.00  0.00     0.043 A 
HETATM    8  C   UNL     1      40.468 -12.546   2.364  1.00  0.00     0.081 A 
HETATM    9  C   UNL     1      39.420 -12.674   3.284  1.00  0.00     0.027 A 
HETATM   10  C   UNL     1      39.654 -12.438   4.641  1.00  0.00     0.032 A 
HETATM   11  C   UNL     1      42.412 -11.412   6.862  1.00  0.00     0.109 A 
HETATM   12  H   UNL     1      40.460 -12.006   7.125  1.00  0.00     0.165 HD
ENDROOT
BRANCH   8  13
HETATM   13  S   UNL     1      40.159 -12.843   0.634  1.00  0.00     0.263 S 
HETATM   14  O   UNL     1      38.837 -12.343   0.329  1.00  0.00    -0.200 OA
HETATM   15  O   UNL     1      41.323 -12.383  -0.094  1.00  0.00    -0.200 OA
BRANCH  13  16
HETATM   16  N   UNL     1      40.184 -14.529   0.528  1.00  0.00    -0.281 N 
HETATM   17  H   UNL     1      40.009 -14.863  -0.418  1.00  0.00     0.179 HD
BRANCH  16  18
HETATM   18  C   UNL     1      41.077 -15.268   1.348  1.00  0.00     0.042 A 
HETATM   19  C   UNL     1      40.618 -15.907   2.496  1.00  0.00     0.033 A 
HETATM   20  C   UNL     1      41.518 -16.585   3.320  1.00  0.00     0.039 A 
HETATM   21  C   UNL     1      42.881 -16.620   3.012  1.00  0.00     0.068 A 
HETATM   22  C   UNL     1      43.336 -15.979   1.859  1.00  0.00     0.039 A 
HETATM   23  C   UNL     1      42.434 -15.305   1.026  1.00  0.00     0.033 A 
BRANCH  21  24
HETATM   24  O   UNL     1      43.646 -17.312   3.906  1.00  0.00    -0.352 OA
BRANCH  24  25
HETATM   25  C   UNL     1      43.650 -16.853   5.257  1.00  0.00     0.171 C 
HETATM   26  C   UNL     1      43.523 -18.065   6.161  1.00  0.00     0.034 C 
ENDBRANCH  24  25
ENDBRANCH  21  24
ENDBRANCH  16  18
ENDBRANCH  13  16
ENDBRANCH   8  13
BRANCH   1  27
HETATM   27  C   UNL     1      44.769 -10.815   6.711  1.00  0.00     0.257 C 
HETATM   28  N   UNL     1      44.637  -9.875   7.699  1.00  0.00    -0.357 N 
HETATM   29  H   UNL     1      43.706  -9.503   7.894  1.00  0.00     0.162 HD
HETATM   30  O   UNL     1      45.853 -11.277   6.363  1.00  0.00    -0.267 OA
BRANCH  28  31
HETATM   31  C   UNL     1      45.770  -9.293   8.385  1.00  0.00     0.123 C 
BRANCH  31  32
HETATM   32  C   UNL     1      45.729  -9.527   9.895  1.00  0.00     0.019 C 
BRANCH  32  33
HETATM   33  C   UNL     1      44.327  -9.343  10.479  1.00  0.00    -0.003 C 
HETATM   34  C   UNL     1      43.871 -10.584  11.229  1.00  0.00     0.005 C 
ENDBRANCH  32  33
ENDBRANCH  31  32
ENDBRANCH  28  31
ENDBRANCH   1  27
TORSDOF 9
ENDMDL
MODEL 6
REMARK VINA RESULT:      -7.5      1.656      2.443
REMARK  9 active torsions:
REMARK  status: ('A' for Active; 'I' for Inactive)
REMARK    1  A    between atoms: C_2  and  C_3 
REMARK    2  A    between atoms: C_3  and  C_4 
REMARK    3  A    between atoms: C_4  and  N_5 
REMARK       I    between atoms: N_5  and  C_6 
REMARK    4  A    between atoms: C_6  and  C_7 
REMARK    5  A    between atoms: C_14  and  S_15 
REMARK    6  A    between atoms: S_15  and  N_16 
REMARK    7  A    between atoms: N_16  and  C_17 
REMARK    8  A    between atoms: C_20  and  O_21 
REMARK    9  A    between atoms: O_21  and  C_22 
ROOT
HETATM    1  C   UNL     1      42.259  -9.955   6.784  1.00  0.00     0.098 A 
HETATM    2  C   UNL     1      42.717 -10.795   5.641  1.00  0.00     0.201 A 
HETATM    3  O   UNL     1      43.896 -10.825   5.293  1.00  0.00    -0.286 OA
HETATM    4  C   UNL     1      41.702 -11.605   4.915  1.00  0.00     0.043 A 
HETATM    5  C   UNL     1      40.361 -11.550   5.339  1.00  0.00     0.046 A 
HETATM    6  N   UNL     1      40.003 -10.721   6.408  1.00  0.00    -0.364 N 
HETATM    7  C   UNL     1      42.079 -12.392   3.823  1.00  0.00     0.043 A 
HETATM    8  C   UNL     1      41.095 -13.090   3.120  1.00  0.00     0.081 A 
HETATM    9  C   UNL     1      39.757 -13.047   3.530  1.00  0.00     0.027 A 
HETATM   10  C   UNL     1      39.394 -12.273   4.636  1.00  0.00     0.032 A 
HETATM   11  C   UNL     1      40.950  -9.995   7.082  1.00  0.00     0.109 A 
HETATM   12  H   UNL     1      39.071 -10.789   6.804  1.00  0.00     0.165 HD
ENDROOT
BRANCH   8  13
HETATM   13  S   UNL     1      41.547 -14.074   1.705  1.00  0.00     0.263 S 
HETATM   14  O   UNL     1      40.734 -13.644   0.590  1.00  0.00    -0.200 OA
HETATM   15  O   UNL     1      42.993 -14.071   1.627  1.00  0.00    -0.200 OA
BRANCH  13  16
HETATM   16  N   UNL     1      41.112 -15.637   2.175  1.00  0.00    -0.281 N 
HETATM   17  H   UNL     1      40.446 -16.066   1.536  1.00  0.00     0.179 HD
BRANCH  16  18
HETATM   18  C   UNL     1      42.076 -16.472   2.802  1.00  0.00     0.042 A 
HETATM   19  C   UNL     1      42.722 -17.472   2.081  1.00  0.00     0.033 A 
HETATM   20  C   UNL     1      43.626 -18.318   2.724  1.00  0.00     0.039 A 
HETATM   21  C   UNL     1      43.883 -18.181   4.091  1.00  0.00     0.068 A 
HETATM   22  C   UNL     1      43.233 -17.176   4.810  1.00  0.00     0.039 A 
HETATM   23  C   UNL     1      42.332 -16.320   4.165  1.00  0.00     0.033 A 
BRANCH  21  24
HETATM   24  O   UNL     1      44.783 -19.078   4.591  1.00  0.00    -0.352 OA
BRANCH  24  25
HETATM   25  C   UNL     1      44.338 -20.421   4.768  1.00  0.00     0.171 C 
HETATM   26  C   UNL     1      43.557 -20.487   6.068  1.00  0.00     0.034 C 
ENDBRANCH  24  25
ENDBRANCH  21  24
ENDBRANCH  16  18
ENDBRANCH  13  16
ENDBRANCH   8  13
BRANCH   1  27
HETATM   27  C   UNL     1      43.147  -9.082   7.605  1.00  0.00     0.257 C 
HETATM   28  N   UNL     1      44.266  -9.694   8.107  1.00  0.00    -0.357 N 
HETATM   29  H   UNL     1      44.387 -10.695   7.941  1.00  0.00     0.162 HD
HETATM   30  O   UNL     1      42.882  -7.899   7.802  1.00  0.00    -0.267 OA
BRANCH  28  31
HETATM   31  C   UNL     1      45.211  -9.017   8.968  1.00  0.00     0.123 C 
BRANCH  31  32
HETATM   32  C   UNL     1      45.413  -9.738  10.301  1.00  0.00     0.019 C 
BRANCH  32  33
HETATM   33  C   UNL     1      44.118  -9.853  11.108  1.00  0.00    -0.003 C 
HETATM   34  C   UNL     1      43.608  -8.486  11.533  1.00  0.00     0.005 C 
ENDBRANCH  32  33
ENDBRANCH  31  32
ENDBRANCH  28  31
ENDBRANCH   1  27
TORSDOF 9
ENDMDL
MODEL 7
REMARK VINA RESULT:      -7.4      2.370      3.403
REMARK  9 active torsions:
REMARK  status: ('A' for Active; 'I' for Inactive)
REMARK    1  A    between atoms: C_2  and  C_3 
REMARK    2  A    between atoms: C_3  and  C_4 
REMARK    3  A    between atoms: C_4  and  N_5 
REMARK       I    between atoms: N_5  and  C_6 
REMARK    4  A    between atoms: C_6  and  C_7 
REMARK    5  A    between atoms: C_14  and  S_15 
REMARK    6  A    between atoms: S_15  and  N_16 
REMARK    7  A    between atoms: N_16  and  C_17 
REMARK    8  A    between atoms: C_20  and  O_21 
REMARK    9  A    between atoms: O_21  and  C_22 
ROOT
HETATM    1  C   UNL     1      43.741  -9.606  10.526  1.00  0.00     0.098 A 
HETATM    2  C   UNL     1      42.996  -9.807   9.250  1.00  0.00     0.201 A 
HETATM    3  O   UNL     1      41.791  -9.579   9.164  1.00  0.00    -0.286 OA
HETATM    4  C   UNL     1      43.750 -10.303   8.068  1.00  0.00     0.043 A 
HETATM    5  C   UNL     1      45.129 -10.554   8.200  1.00  0.00     0.046 A 
HETATM    6  N   UNL     1      45.756 -10.361   9.436  1.00  0.00    -0.364 N 
HETATM    7  C   UNL     1      43.092 -10.528   6.856  1.00  0.00     0.043 A 
HETATM    8  C   UNL     1      43.812 -11.055   5.782  1.00  0.00     0.081 A 
HETATM    9  C   UNL     1      45.184 -11.308   5.897  1.00  0.00     0.027 A 
HETATM   10  C   UNL     1      45.837 -11.060   7.107  1.00  0.00     0.032 A 
HETATM   11  C   UNL     1      45.056  -9.885  10.513  1.00  0.00     0.109 A 
HETATM   12  H   UNL     1      46.769 -10.402   9.496  1.00  0.00     0.165 HD
ENDROOT
BRANCH   8  13
HETATM   13  S   UNL     1      42.986 -11.380   4.237  1.00  0.00     0.263 S 
HETATM   14  O   UNL     1      42.212 -10.208   3.894  1.00  0.00    -0.200 OA
HETATM   15  O   UNL     1      43.975 -11.919   3.328  1.00  0.00    -0.200 OA
BRANCH  13  16
HETATM   16  N   UNL     1      41.958 -12.665   4.618  1.00  0.00    -0.281 N 
HETATM   17  H   UNL     1      40.991 -12.484   4.355  1.00  0.00     0.179 HD
BRANCH  16  18
HETATM   18  C   UNL     1      42.442 -13.998   4.526  1.00  0.00     0.042 A 
HETATM   19  C   UNL     1      43.088 -14.592   5.606  1.00  0.00     0.033 A 
HETATM   20  C   UNL     1      43.604 -15.883   5.482  1.00  0.00     0.039 A 
HETATM   21  C   UNL     1      43.490 -16.584   4.279  1.00  0.00     0.068 A 
HETATM   22  C   UNL     1      42.841 -15.985   3.198  1.00  0.00     0.039 A 
HETATM   23  C   UNL     1      42.314 -14.693   3.322  1.00  0.00     0.033 A 
BRANCH  21  24
HETATM   24  O   UNL     1      44.044 -17.832   4.296  1.00  0.00    -0.352 OA
BRANCH  24  25
HETATM   25  C   UNL     1      43.878 -18.605   5.483  1.00  0.00     0.171 C 
HETATM   26  C   UNL     1      44.129 -20.060   5.132  1.00  0.00     0.034 C 
ENDBRANCH  24  25
ENDBRANCH  21  24
ENDBRANCH  16  18
ENDBRANCH  13  16
ENDBRANCH   8  13
BRANCH   1  27
HETATM   27  C   UNL     1      43.131  -9.126  11.799  1.00  0.00     0.257 C 
HETATM   28  N   UNL     1      41.962  -9.746  12.156  1.00  0.00    -0.357 N 
HETATM   29  H   UNL     1      41.563 -10.435  11.517  1.00  0.00     0.162 HD
HETATM   30  O   UNL     1      43.655  -8.242  12.471  1.00  0.00    -0.267 OA
BRANCH  28  31
HETATM   31  C   UNL     1      41.203  -9.372  13.330  1.00  0.00     0.123 C 
BRANCH  31  32
HETATM   32  C   UNL     1      40.381  -8.101  13.119  1.00  0.00     0.019 C 
BRANCH  32  33
HETATM   33  C   UNL     1      40.380  -7.192  14.350  1.00  0.00    -0.003 C 
HETATM   34  C   UNL     1      41.574  -7.473  15.247  1.00  0.00     0.005 C 
ENDBRANCH  32  33
ENDBRANCH  31  32
ENDBRANCH  28  31
ENDBRANCH   1  27
TORSDOF 9
ENDMDL
MODEL 8
REMARK VINA RESULT:      -7.3      1.952      3.057
REMARK  9 active torsions:
REMARK  status: ('A' for Active; 'I' for Inactive)
REMARK    1  A    between atoms: C_2  and  C_3 
REMARK    2  A    between atoms: C_3  and  C_4 
REMARK    3  A    between atoms: C_4  and  N_5 
REMARK       I    between atoms: N_5  and  C_6 
REMARK    4  A    between atoms: C_6  and  C_7 
REMARK    5  A    between atoms: C_14  and  S_15 
REMARK    6  A    between atoms: S_15  and  N_16 
REMARK    7  A    between atoms: N_16  and  C_17 
REMARK    8  A    between atoms: C_20  and  O_21 
REMARK    9  A    between atoms: O_21  and  C_22 
ROOT
HETATM    1  C   UNL     1      41.595  -9.055   8.598  1.00  0.00     0.098 A 
HETATM    2  C   UNL     1      42.240  -9.677   7.408  1.00  0.00     0.201 A 
HETATM    3  O   UNL     1      43.462  -9.738   7.293  1.00  0.00    -0.286 OA
HETATM    4  C   UNL     1      41.361 -10.228   6.341  1.00  0.00     0.043 A 
HETATM    5  C   UNL     1      39.965 -10.144   6.502  1.00  0.00     0.046 A 
HETATM    6  N   UNL     1      39.433  -9.525   7.639  1.00  0.00    -0.364 N 
HETATM    7  C   UNL     1      41.919 -10.802   5.195  1.00  0.00     0.043 A 
HETATM    8  C   UNL     1      41.070 -11.251   4.181  1.00  0.00     0.081 A 
HETATM    9  C   UNL     1      39.679 -11.176   4.328  1.00  0.00     0.027 A 
HETATM   10  C   UNL     1      39.132 -10.619   5.486  1.00  0.00     0.032 A 
HETATM   11  C   UNL     1      40.251  -9.040   8.625  1.00  0.00     0.109 A 
HETATM   12  H   UNL     1      38.437  -9.592   7.825  1.00  0.00     0.165 HD
ENDROOT
BRANCH   8  13
HETATM   13  S   UNL     1      41.759 -11.957   2.698  1.00  0.00     0.263 S 
HETATM   14  O   UNL     1      40.733 -12.762   2.073  1.00  0.00    -0.200 OA
HETATM   15  O   UNL     1      42.415 -10.886   1.978  1.00  0.00    -0.200 OA
BRANCH  13  16
HETATM   16  N   UNL     1      42.996 -12.945   3.286  1.00  0.00    -0.281 N 
HETATM   17  H   UNL     1      43.370 -12.616   4.174  1.00  0.00     0.179 HD
BRANCH  16  18
HETATM   18  C   UNL     1      42.940 -14.347   3.058  1.00  0.00     0.042 A 
HETATM   19  C   UNL     1      43.383 -14.885   1.854  1.00  0.00     0.033 A 
HETATM   20  C   UNL     1      43.272 -16.257   1.624  1.00  0.00     0.039 A 
HETATM   21  C   UNL     1      42.709 -17.098   2.587  1.00  0.00     0.068 A 
HETATM   22  C   UNL     1      42.266 -16.554   3.794  1.00  0.00     0.039 A 
HETATM   23  C   UNL     1      42.384 -15.179   4.031  1.00  0.00     0.033 A 
BRANCH  21  24
HETATM   24  O   UNL     1      42.657 -18.415   2.229  1.00  0.00    -0.352 OA
BRANCH  24  25
HETATM   25  C   UNL     1      43.696 -19.265   2.712  1.00  0.00     0.171 C 
HETATM   26  C   UNL     1      43.753 -20.488   1.815  1.00  0.00     0.034 C 
ENDBRANCH  24  25
ENDBRANCH  21  24
ENDBRANCH  16  18
ENDBRANCH  13  16
ENDBRANCH   8  13
BRANCH   1  27
HETATM   27  C   UNL     1      42.332  -8.451   9.745  1.00  0.00     0.257 C 
HETATM   28  N   UNL     1      43.017  -9.340  10.532  1.00  0.00    -0.357 N 
HETATM   29  H   UNL     1      42.933 -10.337  10.324  1.00  0.00     0.162 HD
HETATM   30  O   UNL     1      42.322  -7.241   9.952  1.00  0.00    -0.267 OA
BRANCH  28  31
HETATM   31  C   UNL     1      43.744  -8.941  11.717  1.00  0.00     0.123 C 
BRANCH  31  32
HETATM   32  C   UNL     1      42.831  -8.735  12.925  1.00  0.00     0.019 C 
BRANCH  32  33
HETATM   33  C   UNL     1      42.728  -7.265  13.339  1.00  0.00    -0.003 C 
HETATM   34  C   UNL     1      42.861  -7.102  14.844  1.00  0.00     0.005 C 
ENDBRANCH  32  33
ENDBRANCH  31  32
ENDBRANCH  28  31
ENDBRANCH   1  27
TORSDOF 9
ENDMDL
MODEL 9
REMARK VINA RESULT:      -7.3      3.751     11.006
REMARK  9 active torsions:
REMARK  status: ('A' for Active; 'I' for Inactive)
REMARK    1  A    between atoms: C_2  and  C_3 
REMARK    2  A    between atoms: C_3  and  C_4 
REMARK    3  A    between atoms: C_4  and  N_5 
REMARK       I    between atoms: N_5  and  C_6 
REMARK    4  A    between atoms: C_6  and  C_7 
REMARK    5  A    between atoms: C_14  and  S_15 
REMARK    6  A    between atoms: S_15  and  N_16 
REMARK    7  A    between atoms: N_16  and  C_17 
REMARK    8  A    between atoms: C_20  and  O_21 
REMARK    9  A    between atoms: O_21  and  C_22 
ROOT
HETATM    1  C   UNL     1      44.254 -11.378   5.773  1.00  0.00     0.098 A 
HETATM    2  C   UNL     1      43.241 -10.870   6.742  1.00  0.00     0.201 A 
HETATM    3  O   UNL     1      42.039 -10.879   6.483  1.00  0.00    -0.286 OA
HETATM    4  C   UNL     1      43.722 -10.336   8.045  1.00  0.00     0.043 A 
HETATM    5  C   UNL     1      45.104 -10.341   8.310  1.00  0.00     0.046 A 
HETATM    6  N   UNL     1      45.997 -10.815   7.343  1.00  0.00    -0.364 N 
HETATM    7  C   UNL     1      42.812  -9.829   8.977  1.00  0.00     0.043 A 
HETATM    8  C   UNL     1      43.298  -9.275  10.164  1.00  0.00     0.081 A 
HETATM    9  C   UNL     1      44.670  -9.274  10.443  1.00  0.00     0.027 A 
HETATM   10  C   UNL     1      45.569  -9.803   9.513  1.00  0.00     0.032 A 
HETATM   11  C   UNL     1      45.541 -11.323   6.154  1.00  0.00     0.109 A 
HETATM   12  H   UNL     1      46.973 -10.952   7.586  1.00  0.00     0.165 HD
ENDROOT
BRANCH   8  13
HETATM   13  S   UNL     1      42.159  -8.593  11.352  1.00  0.00     0.263 S 
HETATM   14  O   UNL     1      42.058  -7.172  11.102  1.00  0.00    -0.200 OA
HETATM   15  O   UNL     1      40.985  -9.440  11.356  1.00  0.00    -0.200 OA
BRANCH  13  16
HETATM   16  N   UNL     1      42.936  -8.871  12.826  1.00  0.00    -0.281 N 
HETATM   17  H   UNL     1      43.946  -8.959  12.726  1.00  0.00     0.179 HD
BRANCH  16  18
HETATM   18  C   UNL     1      42.427  -8.271  14.009  1.00  0.00     0.042 A 
HETATM   19  C   UNL     1      41.344  -8.834  14.677  1.00  0.00     0.033 A 
HETATM   20  C   UNL     1      40.822  -8.203  15.807  1.00  0.00     0.039 A 
HETATM   21  C   UNL     1      41.369  -7.003  16.271  1.00  0.00     0.068 A 
HETATM   22  C   UNL     1      42.456  -6.443  15.598  1.00  0.00     0.039 A 
HETATM   23  C   UNL     1      42.987  -7.078  14.469  1.00  0.00     0.033 A 
BRANCH  21  24
HETATM   24  O   UNL     1      40.758  -6.493  17.381  1.00  0.00    -0.352 OA
BRANCH  24  25
HETATM   25  C   UNL     1      40.307  -5.141  17.316  1.00  0.00     0.171 C 
HETATM   26  C   UNL     1      38.992  -5.124  16.558  1.00  0.00     0.034 C 
ENDBRANCH  24  25
ENDBRANCH  21  24
ENDBRANCH  16  18
ENDBRANCH  13  16
ENDBRANCH   8  13
BRANCH   1  27
HETATM   27  C   UNL     1      43.936 -11.933   4.426  1.00  0.00     0.257 C 
HETATM   28  N   UNL     1      43.148 -13.054   4.427  1.00  0.00    -0.357 N 
HETATM   29  H   UNL     1      42.885 -13.461   5.327  1.00  0.00     0.162 HD
HETATM   30  O   UNL     1      44.354 -11.407   3.398  1.00  0.00    -0.267 OA
BRANCH  28  31
HETATM   31  C   UNL     1      42.785 -13.759   3.218  1.00  0.00     0.123 C 
BRANCH  31  32
HETATM   32  C   UNL     1      42.973 -15.271   3.338  1.00  0.00     0.019 C 
BRANCH  32  33
HETATM   33  C   UNL     1      42.933 -15.977   1.981  1.00  0.00    -0.003 C 
HETATM   34  C   UNL     1      43.087 -17.481   2.135  1.00  0.00     0.005 C 
ENDBRANCH  32  33
ENDBRANCH  31  32
ENDBRANCH  28  31
ENDBRANCH   1  27
TORSDOF 9
ENDMDL
MODEL 10
REMARK VINA RESULT:      -7.3      1.661      2.152
REMARK  9 active torsions:
REMARK  status: ('A' for Active; 'I' for Inactive)
REMARK    1  A    between atoms: C_2  and  C_3 
REMARK    2  A    between atoms: C_3  and  C_4 
REMARK    3  A    between atoms: C_4  and  N_5 
REMARK       I    between atoms: N_5  and  C_6 
REMARK    4  A    between atoms: C_6  and  C_7 
REMARK    5  A    between atoms: C_14  and  S_15 
REMARK    6  A    between atoms: S_15  and  N_16 
REMARK    7  A    between atoms: N_16  and  C_17 
REMARK    8  A    between atoms: C_20  and  O_21 
REMARK    9  A    between atoms: O_21  and  C_22 
ROOT
HETATM    1  C   UNL     1      40.340  -9.810   8.057  1.00  0.00     0.098 A 
HETATM    2  C   UNL     1      39.714 -10.668   7.010  1.00  0.00     0.201 A 
HETATM    3  O   UNL     1      38.549 -11.048   7.099  1.00  0.00    -0.286 OA
HETATM    4  C   UNL     1      40.544 -11.065   5.841  1.00  0.00     0.043 A 
HETATM    5  C   UNL     1      41.875 -10.612   5.769  1.00  0.00     0.046 A 
HETATM    6  N   UNL     1      42.399  -9.827   6.801  1.00  0.00    -0.364 N 
HETATM    7  C   UNL     1      40.009 -11.886   4.844  1.00  0.00     0.043 A 
HETATM    8  C   UNL     1      40.831 -12.296   3.792  1.00  0.00     0.081 A 
HETATM    9  C   UNL     1      42.157 -11.852   3.705  1.00  0.00     0.027 A 
HETATM   10  C   UNL     1      42.675 -11.015   4.696  1.00  0.00     0.032 A 
HETATM   11  C   UNL     1      41.620  -9.450   7.863  1.00  0.00     0.109 A 
HETATM   12  H   UNL     1      43.304  -9.382   6.683  1.00  0.00     0.165 HD
ENDROOT
BRANCH   8  13
HETATM   13  S   UNL     1      40.180 -13.369   2.527  1.00  0.00     0.263 S 
HETATM   14  O   UNL     1      38.870 -12.878   2.163  1.00  0.00    -0.200 OA
HETATM   15  O   UNL     1      41.221 -13.540   1.534  1.00  0.00    -0.200 OA
BRANCH  13  16
HETATM   16  N   UNL     1      40.047 -14.854   3.319  1.00  0.00    -0.281 N 
HETATM   17  H   UNL     1      39.136 -15.289   3.184  1.00  0.00     0.179 HD
BRANCH  16  18
HETATM   18  C   UNL     1      41.186 -15.697   3.421  1.00  0.00     0.042 A 
HETATM   19  C   UNL     1      41.444 -16.657   2.448  1.00  0.00     0.033 A 
HETATM   20  C   UNL     1      42.538 -17.513   2.590  1.00  0.00     0.039 A 
HETATM   21  C   UNL     1      43.372 -17.424   3.707  1.00  0.00     0.068 A 
HETATM   22  C   UNL     1      43.111 -16.459   4.680  1.00  0.00     0.039 A 
HETATM   23  C   UNL     1      42.019 -15.593   4.536  1.00  0.00     0.033 A 
BRANCH  21  24
HETATM   24  O   UNL     1      44.399 -18.325   3.720  1.00  0.00    -0.352 OA
BRANCH  24  25
HETATM   25  C   UNL     1      44.055 -19.707   3.811  1.00  0.00     0.171 C 
HETATM   26  C   UNL     1      44.012 -20.081   5.281  1.00  0.00     0.034 C 
ENDBRANCH  24  25
ENDBRANCH  21  24
ENDBRANCH  16  18
ENDBRANCH  13  16
ENDBRANCH   8  13
BRANCH   1  27
HETATM   27  C   UNL     1      39.648  -9.336   9.290  1.00  0.00     0.257 C 
HETATM   28  N   UNL     1      40.228  -9.722  10.470  1.00  0.00    -0.357 N 
HETATM   29  H   UNL     1      41.039 -10.343  10.432  1.00  0.00     0.162 HD
HETATM   30  O   UNL     1      38.636  -8.643   9.234  1.00  0.00    -0.267 OA
BRANCH  28  31
HETATM   31  C   UNL     1      39.665  -9.400  11.763  1.00  0.00     0.123 C 
BRANCH  31  32
HETATM   32  C   UNL     1      40.295 -10.208  12.897  1.00  0.00     0.019 C 
BRANCH  32  33
HETATM   33  C   UNL     1      41.779  -9.888  13.091  1.00  0.00    -0.003 C 
HETATM   34  C   UNL     1      41.972  -8.689  14.004  1.00  0.00     0.005 C 
ENDBRANCH  32  33
ENDBRANCH  31  32
ENDBRANCH  28  31
ENDBRANCH   1  27
TORSDOF 9
ENDMDL
