MODEL 1
REMARK VINA RESULT:      -9.9      0.000      0.000
REMARK  6 active torsions:
REMARK  status: ('A' for Active; 'I' for Inactive)
REMARK    1  A    between atoms: C_2  and  O_3 
REMARK    2  A    between atoms: C_2  and  C_4 
REMARK    3  A    between atoms: C_6  and  N_7 
REMARK       I    between atoms: N_7  and  C_8 
REMARK    4  A    between atoms: C_8  and  C_9 
REMARK    5  A    between atoms: C_14  and  C_15 
REMARK    6  A    between atoms: C_23  and  C_24 
ROOT
HETATM    1  C   UNL     1      42.275 -12.455   5.320  1.00  0.00     0.148 C 
HETATM    2  N   UNL     1      41.069 -12.940   4.932  1.00  0.00    -0.165 NA
HETATM    3  N   UNL     1      41.395 -13.845   3.994  1.00  0.00    -0.240 N 
HETATM    4  C   UNL     1      42.736 -14.073   3.880  1.00  0.00     0.123 C 
HETATM    5  N   UNL     1      43.204 -15.086   3.122  1.00  0.00    -0.366 N 
HETATM    6  C   UNL     1      42.348 -16.187   2.671  1.00  0.00     0.118 C 
HETATM    7  C   UNL     1      40.909 -16.086   3.228  1.00  0.00     0.066 C 
HETATM    8  C   UNL     1      40.405 -14.640   3.298  1.00  0.00     0.221 C 
HETATM    9  C   UNL     1      43.342 -13.122   4.653  1.00  0.00     0.089 C 
HETATM   10  H   UNL     1      44.206 -15.258   3.041  1.00  0.00     0.161 HD
ENDROOT
BRANCH   1  11
HETATM   11  C   UNL     1      42.400 -11.414   6.356  1.00  0.00     0.276 C 
HETATM   12  N   UNL     1      43.465 -11.662   7.200  1.00  0.00    -0.322 N 
HETATM   13  H   UNL     1      43.982 -12.505   6.959  1.00  0.00     0.169 HD
HETATM   14  O   UNL     1      41.647 -10.447   6.387  1.00  0.00    -0.266 OA
BRANCH  12  15
HETATM   15  C   UNL     1      43.938 -10.879   8.265  1.00  0.00     0.035 A 
HETATM   16  C   UNL     1      43.193 -10.605   9.415  1.00  0.00     0.039 A 
HETATM   17  C   UNL     1      43.725  -9.815  10.450  1.00  0.00    -0.028 A 
HETATM   18  C   UNL     1      45.012  -9.280  10.301  1.00  0.00     0.010 A 
HETATM   19  C   UNL     1      45.761  -9.549   9.158  1.00  0.00     0.003 A 
HETATM   20  C   UNL     1      45.229 -10.353   8.149  1.00  0.00     0.029 A 
BRANCH  17  21
HETATM   21  C   UNL     1      42.905  -9.547  11.693  1.00  0.00     0.147 C 
HETATM   22  C   UNL     1      43.444  -8.378  12.504  1.00  0.00     0.044 C 
BRANCH  21  23
HETATM   23  O   UNL     1      42.880 -10.710  12.521  1.00  0.00    -0.391 OA
HETATM   24  H   UNL     1      43.213 -10.439  13.393  1.00  0.00     0.210 HD
ENDBRANCH  21  23
ENDBRANCH  17  21
ENDBRANCH  12  15
ENDBRANCH   1  11
BRANCH   8  25
HETATM   25  C   UNL     1      40.121 -14.049   1.935  1.00  0.00     0.409 C 
HETATM   26  F   UNL     1      41.174 -13.356   1.447  1.00  0.00    -0.169 F 
HETATM   27  F   UNL     1      39.762 -14.961   1.009  1.00  0.00    -0.169 F 
HETATM   28  F   UNL     1      39.090 -13.168   2.028  1.00  0.00    -0.169 F 
ENDBRANCH   8  25
BRANCH   6  29
HETATM   29  C   UNL     1      42.970 -17.513   3.088  1.00  0.00    -0.035 A 
HETATM   30  C   UNL     1      43.503 -17.688   4.382  1.00  0.00     0.012 A 
HETATM   31  C   UNL     1      44.043 -18.913   4.772  1.00  0.00     0.043 A 
HETATM   32  C   UNL     1      44.047 -19.972   3.875  1.00  0.00     0.116 A 
HETATM   33  F   UNL     1      44.560 -21.152   4.248  1.00  0.00    -0.206 F 
HETATM   34  C   UNL     1      43.523 -19.827   2.594  1.00  0.00     0.043 A 
HETATM   35  C   UNL     1      42.986 -18.600   2.199  1.00  0.00     0.012 A 
ENDBRANCH   6  29
TORSDOF 6
ENDMDL
MODEL 2
REMARK VINA RESULT:      -9.3      5.730      9.276
REMARK  6 active torsions:
REMARK  status: ('A' for Active; 'I' for Inactive)
REMARK    1  A    between atoms: C_2  and  O_3 
REMARK    2  A    between atoms: C_2  and  C_4 
REMARK    3  A    between atoms: C_6  and  N_7 
REMARK       I    between atoms: N_7  and  C_8 
REMARK    4  A    between atoms: C_8  and  C_9 
REMARK    5  A    between atoms: C_14  and  C_15 
REMARK    6  A    between atoms: C_23  and  C_24 
ROOT
HETATM    1  C   UNL     1      40.533 -14.280   1.189  1.00  0.00     0.148 C 
HETATM    2  N   UNL     1      40.619 -14.779  -0.069  1.00  0.00    -0.165 NA
HETATM    3  N   UNL     1      40.155 -13.771  -0.827  1.00  0.00    -0.240 N 
HETATM    4  C   UNL     1      39.932 -12.613  -0.140  1.00  0.00     0.123 C 
HETATM    5  N   UNL     1      39.650 -11.466  -0.790  1.00  0.00    -0.366 N 
HETATM    6  C   UNL     1      39.901 -11.296  -2.224  1.00  0.00     0.118 C 
HETATM    7  C   UNL     1      40.586 -12.530  -2.856  1.00  0.00     0.066 C 
HETATM    8  C   UNL     1      40.076 -13.851  -2.271  1.00  0.00     0.221 C 
HETATM    9  C   UNL     1      40.073 -12.932   1.183  1.00  0.00     0.089 C 
HETATM   10  H   UNL     1      39.487 -10.600  -0.275  1.00  0.00     0.161 HD
ENDROOT
BRANCH   1  11
HETATM   11  C   UNL     1      40.945 -15.063   2.369  1.00  0.00     0.276 C 
HETATM   12  N   UNL     1      42.093 -15.790   2.120  1.00  0.00    -0.322 N 
HETATM   13  H   UNL     1      42.459 -15.655   1.180  1.00  0.00     0.169 HD
HETATM   14  O   UNL     1      40.329 -15.000   3.426  1.00  0.00    -0.266 OA
BRANCH  12  15
HETATM   15  C   UNL     1      42.819 -16.607   3.002  1.00  0.00     0.035 A 
HETATM   16  C   UNL     1      43.118 -17.947   2.748  1.00  0.00     0.039 A 
HETATM   17  C   UNL     1      43.853 -18.712   3.672  1.00  0.00    -0.028 A 
HETATM   18  C   UNL     1      44.262 -18.114   4.872  1.00  0.00     0.010 A 
HETATM   19  C   UNL     1      43.969 -16.778   5.133  1.00  0.00     0.003 A 
HETATM   20  C   UNL     1      43.258 -16.025   4.196  1.00  0.00     0.029 A 
BRANCH  17  21
HETATM   21  C   UNL     1      44.178 -20.157   3.366  1.00  0.00     0.147 C 
HETATM   22  C   UNL     1      43.658 -20.594   2.005  1.00  0.00     0.044 C 
BRANCH  21  23
HETATM   23  O   UNL     1      43.619 -21.006   4.368  1.00  0.00    -0.391 OA
HETATM   24  H   UNL     1      43.371 -21.835   3.925  1.00  0.00     0.210 HD
ENDBRANCH  21  23
ENDBRANCH  17  21
ENDBRANCH  12  15
ENDBRANCH   1  11
BRANCH   8  25
HETATM   25  C   UNL     1      38.664 -14.179  -2.701  1.00  0.00     0.409 C 
HETATM   26  F   UNL     1      37.739 -13.667  -1.859  1.00  0.00    -0.169 F 
HETATM   27  F   UNL     1      38.363 -13.763  -3.948  1.00  0.00    -0.169 F 
HETATM   28  F   UNL     1      38.489 -15.527  -2.692  1.00  0.00    -0.169 F 
ENDBRANCH   8  25
BRANCH   6  29
HETATM   29  C   UNL     1      40.763 -10.059  -2.442  1.00  0.00    -0.035 A 
HETATM   30  C   UNL     1      41.654  -9.613  -1.445  1.00  0.00     0.012 A 
HETATM   31  C   UNL     1      42.465  -8.499  -1.659  1.00  0.00     0.043 A 
HETATM   32  C   UNL     1      42.396  -7.830  -2.873  1.00  0.00     0.116 A 
HETATM   33  F   UNL     1      43.178  -6.763  -3.085  1.00  0.00    -0.206 F 
HETATM   34  C   UNL     1      41.529  -8.252  -3.875  1.00  0.00     0.043 A 
HETATM   35  C   UNL     1      40.712  -9.365  -3.662  1.00  0.00     0.012 A 
ENDBRANCH   6  29
TORSDOF 6
ENDMDL
MODEL 3
REMARK VINA RESULT:      -9.2      2.244      4.864
REMARK  6 active torsions:
REMARK  status: ('A' for Active; 'I' for Inactive)
REMARK    1  A    between atoms: C_2  and  O_3 
REMARK    2  A    between atoms: C_2  and  C_4 
REMARK    3  A    between atoms: C_6  and  N_7 
REMARK       I    between atoms: N_7  and  C_8 
REMARK    4  A    between atoms: C_8  and  C_9 
REMARK    5  A    between atoms: C_14  and  C_15 
REMARK    6  A    between atoms: C_23  and  C_24 
ROOT
HETATM    1  C   UNL     1      42.806 -14.177   5.543  1.00  0.00     0.148 C 
HETATM    2  N   UNL     1      43.598 -14.809   4.642  1.00  0.00    -0.165 NA
HETATM    3  N   UNL     1      42.717 -15.283   3.745  1.00  0.00    -0.240 N 
HETATM    4  C   UNL     1      41.436 -14.853   3.940  1.00  0.00     0.123 C 
HETATM    5  N   UNL     1      40.480 -15.086   3.018  1.00  0.00    -0.366 N 
HETATM    6  C   UNL     1      40.798 -15.480   1.642  1.00  0.00     0.118 C 
HETATM    7  C   UNL     1      42.319 -15.512   1.371  1.00  0.00     0.066 C 
HETATM    8  C   UNL     1      43.121 -16.029   2.571  1.00  0.00     0.221 C 
HETATM    9  C   UNL     1      41.438 -14.215   5.150  1.00  0.00     0.089 C 
HETATM   10  H   UNL     1      39.524 -14.760   3.163  1.00  0.00     0.161 HD
ENDROOT
BRANCH   1  11
HETATM   11  C   UNL     1      43.362 -13.497   6.727  1.00  0.00     0.276 C 
HETATM   12  N   UNL     1      43.726 -12.195   6.441  1.00  0.00    -0.322 N 
HETATM   13  H   UNL     1      43.541 -11.929   5.477  1.00  0.00     0.169 HD
HETATM   14  O   UNL     1      43.426 -14.056   7.816  1.00  0.00    -0.266 OA
BRANCH  12  15
HETATM   15  C   UNL     1      44.237 -11.219   7.311  1.00  0.00     0.035 A 
HETATM   16  C   UNL     1      43.475 -10.584   8.296  1.00  0.00     0.039 A 
HETATM   17  C   UNL     1      44.047  -9.615   9.139  1.00  0.00    -0.028 A 
HETATM   18  C   UNL     1      45.395  -9.272   8.962  1.00  0.00     0.010 A 
HETATM   19  C   UNL     1      46.162  -9.901   7.983  1.00  0.00     0.003 A 
HETATM   20  C   UNL     1      45.586 -10.877   7.168  1.00  0.00     0.029 A 
BRANCH  17  21
HETATM   21  C   UNL     1      43.206  -8.954  10.209  1.00  0.00     0.147 C 
HETATM   22  C   UNL     1      43.882  -8.969  11.571  1.00  0.00     0.044 C 
BRANCH  21  23
HETATM   23  O   UNL     1      41.943  -9.611  10.312  1.00  0.00    -0.391 OA
HETATM   24  H   UNL     1      42.042 -10.475   9.876  1.00  0.00     0.210 HD
ENDBRANCH  21  23
ENDBRANCH  17  21
ENDBRANCH  12  15
ENDBRANCH   1  11
BRANCH   8  25
HETATM   25  C   UNL     1      42.940 -17.512   2.805  1.00  0.00     0.409 C 
HETATM   26  F   UNL     1      42.670 -17.798   4.097  1.00  0.00    -0.169 F 
HETATM   27  F   UNL     1      41.974 -18.070   2.047  1.00  0.00    -0.169 F 
HETATM   28  F   UNL     1      44.093 -18.163   2.498  1.00  0.00    -0.169 F 
ENDBRANCH   8  25
BRANCH   6  29
HETATM   29  C   UNL     1      40.121 -14.520   0.673  1.00  0.00    -0.035 A 
HETATM   30  C   UNL     1      39.735 -14.944  -0.616  1.00  0.00     0.012 A 
HETATM   31  C   UNL     1      39.087 -14.072  -1.489  1.00  0.00     0.043 A 
HETATM   32  C   UNL     1      38.813 -12.775  -1.079  1.00  0.00     0.116 A 
HETATM   33  F   UNL     1      38.185 -11.936  -1.914  1.00  0.00    -0.206 F 
HETATM   34  C   UNL     1      39.179 -12.333   0.188  1.00  0.00     0.043 A 
HETATM   35  C   UNL     1      39.832 -13.203   1.064  1.00  0.00     0.012 A 
ENDBRANCH   6  29
TORSDOF 6
ENDMDL
MODEL 4
REMARK VINA RESULT:      -9.1      1.490      2.133
REMARK  6 active torsions:
REMARK  status: ('A' for Active; 'I' for Inactive)
REMARK    1  A    between atoms: C_2  and  O_3 
REMARK    2  A    between atoms: C_2  and  C_4 
REMARK    3  A    between atoms: C_6  and  N_7 
REMARK       I    between atoms: N_7  and  C_8 
REMARK    4  A    between atoms: C_8  and  C_9 
REMARK    5  A    between atoms: C_14  and  C_15 
REMARK    6  A    between atoms: C_23  and  C_24 
ROOT
HETATM    1  C   UNL     1      42.020 -12.139   3.842  1.00  0.00     0.148 C 
HETATM    2  N   UNL     1      40.863 -12.761   3.505  1.00  0.00    -0.165 NA
HETATM    3  N   UNL     1      41.287 -13.828   2.806  1.00  0.00    -0.240 N 
HETATM    4  C   UNL     1      42.640 -14.002   2.819  1.00  0.00     0.123 C 
HETATM    5  N   UNL     1      43.198 -15.127   2.327  1.00  0.00    -0.366 N 
HETATM    6  C   UNL     1      42.420 -16.345   2.082  1.00  0.00     0.118 C 
HETATM    7  C   UNL     1      40.945 -16.204   2.523  1.00  0.00     0.066 C 
HETATM    8  C   UNL     1      40.378 -14.808   2.248  1.00  0.00     0.221 C 
HETATM    9  C   UNL     1      43.155 -12.874   3.397  1.00  0.00     0.089 C 
HETATM   10  H   UNL     1      44.210 -15.257   2.341  1.00  0.00     0.161 HD
ENDROOT
BRANCH   1  11
HETATM   11  C   UNL     1      42.034 -10.893   4.631  1.00  0.00     0.276 C 
HETATM   12  N   UNL     1      41.919 -11.147   5.984  1.00  0.00    -0.322 N 
HETATM   13  H   UNL     1      41.856 -12.139   6.203  1.00  0.00     0.169 HD
HETATM   14  O   UNL     1      42.177  -9.799   4.098  1.00  0.00    -0.266 OA
BRANCH  12  15
HETATM   15  C   UNL     1      41.949 -10.235   7.051  1.00  0.00     0.035 A 
HETATM   16  C   UNL     1      43.070 -10.018   7.855  1.00  0.00     0.039 A 
HETATM   17  C   UNL     1      43.036  -9.087   8.908  1.00  0.00    -0.028 A 
HETATM   18  C   UNL     1      41.846  -8.391   9.159  1.00  0.00     0.010 A 
HETATM   19  C   UNL     1      40.723  -8.599   8.361  1.00  0.00     0.003 A 
HETATM   20  C   UNL     1      40.778  -9.512   7.306  1.00  0.00     0.029 A 
BRANCH  17  21
HETATM   21  C   UNL     1      44.270  -8.858   9.754  1.00  0.00     0.147 C 
HETATM   22  C   UNL     1      45.441  -9.726   9.319  1.00  0.00     0.044 C 
BRANCH  21  23
HETATM   23  O   UNL     1      43.978  -9.130  11.125  1.00  0.00    -0.391 OA
HETATM   24  H   UNL     1      44.619  -9.800  11.419  1.00  0.00     0.210 HD
ENDBRANCH  21  23
ENDBRANCH  17  21
ENDBRANCH  12  15
ENDBRANCH   1  11
BRANCH   8  25
HETATM   25  C   UNL     1      40.160 -14.541   0.775  1.00  0.00     0.409 C 
HETATM   26  F   UNL     1      39.287 -13.532   0.561  1.00  0.00    -0.169 F 
HETATM   27  F   UNL     1      41.291 -14.260   0.099  1.00  0.00    -0.169 F 
HETATM   28  F   UNL     1      39.625 -15.644   0.189  1.00  0.00    -0.169 F 
ENDBRANCH   8  25
BRANCH   6  29
HETATM   29  C   UNL     1      43.068 -17.513   2.812  1.00  0.00    -0.035 A 
HETATM   30  C   UNL     1      43.565 -17.363   4.123  1.00  0.00     0.012 A 
HETATM   31  C   UNL     1      44.129 -18.442   4.801  1.00  0.00     0.043 A 
HETATM   32  C   UNL     1      44.193 -19.680   4.178  1.00  0.00     0.116 A 
HETATM   33  F   UNL     1      44.730 -20.721   4.828  1.00  0.00    -0.206 F 
HETATM   34  C   UNL     1      43.707 -19.857   2.887  1.00  0.00     0.043 A 
HETATM   35  C   UNL     1      43.145 -18.776   2.203  1.00  0.00     0.012 A 
ENDBRANCH   6  29
TORSDOF 6
ENDMDL
MODEL 5
REMARK VINA RESULT:      -9.1      1.538      1.872
REMARK  6 active torsions:
REMARK  status: ('A' for Active; 'I' for Inactive)
REMARK    1  A    between atoms: C_2  and  O_3 
REMARK    2  A    between atoms: C_2  and  C_4 
REMARK    3  A    between atoms: C_6  and  N_7 
REMARK       I    between atoms: N_7  and  C_8 
REMARK    4  A    between atoms: C_8  and  C_9 
REMARK    5  A    between atoms: C_14  and  C_15 
REMARK    6  A    between atoms: C_23  and  C_24 
ROOT
HETATM    1  C   UNL     1      43.089 -11.865   6.124  1.00  0.00     0.148 C 
HETATM    2  N   UNL     1      41.796 -12.275   6.131  1.00  0.00    -0.165 NA
HETATM    3  N   UNL     1      41.727 -13.074   5.053  1.00  0.00    -0.240 N 
HETATM    4  C   UNL     1      42.932 -13.318   4.460  1.00  0.00     0.123 C 
HETATM    5  N   UNL     1      43.050 -14.248   3.490  1.00  0.00    -0.366 N 
HETATM    6  C   UNL     1      42.027 -15.271   3.257  1.00  0.00     0.118 C 
HETATM    7  C   UNL     1      40.874 -15.202   4.284  1.00  0.00     0.066 C 
HETATM    8  C   UNL     1      40.512 -13.763   4.668  1.00  0.00     0.221 C 
HETATM    9  C   UNL     1      43.822 -12.475   5.066  1.00  0.00     0.089 C 
HETATM   10  H   UNL     1      43.952 -14.432   3.051  1.00  0.00     0.161 HD
ENDROOT
BRANCH   1  11
HETATM   11  C   UNL     1      43.623 -10.952   7.151  1.00  0.00     0.276 C 
HETATM   12  N   UNL     1      42.628 -10.166   7.700  1.00  0.00    -0.322 N 
HETATM   13  H   UNL     1      41.706 -10.357   7.313  1.00  0.00     0.169 HD
HETATM   14  O   UNL     1      44.807 -10.966   7.467  1.00  0.00    -0.266 OA
BRANCH  12  15
HETATM   15  C   UNL     1      42.729  -9.223   8.735  1.00  0.00     0.035 A 
HETATM   16  C   UNL     1      42.454  -9.511  10.074  1.00  0.00     0.039 A 
HETATM   17  C   UNL     1      42.577  -8.521  11.066  1.00  0.00    -0.028 A 
HETATM   18  C   UNL     1      42.958  -7.226  10.688  1.00  0.00     0.010 A 
HETATM   19  C   UNL     1      43.236  -6.932   9.355  1.00  0.00     0.003 A 
HETATM   20  C   UNL     1      43.130  -7.930   8.385  1.00  0.00     0.029 A 
BRANCH  17  21
HETATM   21  C   UNL     1      42.289  -8.862  12.512  1.00  0.00     0.147 C 
HETATM   22  C   UNL     1      42.953  -7.894  13.479  1.00  0.00     0.044 C 
BRANCH  21  23
HETATM   23  O   UNL     1      42.740 -10.185  12.800  1.00  0.00    -0.391 OA
HETATM   24  H   UNL     1      43.662 -10.238  12.496  1.00  0.00     0.210 HD
ENDBRANCH  21  23
ENDBRANCH  17  21
ENDBRANCH  12  15
ENDBRANCH   1  11
BRANCH   8  25
HETATM   25  C   UNL     1      39.816 -13.014   3.553  1.00  0.00     0.409 C 
HETATM   26  F   UNL     1      38.886 -12.151   4.018  1.00  0.00    -0.169 F 
HETATM   27  F   UNL     1      40.655 -12.326   2.752  1.00  0.00    -0.169 F 
HETATM   28  F   UNL     1      39.159 -13.896   2.756  1.00  0.00    -0.169 F 
ENDBRANCH   8  25
BRANCH   6  29
HETATM   29  C   UNL     1      42.673 -16.649   3.298  1.00  0.00    -0.035 A 
HETATM   30  C   UNL     1      43.413 -17.069   4.423  1.00  0.00     0.012 A 
HETATM   31  C   UNL     1      43.977 -18.343   4.471  1.00  0.00     0.043 A 
HETATM   32  C   UNL     1      43.798 -19.208   3.402  1.00  0.00     0.116 A 
HETATM   33  F   UNL     1      44.334 -20.435   3.447  1.00  0.00    -0.206 F 
HETATM   34  C   UNL     1      43.069 -18.821   2.282  1.00  0.00     0.043 A 
HETATM   35  C   UNL     1      42.507 -17.543   2.228  1.00  0.00     0.012 A 
ENDBRANCH   6  29
TORSDOF 6
ENDMDL
MODEL 6
REMARK VINA RESULT:      -9.1      4.362     10.036
REMARK  6 active torsions:
REMARK  status: ('A' for Active; 'I' for Inactive)
REMARK    1  A    between atoms: C_2  and  O_3 
REMARK    2  A    between atoms: C_2  and  C_4 
REMARK    3  A    between atoms: C_6  and  N_7 
REMARK       I    between atoms: N_7  and  C_8 
REMARK    4  A    between atoms: C_8  and  C_9 
REMARK    5  A    between atoms: C_14  and  C_15 
REMARK    6  A    between atoms: C_23  and  C_24 
ROOT
HETATM    1  C   UNL     1      42.774 -11.546   6.600  1.00  0.00     0.148 C 
HETATM    2  N   UNL     1      43.981 -11.783   7.171  1.00  0.00    -0.165 NA
HETATM    3  N   UNL     1      44.117 -10.758   8.029  1.00  0.00    -0.240 N 
HETATM    4  C   UNL     1      43.002  -9.980   8.149  1.00  0.00     0.123 C 
HETATM    5  N   UNL     1      42.919  -9.034   9.107  1.00  0.00    -0.366 N 
HETATM    6  C   UNL     1      43.819  -9.008  10.263  1.00  0.00     0.118 C 
HETATM    7  C   UNL     1      44.789 -10.212  10.286  1.00  0.00     0.066 C 
HETATM    8  C   UNL     1      45.274 -10.605   8.886  1.00  0.00     0.221 C 
HETATM    9  C   UNL     1      42.147 -10.400   7.168  1.00  0.00     0.089 C 
HETATM   10  H   UNL     1      42.083  -8.455   9.198  1.00  0.00     0.161 HD
ENDROOT
BRANCH   1  11
HETATM   11  C   UNL     1      42.208 -12.439   5.572  1.00  0.00     0.276 C 
HETATM   12  N   UNL     1      43.195 -13.145   4.913  1.00  0.00    -0.322 N 
HETATM   13  H   UNL     1      44.132 -12.938   5.252  1.00  0.00     0.169 HD
HETATM   14  O   UNL     1      40.998 -12.533   5.402  1.00  0.00    -0.266 OA
BRANCH  12  15
HETATM   15  C   UNL     1      43.053 -14.125   3.918  1.00  0.00     0.035 A 
HETATM   16  C   UNL     1      43.124 -15.497   4.167  1.00  0.00     0.039 A 
HETATM   17  C   UNL     1      42.971 -16.430   3.125  1.00  0.00    -0.028 A 
HETATM   18  C   UNL     1      42.769 -15.961   1.820  1.00  0.00     0.010 A 
HETATM   19  C   UNL     1      42.696 -14.594   1.563  1.00  0.00     0.003 A 
HETATM   20  C   UNL     1      42.828 -13.681   2.611  1.00  0.00     0.029 A 
BRANCH  17  21
HETATM   21  C   UNL     1      43.035 -17.912   3.423  1.00  0.00     0.147 C 
HETATM   22  C   UNL     1      44.297 -18.298   4.180  1.00  0.00     0.044 C 
BRANCH  21  23
HETATM   23  O   UNL     1      42.981 -18.657   2.206  1.00  0.00    -0.391 OA
HETATM   24  H   UNL     1      42.610 -19.528   2.429  1.00  0.00     0.210 HD
ENDBRANCH  21  23
ENDBRANCH  17  21
ENDBRANCH  12  15
ENDBRANCH   1  11
BRANCH   8  25
HETATM   25  C   UNL     1      46.236  -9.600   8.293  1.00  0.00     0.409 C 
HETATM   26  F   UNL     1      47.239 -10.192   7.609  1.00  0.00    -0.169 F 
HETATM   27  F   UNL     1      45.651  -8.702   7.475  1.00  0.00    -0.169 F 
HETATM   28  F   UNL     1      46.819  -8.886   9.292  1.00  0.00    -0.169 F 
ENDBRANCH   8  25
BRANCH   6  29
HETATM   29  C   UNL     1      42.995  -8.984  11.543  1.00  0.00    -0.035 A 
HETATM   30  C   UNL     1      41.871  -9.822  11.697  1.00  0.00     0.012 A 
HETATM   31  C   UNL     1      41.137  -9.821  12.883  1.00  0.00     0.043 A 
HETATM   32  C   UNL     1      41.526  -8.991  13.924  1.00  0.00     0.116 A 
HETATM   33  F   UNL     1      40.827  -8.992  15.067  1.00  0.00    -0.206 F 
HETATM   34  C   UNL     1      42.634  -8.158  13.800  1.00  0.00     0.043 A 
HETATM   35  C   UNL     1      43.368  -8.153  12.612  1.00  0.00     0.012 A 
ENDBRANCH   6  29
TORSDOF 6
ENDMDL
MODEL 7
REMARK VINA RESULT:      -8.8      5.984      9.820
REMARK  6 active torsions:
REMARK  status: ('A' for Active; 'I' for Inactive)
REMARK    1  A    between atoms: C_2  and  O_3 
REMARK    2  A    between atoms: C_2  and  C_4 
REMARK    3  A    between atoms: C_6  and  N_7 
REMARK       I    between atoms: N_7  and  C_8 
REMARK    4  A    between atoms: C_8  and  C_9 
REMARK    5  A    between atoms: C_14  and  C_15 
REMARK    6  A    between atoms: C_23  and  C_24 
ROOT
HETATM    1  C   UNL     1      40.119 -14.277   0.333  1.00  0.00     0.148 C 
HETATM    2  N   UNL     1      40.377 -12.956   0.505  1.00  0.00    -0.165 NA
HETATM    3  N   UNL     1      39.922 -12.409  -0.635  1.00  0.00    -0.240 N 
HETATM    4  C   UNL     1      39.250 -13.279  -1.443  1.00  0.00     0.123 C 
HETATM    5  N   UNL     1      38.573 -12.839  -2.523  1.00  0.00    -0.366 N 
HETATM    6  C   UNL     1      38.220 -11.428  -2.705  1.00  0.00     0.118 C 
HETATM    7  C   UNL     1      38.637 -10.553  -1.500  1.00  0.00     0.066 C 
HETATM    8  C   UNL     1      39.976 -10.985  -0.894  1.00  0.00     0.221 C 
HETATM    9  C   UNL     1      39.442 -14.518  -0.896  1.00  0.00     0.089 C 
HETATM   10  H   UNL     1      38.068 -13.491  -3.124  1.00  0.00     0.161 HD
ENDROOT
BRANCH   1  11
HETATM   11  C   UNL     1      40.462 -15.278   1.360  1.00  0.00     0.276 C 
HETATM   12  N   UNL     1      41.826 -15.345   1.569  1.00  0.00    -0.322 N 
HETATM   13  H   UNL     1      42.354 -14.692   0.992  1.00  0.00     0.169 HD
HETATM   14  O   UNL     1      39.595 -15.910   1.952  1.00  0.00    -0.266 OA
BRANCH  12  15
HETATM   15  C   UNL     1      42.531 -16.129   2.495  1.00  0.00     0.035 A 
HETATM   16  C   UNL     1      42.920 -17.449   2.256  1.00  0.00     0.039 A 
HETATM   17  C   UNL     1      43.628 -18.182   3.226  1.00  0.00    -0.028 A 
HETATM   18  C   UNL     1      43.919 -17.574   4.455  1.00  0.00     0.010 A 
HETATM   19  C   UNL     1      43.536 -16.258   4.701  1.00  0.00     0.003 A 
HETATM   20  C   UNL     1      42.853 -15.536   3.721  1.00  0.00     0.029 A 
BRANCH  17  21
HETATM   21  C   UNL     1      44.052 -19.605   2.936  1.00  0.00     0.147 C 
HETATM   22  C   UNL     1      43.229 -20.242   1.827  1.00  0.00     0.044 C 
BRANCH  21  23
HETATM   23  O   UNL     1      43.931 -20.400   4.115  1.00  0.00    -0.391 OA
HETATM   24  H   UNL     1      43.798 -21.317   3.821  1.00  0.00     0.210 HD
ENDBRANCH  21  23
ENDBRANCH  17  21
ENDBRANCH  12  15
ENDBRANCH   1  11
BRANCH   8  25
HETATM   25  C   UNL     1      41.157 -10.658  -1.780  1.00  0.00     0.409 C 
HETATM   26  F   UNL     1      42.161 -10.064  -1.099  1.00  0.00    -0.169 F 
HETATM   27  F   UNL     1      41.668 -11.727  -2.423  1.00  0.00    -0.169 F 
HETATM   28  F   UNL     1      40.771  -9.779  -2.743  1.00  0.00    -0.169 F 
ENDBRANCH   8  25
BRANCH   6  29
HETATM   29  C   UNL     1      36.720 -11.309  -2.935  1.00  0.00    -0.035 A 
HETATM   30  C   UNL     1      36.011 -10.164  -2.514  1.00  0.00     0.012 A 
HETATM   31  C   UNL     1      34.643 -10.043  -2.755  1.00  0.00     0.043 A 
HETATM   32  C   UNL     1      33.977 -11.060  -3.423  1.00  0.00     0.116 A 
HETATM   33  F   UNL     1      32.663 -10.945  -3.661  1.00  0.00    -0.206 F 
HETATM   34  C   UNL     1      34.653 -12.198  -3.853  1.00  0.00     0.043 A 
HETATM   35  C   UNL     1      36.022 -12.324  -3.610  1.00  0.00     0.012 A 
ENDBRANCH   6  29
TORSDOF 6
ENDMDL
MODEL 8
REMARK VINA RESULT:      -8.8      5.239      8.767
REMARK  6 active torsions:
REMARK  status: ('A' for Active; 'I' for Inactive)
REMARK    1  A    between atoms: C_2  and  O_3 
REMARK    2  A    between atoms: C_2  and  C_4 
REMARK    3  A    between atoms: C_6  and  N_7 
REMARK       I    between atoms: N_7  and  C_8 
REMARK    4  A    between atoms: C_8  and  C_9 
REMARK    5  A    between atoms: C_14  and  C_15 
REMARK    6  A    between atoms: C_23  and  C_24 
ROOT
HETATM    1  C   UNL     1      40.502 -13.970   1.113  1.00  0.00     0.148 C 
HETATM    2  N   UNL     1      40.583 -14.440  -0.156  1.00  0.00    -0.165 NA
HETATM    3  N   UNL     1      40.219 -13.378  -0.895  1.00  0.00    -0.240 N 
HETATM    4  C   UNL     1      40.068 -12.226  -0.180  1.00  0.00     0.123 C 
HETATM    5  N   UNL     1      39.894 -11.042  -0.803  1.00  0.00    -0.366 N 
HETATM    6  C   UNL     1      40.197 -10.853  -2.225  1.00  0.00     0.118 C 
HETATM    7  C   UNL     1      40.801 -12.119  -2.875  1.00  0.00     0.066 C 
HETATM    8  C   UNL     1      40.174 -13.412  -2.343  1.00  0.00     0.221 C 
HETATM    9  C   UNL     1      40.147 -12.591   1.135  1.00  0.00     0.089 C 
HETATM   10  H   UNL     1      39.784 -10.181  -0.267  1.00  0.00     0.161 HD
ENDROOT
BRANCH   1  11
HETATM   11  C   UNL     1      40.819 -14.816   2.279  1.00  0.00     0.276 C 
HETATM   12  N   UNL     1      41.903 -15.635   2.032  1.00  0.00    -0.322 N 
HETATM   13  H   UNL     1      42.299 -15.510   1.103  1.00  0.00     0.169 HD
HETATM   14  O   UNL     1      40.189 -14.724   3.327  1.00  0.00    -0.266 OA
BRANCH  12  15
HETATM   15  C   UNL     1      42.537 -16.534   2.906  1.00  0.00     0.035 A 
HETATM   16  C   UNL     1      42.526 -16.400   4.296  1.00  0.00     0.039 A 
HETATM   17  C   UNL     1      43.178 -17.337   5.117  1.00  0.00    -0.028 A 
HETATM   18  C   UNL     1      43.866 -18.402   4.518  1.00  0.00     0.010 A 
HETATM   19  C   UNL     1      43.880 -18.543   3.132  1.00  0.00     0.003 A 
HETATM   20  C   UNL     1      43.210 -17.617   2.331  1.00  0.00     0.029 A 
BRANCH  17  21
HETATM   21  C   UNL     1      43.138 -17.180   6.622  1.00  0.00     0.147 C 
HETATM   22  C   UNL     1      42.116 -16.146   7.070  1.00  0.00     0.044 C 
BRANCH  21  23
HETATM   23  O   UNL     1      44.425 -16.798   7.107  1.00  0.00    -0.391 OA
HETATM   24  H   UNL     1      45.058 -17.451   6.762  1.00  0.00     0.210 HD
ENDBRANCH  21  23
ENDBRANCH  17  21
ENDBRANCH  12  15
ENDBRANCH   1  11
BRANCH   8  25
HETATM   25  C   UNL     1      38.753 -13.616  -2.818  1.00  0.00     0.409 C 
HETATM   26  F   UNL     1      38.650 -14.634  -3.701  1.00  0.00    -0.169 F 
HETATM   27  F   UNL     1      37.872 -13.841  -1.823  1.00  0.00    -0.169 F 
HETATM   28  F   UNL     1      38.327 -12.499  -3.465  1.00  0.00    -0.169 F 
ENDBRANCH   8  25
BRANCH   6  29
HETATM   29  C   UNL     1      41.157  -9.682  -2.384  1.00  0.00    -0.035 A 
HETATM   30  C   UNL     1      41.158  -8.900  -3.558  1.00  0.00     0.012 A 
HETATM   31  C   UNL     1      42.016  -7.809  -3.688  1.00  0.00     0.043 A 
HETATM   32  C   UNL     1      42.872  -7.488  -2.645  1.00  0.00     0.116 A 
HETATM   33  F   UNL     1      43.694  -6.437  -2.764  1.00  0.00    -0.206 F 
HETATM   34  C   UNL     1      42.889  -8.240  -1.475  1.00  0.00     0.043 A 
HETATM   35  C   UNL     1      42.034  -9.336  -1.342  1.00  0.00     0.012 A 
ENDBRANCH   6  29
TORSDOF 6
ENDMDL
MODEL 9
REMARK VINA RESULT:      -8.6      4.165      9.524
REMARK  6 active torsions:
REMARK  status: ('A' for Active; 'I' for Inactive)
REMARK    1  A    between atoms: C_2  and  O_3 
REMARK    2  A    between atoms: C_2  and  C_4 
REMARK    3  A    between atoms: C_6  and  N_7 
REMARK       I    between atoms: N_7  and  C_8 
REMARK    4  A    between atoms: C_8  and  C_9 
REMARK    5  A    between atoms: C_14  and  C_15 
REMARK    6  A    between atoms: C_23  and  C_24 
ROOT
HETATM    1  C   UNL     1      41.069 -13.333   3.246  1.00  0.00     0.148 C 
HETATM    2  N   UNL     1      41.021 -14.124   4.347  1.00  0.00    -0.165 NA
HETATM    3  N   UNL     1      42.203 -13.887   4.941  1.00  0.00    -0.240 N 
HETATM    4  C   UNL     1      42.923 -12.879   4.368  1.00  0.00     0.123 C 
HETATM    5  N   UNL     1      44.034 -12.399   4.963  1.00  0.00    -0.366 N 
HETATM    6  C   UNL     1      44.342 -12.656   6.372  1.00  0.00     0.118 C 
HETATM    7  C   UNL     1      43.226 -13.452   7.088  1.00  0.00     0.066 C 
HETATM    8  C   UNL     1      42.591 -14.516   6.186  1.00  0.00     0.221 C 
HETATM    9  C   UNL     1      42.266 -12.563   3.211  1.00  0.00     0.089 C 
HETATM   10  H   UNL     1      44.570 -11.643   4.535  1.00  0.00     0.161 HD
ENDROOT
BRANCH   1  11
HETATM   11  C   UNL     1      39.957 -13.274   2.279  1.00  0.00     0.276 C 
HETATM   12  N   UNL     1      40.408 -13.393   0.978  1.00  0.00    -0.322 N 
HETATM   13  H   UNL     1      41.417 -13.509   0.912  1.00  0.00     0.169 HD
HETATM   14  O   UNL     1      38.792 -13.177   2.647  1.00  0.00    -0.266 OA
BRANCH  12  15
HETATM   15  C   UNL     1      39.657 -13.438  -0.207  1.00  0.00     0.035 A 
HETATM   16  C   UNL     1      38.937 -12.351  -0.709  1.00  0.00     0.039 A 
HETATM   17  C   UNL     1      38.205 -12.460  -1.905  1.00  0.00    -0.028 A 
HETATM   18  C   UNL     1      38.186 -13.689  -2.579  1.00  0.00     0.010 A 
HETATM   19  C   UNL     1      38.903 -14.776  -2.086  1.00  0.00     0.003 A 
HETATM   20  C   UNL     1      39.642 -14.647  -0.909  1.00  0.00     0.029 A 
BRANCH  17  21
HETATM   21  C   UNL     1      37.446 -11.263  -2.437  1.00  0.00     0.147 C 
HETATM   22  C   UNL     1      36.799 -10.447  -1.329  1.00  0.00     0.044 C 
BRANCH  21  23
HETATM   23  O   UNL     1      36.433 -11.693  -3.346  1.00  0.00    -0.391 OA
HETATM   24  H   UNL     1      35.591 -11.339  -3.013  1.00  0.00     0.210 HD
ENDBRANCH  21  23
ENDBRANCH  17  21
ENDBRANCH  12  15
ENDBRANCH   1  11
BRANCH   8  25
HETATM   25  C   UNL     1      43.512 -15.685   5.918  1.00  0.00     0.409 C 
HETATM   26  F   UNL     1      43.001 -16.854   6.364  1.00  0.00    -0.169 F 
HETATM   27  F   UNL     1      43.828 -15.842   4.616  1.00  0.00    -0.169 F 
HETATM   28  F   UNL     1      44.685 -15.500   6.578  1.00  0.00    -0.169 F 
ENDBRANCH   8  25
BRANCH   6  29
HETATM   29  C   UNL     1      44.573 -11.333   7.088  1.00  0.00    -0.035 A 
HETATM   30  C   UNL     1      45.878 -10.872   7.357  1.00  0.00     0.012 A 
HETATM   31  C   UNL     1      46.087  -9.644   7.984  1.00  0.00     0.043 A 
HETATM   32  C   UNL     1      44.994  -8.867   8.340  1.00  0.00     0.116 A 
HETATM   33  F   UNL     1      45.191  -7.684   8.938  1.00  0.00    -0.206 F 
HETATM   34  C   UNL     1      43.697  -9.296   8.082  1.00  0.00     0.043 A 
HETATM   35  C   UNL     1      43.484 -10.527   7.458  1.00  0.00     0.012 A 
ENDBRANCH   6  29
TORSDOF 6
ENDMDL
MODEL 10
REMARK VINA RESULT:      -8.5      2.368      4.642
REMARK  6 active torsions:
REMARK  status: ('A' for Active; 'I' for Inactive)
REMARK    1  A    between atoms: C_2  and  O_3 
REMARK    2  A    between atoms: C_2  and  C_4 
REMARK    3  A    between atoms: C_6  and  N_7 
REMARK       I    between atoms: N_7  and  C_8 
REMARK    4  A    between atoms: C_8  and  C_9 
REMARK    5  A    between atoms: C_14  and  C_15 
REMARK    6  A    between atoms: C_23  and  C_24 
ROOT
HETATM    1  C   UNL     1      42.864 -12.643   6.322  1.00  0.00     0.148 C 
HETATM    2  N   UNL     1      43.574 -13.634   5.729  1.00  0.00    -0.165 NA
HETATM    3  N   UNL     1      42.644 -14.281   5.006  1.00  0.00    -0.240 N 
HETATM    4  C   UNL     1      41.427 -13.664   4.982  1.00  0.00     0.123 C 
HETATM    5  N   UNL     1      40.453 -14.086   4.150  1.00  0.00    -0.366 N 
HETATM    6  C   UNL     1      40.725 -14.964   3.008  1.00  0.00     0.118 C 
HETATM    7  C   UNL     1      42.232 -15.264   2.836  1.00  0.00     0.066 C 
HETATM    8  C   UNL     1      42.957 -15.427   4.177  1.00  0.00     0.221 C 
HETATM    9  C   UNL     1      41.504 -12.654   5.901  1.00  0.00     0.089 C 
HETATM   10  H   UNL     1      39.545 -13.622   4.131  1.00  0.00     0.161 HD
ENDROOT
BRANCH   1  11
HETATM   11  C   UNL     1      43.496 -11.666   7.229  1.00  0.00     0.276 C 
HETATM   12  N   UNL     1      42.627 -10.645   7.561  1.00  0.00    -0.322 N 
HETATM   13  H   UNL     1      41.707 -10.745   7.136  1.00  0.00     0.169 HD
HETATM   14  O   UNL     1      44.640 -11.821   7.639  1.00  0.00    -0.266 OA
BRANCH  12  15
HETATM   15  C   UNL     1      42.838  -9.567   8.435  1.00  0.00     0.035 A 
HETATM   16  C   UNL     1      42.974  -9.707   9.818  1.00  0.00     0.039 A 
HETATM   17  C   UNL     1      43.187  -8.586  10.641  1.00  0.00    -0.028 A 
HETATM   18  C   UNL     1      43.236  -7.314  10.054  1.00  0.00     0.010 A 
HETATM   19  C   UNL     1      43.102  -7.166   8.675  1.00  0.00     0.003 A 
HETATM   20  C   UNL     1      42.913  -8.290   7.869  1.00  0.00     0.029 A 
BRANCH  17  21
HETATM   21  C   UNL     1      43.348  -8.765  12.134  1.00  0.00     0.147 C 
HETATM   22  C   UNL     1      42.631 -10.003  12.651  1.00  0.00     0.044 C 
BRANCH  21  23
HETATM   23  O   UNL     1      42.844  -7.620  12.820  1.00  0.00    -0.391 OA
HETATM   24  H   UNL     1      41.900  -7.552  12.595  1.00  0.00     0.210 HD
ENDBRANCH  21  23
ENDBRANCH  17  21
ENDBRANCH  12  15
ENDBRANCH   1  11
BRANCH   8  25
HETATM   25  C   UNL     1      42.590 -16.707   4.893  1.00  0.00     0.409 C 
HETATM   26  F   UNL     1      43.423 -16.975   5.922  1.00  0.00    -0.169 F 
HETATM   27  F   UNL     1      41.328 -16.725   5.367  1.00  0.00    -0.169 F 
HETATM   28  F   UNL     1      42.692 -17.753   4.031  1.00  0.00    -0.169 F 
ENDBRANCH   8  25
BRANCH   6  29
HETATM   29  C   UNL     1      40.178 -14.324   1.739  1.00  0.00    -0.035 A 
HETATM   30  C   UNL     1      39.690 -13.001   1.747  1.00  0.00     0.012 A 
HETATM   31  C   UNL     1      39.220 -12.406   0.577  1.00  0.00     0.043 A 
HETATM   32  C   UNL     1      39.242 -13.126  -0.609  1.00  0.00     0.116 A 
HETATM   33  F   UNL     1      38.796 -12.556  -1.736  1.00  0.00    -0.206 F 
HETATM   34  C   UNL     1      39.722 -14.431  -0.646  1.00  0.00     0.043 A 
HETATM   35  C   UNL     1      40.190 -15.031   0.526  1.00  0.00     0.012 A 
ENDBRANCH   6  29
TORSDOF 6
ENDMDL
