MODEL 1
REMARK VINA RESULT:      -8.2      0.000      0.000
REMARK  5 active torsions:
REMARK  status: ('A' for Active; 'I' for Inactive)
REMARK    1  A    between atoms: C_8  and  C_9 
REMARK    2  A    between atoms: N_10  and  N_11 
REMARK       I    between atoms: N_11  and  C_12 
REMARK    3  A    between atoms: C_12  and  C_13 
REMARK    4  A    between atoms: C_13  and  O_14 
REMARK    5  A    between atoms: O_14  and  C_15 
ROOT
HETATM    1  N   UNL     1      41.932 -13.690   2.334  1.00  0.00    -0.246 N 
HETATM    2  C   UNL     1      40.737 -13.005   2.512  1.00  0.00     0.261 C 
HETATM    3  O   UNL     1      39.927 -13.174   3.421  1.00  0.00    -0.269 OA
HETATM    4  H   UNL     1      42.588 -13.296   1.660  1.00  0.00     0.192 HD
ENDROOT
BRANCH   1   5
HETATM    5  N   UNL     1      42.498 -14.606   3.189  1.00  0.00    -0.184 NA
HETATM    6  C   UNL     1      42.744 -15.803   2.765  1.00  0.00     0.152 C 
BRANCH   6   7
HETATM    7  C   UNL     1      43.293 -16.788   3.676  1.00  0.00     0.011 A 
HETATM    8  C   UNL     1      43.449 -18.191   3.428  1.00  0.00     0.004 A 
HETATM    9  C   UNL     1      43.150 -19.035   2.337  1.00  0.00     0.014 A 
HETATM   10  C   UNL     1      44.015 -18.758   4.571  1.00  0.00     0.043 A 
HETATM   11  C   UNL     1      43.424 -20.405   2.427  1.00  0.00     0.001 A 
HETATM   12  C   UNL     1      43.992 -20.939   3.581  1.00  0.00     0.002 A 
HETATM   13  C   UNL     1      44.300 -20.125   4.675  1.00  0.00     0.030 A 
HETATM   14  N   UNL     1      44.198 -17.742   5.479  1.00  0.00    -0.364 N 
HETATM   15  H   UNL     1      44.590 -17.862   6.402  1.00  0.00     0.165 HD
HETATM   16  C   UNL     1      43.761 -16.555   4.957  1.00  0.00     0.102 A 
ENDBRANCH   6   7
ENDBRANCH   1   5
BRANCH   2  17
HETATM   17  C   UNL     1      40.444 -12.011   1.389  1.00  0.00     0.280 C 
BRANCH  17  18
HETATM   18  O   UNL     1      41.157 -12.332   0.198  1.00  0.00    -0.341 OA
BRANCH  18  19
HETATM   19  C   UNL     1      40.423 -12.963  -0.775  1.00  0.00     0.086 A 
HETATM   20  C   UNL     1      40.204 -12.270  -1.976  1.00  0.00     0.045 A 
HETATM   21 BR   UNL     1      40.879 -10.513  -2.239  1.00  0.00    -0.048 Br
HETATM   22  C   UNL     1      39.464 -12.850  -3.011  1.00  0.00     0.046 A 
HETATM   23  C   UNL     1      38.952 -14.133  -2.850  1.00  0.00     0.035 A 
HETATM   24 CL   UNL     1      38.034 -14.854  -4.114  1.00  0.00    -0.084 Cl
HETATM   25  C   UNL     1      39.182 -14.844  -1.674  1.00  0.00     0.026 A 
HETATM   26  C   UNL     1      39.921 -14.262  -0.640  1.00  0.00     0.040 A 
ENDBRANCH  18  19
ENDBRANCH  17  18
ENDBRANCH   2  17
TORSDOF 5
ENDMDL
MODEL 2
REMARK VINA RESULT:      -8.1      7.568      9.517
REMARK  5 active torsions:
REMARK  status: ('A' for Active; 'I' for Inactive)
REMARK    1  A    between atoms: C_8  and  C_9 
REMARK    2  A    between atoms: N_10  and  N_11 
REMARK       I    between atoms: N_11  and  C_12 
REMARK    3  A    between atoms: C_12  and  C_13 
REMARK    4  A    between atoms: C_13  and  O_14 
REMARK    5  A    between atoms: O_14  and  C_15 
ROOT
HETATM    1  N   UNL     1      43.307 -12.516   7.196  1.00  0.00    -0.246 N 
HETATM    2  C   UNL     1      44.154 -11.490   7.593  1.00  0.00     0.261 C 
HETATM    3  O   UNL     1      45.380 -11.546   7.679  1.00  0.00    -0.269 OA
HETATM    4  H   UNL     1      42.347 -12.256   6.975  1.00  0.00     0.192 HD
ENDROOT
BRANCH   1   5
HETATM    5  N   UNL     1      43.672 -13.753   6.717  1.00  0.00    -0.184 NA
HETATM    6  C   UNL     1      42.766 -14.661   6.548  1.00  0.00     0.152 C 
BRANCH   6   7
HETATM    7  C   UNL     1      43.151 -15.982   6.091  1.00  0.00     0.011 A 
HETATM    8  C   UNL     1      43.217 -16.432   4.733  1.00  0.00     0.004 A 
HETATM    9  C   UNL     1      42.949 -15.832   3.484  1.00  0.00     0.014 A 
HETATM   10  C   UNL     1      43.631 -17.765   4.753  1.00  0.00     0.043 A 
HETATM   11  C   UNL     1      43.104 -16.578   2.310  1.00  0.00     0.001 A 
HETATM   12  C   UNL     1      43.522 -17.905   2.365  1.00  0.00     0.002 A 
HETATM   13  C   UNL     1      43.795 -18.524   3.587  1.00  0.00     0.030 A 
HETATM   14  N   UNL     1      43.813 -18.113   6.071  1.00  0.00    -0.364 N 
HETATM   15  H   UNL     1      44.111 -19.025   6.387  1.00  0.00     0.165 HD
HETATM   16  C   UNL     1      43.521 -17.053   6.885  1.00  0.00     0.102 A 
ENDBRANCH   6   7
ENDBRANCH   1   5
BRANCH   2  17
HETATM   17  C   UNL     1      43.406 -10.225   8.010  1.00  0.00     0.280 C 
BRANCH  17  18
HETATM   18  O   UNL     1      44.165  -9.438   8.923  1.00  0.00    -0.341 OA
BRANCH  18  19
HETATM   19  C   UNL     1      43.673  -9.381  10.203  1.00  0.00     0.086 A 
HETATM   20  C   UNL     1      43.180  -8.147  10.657  1.00  0.00     0.045 A 
HETATM   21 BR   UNL     1      43.210  -6.605   9.548  1.00  0.00    -0.048 Br
HETATM   22  C   UNL     1      42.666  -8.016  11.950  1.00  0.00     0.046 A 
HETATM   23  C   UNL     1      42.631  -9.125  12.789  1.00  0.00     0.035 A 
HETATM   24 CL   UNL     1      42.007  -8.972  14.385  1.00  0.00    -0.084 Cl
HETATM   25  C   UNL     1      43.095 -10.362  12.346  1.00  0.00     0.026 A 
HETATM   26  C   UNL     1      43.610 -10.491  11.053  1.00  0.00     0.040 A 
ENDBRANCH  18  19
ENDBRANCH  17  18
ENDBRANCH   2  17
TORSDOF 5
ENDMDL
MODEL 3
REMARK VINA RESULT:      -8.0      2.054      2.373
REMARK  5 active torsions:
REMARK  status: ('A' for Active; 'I' for Inactive)
REMARK    1  A    between atoms: C_8  and  C_9 
REMARK    2  A    between atoms: N_10  and  N_11 
REMARK       I    between atoms: N_11  and  C_12 
REMARK    3  A    between atoms: C_12  and  C_13 
REMARK    4  A    between atoms: C_13  and  O_14 
REMARK    5  A    between atoms: O_14  and  C_15 
ROOT
HETATM    1  N   UNL     1      42.444 -14.248   1.232  1.00  0.00    -0.246 N 
HETATM    2  C   UNL     1      41.157 -14.120   0.725  1.00  0.00     0.261 C 
HETATM    3  O   UNL     1      40.294 -14.995   0.694  1.00  0.00    -0.269 OA
HETATM    4  H   UNL     1      42.965 -13.384   1.377  1.00  0.00     0.192 HD
ENDROOT
BRANCH   1   5
HETATM    5  N   UNL     1      42.970 -15.333   1.893  1.00  0.00    -0.184 NA
HETATM    6  C   UNL     1      42.667 -15.525   3.137  1.00  0.00     0.152 C 
BRANCH   6   7
HETATM    7  C   UNL     1      43.257 -16.639   3.854  1.00  0.00     0.011 A 
HETATM    8  C   UNL     1      43.351 -17.995   3.401  1.00  0.00     0.004 A 
HETATM    9  C   UNL     1      42.939 -18.672   2.233  1.00  0.00     0.014 A 
HETATM   10  C   UNL     1      43.988 -18.728   4.404  1.00  0.00     0.043 A 
HETATM   11  C   UNL     1      43.178 -20.046   2.110  1.00  0.00     0.001 A 
HETATM   12  C   UNL     1      43.820 -20.747   3.127  1.00  0.00     0.002 A 
HETATM   13  C   UNL     1      44.240 -20.101   4.294  1.00  0.00     0.030 A 
HETATM   14  N   UNL     1      44.275 -17.853   5.425  1.00  0.00    -0.364 N 
HETATM   15  H   UNL     1      44.737 -18.109   6.286  1.00  0.00     0.165 HD
HETATM   16  C   UNL     1      43.834 -16.596   5.110  1.00  0.00     0.102 A 
ENDBRANCH   6   7
ENDBRANCH   1   5
BRANCH   2  17
HETATM   17  C   UNL     1      40.892 -12.748   0.106  1.00  0.00     0.280 C 
BRANCH  17  18
HETATM   18  O   UNL     1      40.567 -12.846  -1.278  1.00  0.00    -0.341 OA
BRANCH  18  19
HETATM   19  C   UNL     1      39.378 -12.266  -1.646  1.00  0.00     0.086 A 
HETATM   20  C   UNL     1      38.432 -13.077  -2.293  1.00  0.00     0.045 A 
HETATM   21 BR   UNL     1      38.789 -14.905  -2.667  1.00  0.00    -0.048 Br
HETATM   22  C   UNL     1      37.201 -12.553  -2.698  1.00  0.00     0.046 A 
HETATM   23  C   UNL     1      36.908 -11.217  -2.443  1.00  0.00     0.035 A 
HETATM   24 CL   UNL     1      35.399 -10.560  -2.944  1.00  0.00    -0.084 Cl
HETATM   25  C   UNL     1      37.826 -10.406  -1.780  1.00  0.00     0.026 A 
HETATM   26  C   UNL     1      39.058 -10.931  -1.377  1.00  0.00     0.040 A 
ENDBRANCH  18  19
ENDBRANCH  17  18
ENDBRANCH   2  17
TORSDOF 5
ENDMDL
MODEL 4
REMARK VINA RESULT:      -8.0      3.448      7.968
REMARK  5 active torsions:
REMARK  status: ('A' for Active; 'I' for Inactive)
REMARK    1  A    between atoms: C_8  and  C_9 
REMARK    2  A    between atoms: N_10  and  N_11 
REMARK       I    between atoms: N_11  and  C_12 
REMARK    3  A    between atoms: C_12  and  C_13 
REMARK    4  A    between atoms: C_13  and  O_14 
REMARK    5  A    between atoms: O_14  and  C_15 
ROOT
HETATM    1  N   UNL     1      40.809 -13.838   3.640  1.00  0.00    -0.246 N 
HETATM    2  C   UNL     1      40.951 -15.086   4.233  1.00  0.00     0.261 C 
HETATM    3  O   UNL     1      40.228 -16.064   4.057  1.00  0.00    -0.269 OA
HETATM    4  H   UNL     1      41.601 -13.201   3.723  1.00  0.00     0.192 HD
ENDROOT
BRANCH   1   5
HETATM    5  N   UNL     1      39.908 -13.482   2.664  1.00  0.00    -0.184 NA
HETATM    6  C   UNL     1      40.344 -13.110   1.504  1.00  0.00     0.152 C 
BRANCH   6   7
HETATM    7  C   UNL     1      39.402 -12.685   0.487  1.00  0.00     0.011 A 
HETATM    8  C   UNL     1      39.067 -13.388  -0.716  1.00  0.00     0.004 A 
HETATM    9  C   UNL     1      39.490 -14.604  -1.295  1.00  0.00     0.014 A 
HETATM   10  C   UNL     1      38.122 -12.621  -1.400  1.00  0.00     0.043 A 
HETATM   11  C   UNL     1      38.959 -15.005  -2.526  1.00  0.00     0.001 A 
HETATM   12  C   UNL     1      38.016 -14.218  -3.181  1.00  0.00     0.002 A 
HETATM   13  C   UNL     1      37.577 -13.011  -2.630  1.00  0.00     0.030 A 
HETATM   14  N   UNL     1      37.889 -11.497  -0.643  1.00  0.00    -0.364 N 
HETATM   15  H   UNL     1      37.248 -10.758  -0.896  1.00  0.00     0.165 HD
HETATM   16  C   UNL     1      38.657 -11.520   0.489  1.00  0.00     0.102 A 
ENDBRANCH   6   7
ENDBRANCH   1   5
BRANCH   2  17
HETATM   17  C   UNL     1      42.101 -15.144   5.237  1.00  0.00     0.280 C 
BRANCH  17  18
HETATM   18  O   UNL     1      43.334 -15.484   4.610  1.00  0.00    -0.341 OA
BRANCH  18  19
HETATM   19  C   UNL     1      43.526 -16.822   4.374  1.00  0.00     0.086 A 
HETATM   20  C   UNL     1      43.512 -17.257   3.039  1.00  0.00     0.045 A 
HETATM   21 BR   UNL     1      43.216 -16.041   1.609  1.00  0.00    -0.048 Br
HETATM   22  C   UNL     1      43.698 -18.606   2.724  1.00  0.00     0.046 A 
HETATM   23  C   UNL     1      43.914 -19.523   3.748  1.00  0.00     0.035 A 
HETATM   24 CL   UNL     1      44.138 -21.188   3.372  1.00  0.00    -0.084 Cl
HETATM   25  C   UNL     1      43.955 -19.105   5.076  1.00  0.00     0.026 A 
HETATM   26  C   UNL     1      43.767 -17.755   5.388  1.00  0.00     0.040 A 
ENDBRANCH  18  19
ENDBRANCH  17  18
ENDBRANCH   2  17
TORSDOF 5
ENDMDL
MODEL 5
REMARK VINA RESULT:      -7.8      7.518      9.517
REMARK  5 active torsions:
REMARK  status: ('A' for Active; 'I' for Inactive)
REMARK    1  A    between atoms: C_8  and  C_9 
REMARK    2  A    between atoms: N_10  and  N_11 
REMARK       I    between atoms: N_11  and  C_12 
REMARK    3  A    between atoms: C_12  and  C_13 
REMARK    4  A    between atoms: C_13  and  O_14 
REMARK    5  A    between atoms: O_14  and  C_15 
ROOT
HETATM    1  N   UNL     1      43.483 -12.755   7.144  1.00  0.00    -0.246 N 
HETATM    2  C   UNL     1      44.186 -11.562   7.252  1.00  0.00     0.261 C 
HETATM    3  O   UNL     1      44.716 -10.941   6.333  1.00  0.00    -0.269 OA
HETATM    4  H   UNL     1      42.929 -13.033   7.954  1.00  0.00     0.192 HD
ENDROOT
BRANCH   1   5
HETATM    5  N   UNL     1      43.146 -13.416   5.986  1.00  0.00    -0.184 NA
HETATM    6  C   UNL     1      43.162 -14.710   5.967  1.00  0.00     0.152 C 
BRANCH   6   7
HETATM    7  C   UNL     1      42.857 -15.412   4.736  1.00  0.00     0.011 A 
HETATM    8  C   UNL     1      43.345 -16.701   4.343  1.00  0.00     0.004 A 
HETATM    9  C   UNL     1      44.211 -17.647   4.933  1.00  0.00     0.014 A 
HETATM   10  C   UNL     1      42.802 -16.990   3.089  1.00  0.00     0.043 A 
HETATM   11  C   UNL     1      44.500 -18.837   4.256  1.00  0.00     0.001 A 
HETATM   12  C   UNL     1      43.939 -19.096   3.008  1.00  0.00     0.002 A 
HETATM   13  C   UNL     1      43.078 -18.178   2.401  1.00  0.00     0.030 A 
HETATM   14  N   UNL     1      42.013 -15.921   2.734  1.00  0.00    -0.364 N 
HETATM   15  H   UNL     1      41.495 -15.854   1.870  1.00  0.00     0.165 HD
HETATM   16  C   UNL     1      42.044 -14.963   3.711  1.00  0.00     0.102 A 
ENDBRANCH   6   7
ENDBRANCH   1   5
BRANCH   2  17
HETATM   17  C   UNL     1      44.324 -11.078   8.695  1.00  0.00     0.280 C 
BRANCH  17  18
HETATM   18  O   UNL     1      43.666  -9.831   8.900  1.00  0.00    -0.341 OA
BRANCH  18  19
HETATM   19  C   UNL     1      43.365  -9.532  10.205  1.00  0.00     0.086 A 
HETATM   20  C   UNL     1      43.167  -8.181  10.534  1.00  0.00     0.045 A 
HETATM   21 BR   UNL     1      43.331  -6.813   9.226  1.00  0.00    -0.048 Br
HETATM   22  C   UNL     1      42.859  -7.803  11.843  1.00  0.00     0.046 A 
HETATM   23  C   UNL     1      42.734  -8.779  12.827  1.00  0.00     0.035 A 
HETATM   24 CL   UNL     1      42.363  -8.324  14.444  1.00  0.00    -0.084 Cl
HETATM   25  C   UNL     1      42.903 -10.126  12.512  1.00  0.00     0.026 A 
HETATM   26  C   UNL     1      43.212 -10.502  11.201  1.00  0.00     0.040 A 
ENDBRANCH  18  19
ENDBRANCH  17  18
ENDBRANCH   2  17
TORSDOF 5
ENDMDL
MODEL 6
REMARK VINA RESULT:      -7.7      1.856      2.243
REMARK  5 active torsions:
REMARK  status: ('A' for Active; 'I' for Inactive)
REMARK    1  A    between atoms: C_8  and  C_9 
REMARK    2  A    between atoms: N_10  and  N_11 
REMARK       I    between atoms: N_11  and  C_12 
REMARK    3  A    between atoms: C_12  and  C_13 
REMARK    4  A    between atoms: C_13  and  O_14 
REMARK    5  A    between atoms: O_14  and  C_15 
ROOT
HETATM    1  N   UNL     1      40.534 -14.774   2.170  1.00  0.00    -0.246 N 
HETATM    2  C   UNL     1      40.087 -13.530   2.595  1.00  0.00     0.261 C 
HETATM    3  O   UNL     1      40.093 -13.106   3.749  1.00  0.00    -0.269 OA
HETATM    4  H   UNL     1      40.658 -14.896   1.166  1.00  0.00     0.192 HD
ENDROOT
BRANCH   1   5
HETATM    5  N   UNL     1      41.169 -15.729   2.929  1.00  0.00    -0.184 NA
HETATM    6  C   UNL     1      42.462 -15.728   2.998  1.00  0.00     0.152 C 
BRANCH   6   7
HETATM    7  C   UNL     1      43.140 -16.763   3.755  1.00  0.00     0.011 A 
HETATM    8  C   UNL     1      43.318 -18.130   3.366  1.00  0.00     0.004 A 
HETATM    9  C   UNL     1      42.935 -18.889   2.239  1.00  0.00     0.014 A 
HETATM   10  C   UNL     1      44.022 -18.768   4.388  1.00  0.00     0.043 A 
HETATM   11  C   UNL     1      43.266 -20.248   2.176  1.00  0.00     0.001 A 
HETATM   12  C   UNL     1      43.972 -20.854   3.213  1.00  0.00     0.002 A 
HETATM   13  C   UNL     1      44.365 -20.125   4.338  1.00  0.00     0.030 A 
HETATM   14  N   UNL     1      44.264 -17.827   5.361  1.00  0.00    -0.364 N 
HETATM   15  H   UNL     1      44.757 -18.009   6.224  1.00  0.00     0.165 HD
HETATM   16  C   UNL     1      43.733 -16.620   4.997  1.00  0.00     0.102 A 
ENDBRANCH   6   7
ENDBRANCH   1   5
BRANCH   2  17
HETATM   17  C   UNL     1      39.483 -12.694   1.467  1.00  0.00     0.280 C 
BRANCH  17  18
HETATM   18  O   UNL     1      39.764 -13.252   0.187  1.00  0.00    -0.341 OA
BRANCH  18  19
HETATM   19  C   UNL     1      40.070 -12.344  -0.797  1.00  0.00     0.086 A 
HETATM   20  C   UNL     1      39.764 -12.694  -2.122  1.00  0.00     0.045 A 
HETATM   21 BR   UNL     1      38.977 -14.371  -2.543  1.00  0.00    -0.048 Br
HETATM   22  C   UNL     1      40.049 -11.820  -3.175  1.00  0.00     0.046 A 
HETATM   23  C   UNL     1      40.628 -10.585  -2.902  1.00  0.00     0.035 A 
HETATM   24 CL   UNL     1      40.990  -9.504  -4.191  1.00  0.00    -0.084 Cl
HETATM   25  C   UNL     1      40.915 -10.213  -1.590  1.00  0.00     0.026 A 
HETATM   26  C   UNL     1      40.631 -11.089  -0.538  1.00  0.00     0.040 A 
ENDBRANCH  18  19
ENDBRANCH  17  18
ENDBRANCH   2  17
TORSDOF 5
ENDMDL
MODEL 7
REMARK VINA RESULT:      -7.6      7.403      9.276
REMARK  5 active torsions:
REMARK  status: ('A' for Active; 'I' for Inactive)
REMARK    1  A    between atoms: C_8  and  C_9 
REMARK    2  A    between atoms: N_10  and  N_11 
REMARK       I    between atoms: N_11  and  C_12 
REMARK    3  A    between atoms: C_12  and  C_13 
REMARK    4  A    between atoms: C_13  and  O_14 
REMARK    5  A    between atoms: O_14  and  C_15 
ROOT
HETATM    1  N   UNL     1      43.905 -12.109   7.023  1.00  0.00    -0.246 N 
HETATM    2  C   UNL     1      45.103 -11.418   7.154  1.00  0.00     0.261 C 
HETATM    3  O   UNL     1      46.027 -11.397   6.344  1.00  0.00    -0.269 OA
HETATM    4  H   UNL     1      43.161 -11.861   7.675  1.00  0.00     0.192 HD
ENDROOT
BRANCH   1   5
HETATM    5  N   UNL     1      43.471 -12.812   5.923  1.00  0.00    -0.184 NA
HETATM    6  C   UNL     1      43.336 -14.096   6.003  1.00  0.00     0.152 C 
BRANCH   6   7
HETATM    7  C   UNL     1      42.927 -14.848   4.833  1.00  0.00     0.011 A 
HETATM    8  C   UNL     1      43.343 -16.173   4.479  1.00  0.00     0.004 A 
HETATM    9  C   UNL     1      44.212 -17.119   5.063  1.00  0.00     0.014 A 
HETATM   10  C   UNL     1      42.709 -16.505   3.281  1.00  0.00     0.043 A 
HETATM   11  C   UNL     1      44.416 -18.352   4.432  1.00  0.00     0.001 A 
HETATM   12  C   UNL     1      43.765 -18.653   3.238  1.00  0.00     0.002 A 
HETATM   13  C   UNL     1      42.897 -17.736   2.640  1.00  0.00     0.030 A 
HETATM   14  N   UNL     1      41.936 -15.426   2.920  1.00  0.00    -0.364 N 
HETATM   15  H   UNL     1      41.364 -15.383   2.088  1.00  0.00     0.165 HD
HETATM   16  C   UNL     1      42.064 -14.422   3.840  1.00  0.00     0.102 A 
ENDBRANCH   6   7
ENDBRANCH   1   5
BRANCH   2  17
HETATM   17  C   UNL     1      45.231 -10.693   8.493  1.00  0.00     0.280 C 
BRANCH  17  18
HETATM   18  O   UNL     1      43.967 -10.529   9.129  1.00  0.00    -0.341 OA
BRANCH  18  19
HETATM   19  C   UNL     1      43.634  -9.238   9.454  1.00  0.00     0.086 A 
HETATM   20  C   UNL     1      43.227  -8.982  10.773  1.00  0.00     0.045 A 
HETATM   21 BR   UNL     1      43.121 -10.376  12.060  1.00  0.00    -0.048 Br
HETATM   22  C   UNL     1      42.872  -7.691  11.173  1.00  0.00     0.046 A 
HETATM   23  C   UNL     1      42.936  -6.648  10.255  1.00  0.00     0.035 A 
HETATM   24 CL   UNL     1      42.493  -5.056  10.736  1.00  0.00    -0.084 Cl
HETATM   25  C   UNL     1      43.360  -6.880   8.949  1.00  0.00     0.026 A 
HETATM   26  C   UNL     1      43.715  -8.172   8.550  1.00  0.00     0.040 A 
ENDBRANCH  18  19
ENDBRANCH  17  18
ENDBRANCH   2  17
TORSDOF 5
ENDMDL
MODEL 8
REMARK VINA RESULT:      -7.5      5.762      8.144
REMARK  5 active torsions:
REMARK  status: ('A' for Active; 'I' for Inactive)
REMARK    1  A    between atoms: C_8  and  C_9 
REMARK    2  A    between atoms: N_10  and  N_11 
REMARK       I    between atoms: N_11  and  C_12 
REMARK    3  A    between atoms: C_12  and  C_13 
REMARK    4  A    between atoms: C_13  and  O_14 
REMARK    5  A    between atoms: O_14  and  C_15 
ROOT
HETATM    1  N   UNL     1      42.467 -12.875   4.140  1.00  0.00    -0.246 N 
HETATM    2  C   UNL     1      42.555 -13.636   2.982  1.00  0.00     0.261 C 
HETATM    3  O   UNL     1      43.556 -13.792   2.284  1.00  0.00    -0.269 OA
HETATM    4  H   UNL     1      41.637 -13.013   4.715  1.00  0.00     0.192 HD
ENDROOT
BRANCH   1   5
HETATM    5  N   UNL     1      43.497 -12.239   4.794  1.00  0.00    -0.184 NA
HETATM    6  C   UNL     1      43.485 -12.177   6.086  1.00  0.00     0.152 C 
BRANCH   6   7
HETATM    7  C   UNL     1      44.541 -11.465   6.779  1.00  0.00     0.011 A 
HETATM    8  C   UNL     1      44.455 -10.853   8.072  1.00  0.00     0.004 A 
HETATM    9  C   UNL     1      43.428 -10.721   9.031  1.00  0.00     0.014 A 
HETATM   10  C   UNL     1      45.699 -10.281   8.348  1.00  0.00     0.043 A 
HETATM   11  C   UNL     1      43.679 -10.029  10.221  1.00  0.00     0.001 A 
HETATM   12  C   UNL     1      44.931  -9.473  10.467  1.00  0.00     0.002 A 
HETATM   13  C   UNL     1      45.967  -9.590   9.536  1.00  0.00     0.030 A 
HETATM   14  N   UNL     1      46.510 -10.536   7.267  1.00  0.00    -0.364 N 
HETATM   15  H   UNL     1      47.472 -10.237   7.190  1.00  0.00     0.165 HD
HETATM   16  C   UNL     1      45.825 -11.240   6.315  1.00  0.00     0.102 A 
ENDBRANCH   6   7
ENDBRANCH   1   5
BRANCH   2  17
HETATM   17  C   UNL     1      41.219 -14.252   2.568  1.00  0.00     0.280 C 
BRANCH  17  18
HETATM   18  O   UNL     1      40.812 -15.282   3.463  1.00  0.00    -0.341 OA
BRANCH  18  19
HETATM   19  C   UNL     1      41.726 -16.286   3.661  1.00  0.00     0.086 A 
HETATM   20  C   UNL     1      42.122 -16.555   4.981  1.00  0.00     0.045 A 
HETATM   21 BR   UNL     1      41.436 -15.551   6.441  1.00  0.00    -0.048 Br
HETATM   22  C   UNL     1      43.051 -17.562   5.257  1.00  0.00     0.046 A 
HETATM   23  C   UNL     1      43.576 -18.314   4.211  1.00  0.00     0.035 A 
HETATM   24 CL   UNL     1      44.726 -19.552   4.539  1.00  0.00    -0.084 Cl
HETATM   25  C   UNL     1      43.175 -18.077   2.898  1.00  0.00     0.026 A 
HETATM   26  C   UNL     1      42.247 -17.068   2.624  1.00  0.00     0.040 A 
ENDBRANCH  18  19
ENDBRANCH  17  18
ENDBRANCH   2  17
TORSDOF 5
ENDMDL
MODEL 9
REMARK VINA RESULT:      -7.4      7.743      9.897
REMARK  5 active torsions:
REMARK  status: ('A' for Active; 'I' for Inactive)
REMARK    1  A    between atoms: C_8  and  C_9 
REMARK    2  A    between atoms: N_10  and  N_11 
REMARK       I    between atoms: N_11  and  C_12 
REMARK    3  A    between atoms: C_12  and  C_13 
REMARK    4  A    between atoms: C_13  and  O_14 
REMARK    5  A    between atoms: O_14  and  C_15 
ROOT
HETATM    1  N   UNL     1      44.232 -11.393   6.891  1.00  0.00    -0.246 N 
HETATM    2  C   UNL     1      45.409 -10.953   7.483  1.00  0.00     0.261 C 
HETATM    3  O   UNL     1      46.546 -11.086   7.035  1.00  0.00    -0.269 OA
HETATM    4  H   UNL     1      43.363 -11.026   7.276  1.00  0.00     0.192 HD
ENDROOT
BRANCH   1   5
HETATM    5  N   UNL     1      44.093 -11.962   5.647  1.00  0.00    -0.184 NA
HETATM    6  C   UNL     1      43.083 -12.735   5.412  1.00  0.00     0.152 C 
BRANCH   6   7
HETATM    7  C   UNL     1      42.958 -13.378   4.118  1.00  0.00     0.011 A 
HETATM    8  C   UNL     1      43.097 -14.777   3.841  1.00  0.00     0.004 A 
HETATM    9  C   UNL     1      43.386 -15.912   4.630  1.00  0.00     0.014 A 
HETATM   10  C   UNL     1      42.899 -14.955   2.471  1.00  0.00     0.043 A 
HETATM   11  C   UNL     1      43.467 -17.172   4.025  1.00  0.00     0.001 A 
HETATM   12  C   UNL     1      43.261 -17.315   2.656  1.00  0.00     0.002 A 
HETATM   13  C   UNL     1      42.971 -16.209   1.852  1.00  0.00     0.030 A 
HETATM   14  N   UNL     1      42.647 -13.713   1.935  1.00  0.00    -0.364 N 
HETATM   15  H   UNL     1      42.467 -13.538   0.956  1.00  0.00     0.165 HD
HETATM   16  C   UNL     1      42.687 -12.757   2.913  1.00  0.00     0.102 A 
ENDBRANCH   6   7
ENDBRANCH   1   5
BRANCH   2  17
HETATM   17  C   UNL     1      45.187 -10.310   8.851  1.00  0.00     0.280 C 
BRANCH  17  18
HETATM   18  O   UNL     1      43.843  -9.865   9.014  1.00  0.00    -0.341 OA
BRANCH  18  19
HETATM   19  C   UNL     1      43.467  -9.588  10.304  1.00  0.00     0.086 A 
HETATM   20  C   UNL     1      43.208  -8.247  10.633  1.00  0.00     0.045 A 
HETATM   21 BR   UNL     1      43.391  -6.863   9.346  1.00  0.00    -0.048 Br
HETATM   22  C   UNL     1      42.822  -7.892  11.929  1.00  0.00     0.046 A 
HETATM   23  C   UNL     1      42.681  -8.881  12.897  1.00  0.00     0.035 A 
HETATM   24 CL   UNL     1      42.214  -8.452  14.497  1.00  0.00    -0.084 Cl
HETATM   25  C   UNL     1      42.911 -10.218  12.581  1.00  0.00     0.026 A 
HETATM   26  C   UNL     1      43.298 -10.572  11.285  1.00  0.00     0.040 A 
ENDBRANCH  18  19
ENDBRANCH  17  18
ENDBRANCH   2  17
TORSDOF 5
ENDMDL
MODEL 10
REMARK VINA RESULT:      -7.4      6.620      8.428
REMARK  5 active torsions:
REMARK  status: ('A' for Active; 'I' for Inactive)
REMARK    1  A    between atoms: C_8  and  C_9 
REMARK    2  A    between atoms: N_10  and  N_11 
REMARK       I    between atoms: N_11  and  C_12 
REMARK    3  A    between atoms: C_12  and  C_13 
REMARK    4  A    between atoms: C_13  and  O_14 
REMARK    5  A    between atoms: O_14  and  C_15 
ROOT
HETATM    1  N   UNL     1      42.266 -12.472   5.363  1.00  0.00    -0.246 N 
HETATM    2  C   UNL     1      42.414 -11.110   5.137  1.00  0.00     0.261 C 
HETATM    3  O   UNL     1      42.738 -10.576   4.078  1.00  0.00    -0.269 OA
HETATM    4  H   UNL     1      41.793 -12.743   6.225  1.00  0.00     0.192 HD
ENDROOT
BRANCH   1   5
HETATM    5  N   UNL     1      42.344 -13.480   4.431  1.00  0.00    -0.184 NA
HETATM    6  C   UNL     1      42.938 -14.587   4.741  1.00  0.00     0.152 C 
BRANCH   6   7
HETATM    7  C   UNL     1      43.068 -15.634   3.747  1.00  0.00     0.011 A 
HETATM    8  C   UNL     1      43.408 -17.005   3.987  1.00  0.00     0.004 A 
HETATM    9  C   UNL     1      43.718 -17.753   5.144  1.00  0.00     0.014 A 
HETATM   10  C   UNL     1      43.422 -17.656   2.753  1.00  0.00     0.043 A 
HETATM   11  C   UNL     1      44.029 -19.112   5.025  1.00  0.00     0.001 A 
HETATM   12  C   UNL     1      44.031 -19.732   3.778  1.00  0.00     0.002 A 
HETATM   13  C   UNL     1      43.725 -19.016   2.617  1.00  0.00     0.030 A 
HETATM   14  N   UNL     1      43.101 -16.719   1.798  1.00  0.00    -0.364 N 
HETATM   15  H   UNL     1      43.037 -16.909   0.808  1.00  0.00     0.165 HD
HETATM   16  C   UNL     1      42.893 -15.499   2.381  1.00  0.00     0.102 A 
ENDBRANCH   6   7
ENDBRANCH   1   5
BRANCH   2  17
HETATM   17  C   UNL     1      42.198 -10.268   6.393  1.00  0.00     0.280 C 
BRANCH  17  18
HETATM   18  O   UNL     1      43.433  -9.893   6.998  1.00  0.00    -0.341 OA
BRANCH  18  19
HETATM   19  C   UNL     1      43.357  -9.539   8.321  1.00  0.00     0.086 A 
HETATM   20  C   UNL     1      44.562  -9.291   8.998  1.00  0.00     0.045 A 
HETATM   21 BR   UNL     1      46.239  -9.459   8.122  1.00  0.00    -0.048 Br
HETATM   22  C   UNL     1      44.562  -8.927  10.348  1.00  0.00     0.046 A 
HETATM   23  C   UNL     1      43.351  -8.798  11.021  1.00  0.00     0.035 A 
HETATM   24 CL   UNL     1      43.339  -8.358  12.685  1.00  0.00    -0.084 Cl
HETATM   25  C   UNL     1      42.146  -9.017  10.358  1.00  0.00     0.026 A 
HETATM   26  C   UNL     1      42.149  -9.382   9.008  1.00  0.00     0.040 A 
ENDBRANCH  18  19
ENDBRANCH  17  18
ENDBRANCH   2  17
TORSDOF 5
ENDMDL
