MODEL 1
REMARK VINA RESULT:      -8.6      0.000      0.000
REMARK  5 active torsions:
REMARK  status: ('A' for Active; 'I' for Inactive)
REMARK    1  A    between atoms: C_7  and  S_8 
REMARK    2  A    between atoms: S_8  and  C_9 
REMARK    3  A    between atoms: C_9  and  C_10 
REMARK       I    between atoms: C_10  and  N_11 
REMARK    4  A    between atoms: N_11  and  N_12 
REMARK       I    between atoms: N_12  and  C_13 
REMARK       I    between atoms: C_13  and  N_14 
REMARK    5  A    between atoms: N_14  and  C_15 
ROOT
HETATM    1  C   UNL     1      42.868 -12.395   5.808  1.00  0.00     0.245 C 
HETATM    2  N   UNL     1      43.943 -12.531   6.656  1.00  0.00    -0.265 N 
HETATM    3  O   UNL     1      42.116 -11.417   5.876  1.00  0.00    -0.271 OA
HETATM    4  H   UNL     1      44.635 -13.277   6.583  1.00  0.00     0.190 HD
ENDROOT
BRANCH   1   5
HETATM    5  C   UNL     1      42.720 -13.425   4.709  1.00  0.00     0.184 C 
BRANCH   5   6
HETATM    6  S   UNL     1      41.452 -14.679   5.050  1.00  0.00    -0.118 SA
BRANCH   6   7
HETATM    7  C   UNL     1      42.497 -16.060   5.322  1.00  0.00     0.035 A 
HETATM    8  C   UNL     1      43.063 -16.407   6.530  1.00  0.00     0.023 A 
HETATM    9  C   UNL     1      43.006 -15.761   7.867  1.00  0.00     0.069 C 
HETATM   10  N   UNL     1      43.767 -17.569   6.323  1.00  0.00    -0.358 N 
HETATM   11  H   UNL     1      44.286 -18.068   7.030  1.00  0.00     0.166 HD
HETATM   12  C   UNL     1      43.663 -17.973   5.010  1.00  0.00     0.044 A 
HETATM   13  C   UNL     1      42.882 -17.025   4.346  1.00  0.00     0.009 A 
HETATM   14  C   UNL     1      44.201 -19.095   4.370  1.00  0.00     0.030 A 
HETATM   15  C   UNL     1      42.644 -17.204   2.966  1.00  0.00     0.015 A 
HETATM   16  C   UNL     1      43.175 -18.321   2.311  1.00  0.00     0.001 A 
HETATM   17  C   UNL     1      43.939 -19.253   3.007  1.00  0.00     0.002 A 
ENDBRANCH   6   7
ENDBRANCH   5   6
ENDBRANCH   1   5
BRANCH   2  18
HETATM   18  N   UNL     1      44.197 -11.489   7.564  1.00  0.00    -0.249 N 
HETATM   19  C   UNL     1      45.407 -10.856   7.488  1.00  0.00     0.339 C 
HETATM   20  N   UNL     1      45.573  -9.716   8.221  1.00  0.00    -0.308 N 
HETATM   21  O   UNL     1      46.313 -11.252   6.752  1.00  0.00    -0.245 OA
HETATM   22  H   UNL     1      46.413  -9.223   7.944  1.00  0.00     0.170 HD
HETATM   23  H   UNL     1      43.383 -10.904   7.742  1.00  0.00     0.192 HD
BRANCH  20  24
HETATM   24  C   UNL     1      44.791  -9.115   9.226  1.00  0.00     0.036 A 
HETATM   25  C   UNL     1      44.706  -9.574  10.544  1.00  0.00     0.029 A 
HETATM   26  C   UNL     1      43.873  -8.933  11.467  1.00  0.00     0.002 A 
HETATM   27  C   UNL     1      43.137  -7.815  11.089  1.00  0.00     0.000 A 
HETATM   28  C   UNL     1      43.248  -7.322   9.792  1.00  0.00     0.002 A 
HETATM   29  C   UNL     1      44.080  -7.962   8.870  1.00  0.00     0.029 A 
ENDBRANCH  20  24
ENDBRANCH   2  18
TORSDOF 5
ENDMDL
MODEL 2
REMARK VINA RESULT:      -8.3      5.526      8.227
REMARK  5 active torsions:
REMARK  status: ('A' for Active; 'I' for Inactive)
REMARK    1  A    between atoms: C_7  and  S_8 
REMARK    2  A    between atoms: S_8  and  C_9 
REMARK    3  A    between atoms: C_9  and  C_10 
REMARK       I    between atoms: C_10  and  N_11 
REMARK    4  A    between atoms: N_11  and  N_12 
REMARK       I    between atoms: N_12  and  C_13 
REMARK       I    between atoms: C_13  and  N_14 
REMARK    5  A    between atoms: N_14  and  C_15 
ROOT
HETATM    1  C   UNL     1      40.544 -15.229   3.078  1.00  0.00     0.245 C 
HETATM    2  N   UNL     1      40.352 -13.901   2.775  1.00  0.00    -0.265 N 
HETATM    3  O   UNL     1      40.367 -16.112   2.232  1.00  0.00    -0.271 OA
HETATM    4  H   UNL     1      40.563 -13.135   3.415  1.00  0.00     0.190 HD
ENDROOT
BRANCH   1   5
HETATM    5  C   UNL     1      41.101 -15.553   4.447  1.00  0.00     0.184 C 
BRANCH   5   6
HETATM    6  S   UNL     1      42.896 -15.315   4.578  1.00  0.00    -0.118 SA
BRANCH   6   7
HETATM    7  C   UNL     1      43.367 -16.965   4.936  1.00  0.00     0.035 A 
HETATM    8  C   UNL     1      43.708 -17.446   6.182  1.00  0.00     0.023 A 
HETATM    9  C   UNL     1      43.812 -16.774   7.503  1.00  0.00     0.069 C 
HETATM   10  N   UNL     1      43.963 -18.788   6.036  1.00  0.00    -0.358 N 
HETATM   11  H   UNL     1      44.233 -19.414   6.782  1.00  0.00     0.166 HD
HETATM   12  C   UNL     1      43.794 -19.176   4.726  1.00  0.00     0.044 A 
HETATM   13  C   UNL     1      43.437 -18.039   4.000  1.00  0.00     0.009 A 
HETATM   14  C   UNL     1      43.933 -20.439   4.137  1.00  0.00     0.030 A 
HETATM   15  C   UNL     1      43.225 -18.171   2.611  1.00  0.00     0.015 A 
HETATM   16  C   UNL     1      43.361 -19.427   2.006  1.00  0.00     0.001 A 
HETATM   17  C   UNL     1      43.706 -20.543   2.763  1.00  0.00     0.002 A 
ENDBRANCH   6   7
ENDBRANCH   5   6
ENDBRANCH   1   5
BRANCH   2  18
HETATM   18  N   UNL     1      40.008 -13.572   1.453  1.00  0.00    -0.249 N 
HETATM   19  C   UNL     1      40.770 -12.637   0.808  1.00  0.00     0.339 C 
HETATM   20  N   UNL     1      40.571 -12.472  -0.532  1.00  0.00    -0.308 N 
HETATM   21  O   UNL     1      41.647 -11.990   1.384  1.00  0.00    -0.245 OA
HETATM   22  H   UNL     1      41.309 -11.915  -0.945  1.00  0.00     0.170 HD
HETATM   23  H   UNL     1      39.706 -14.376   0.906  1.00  0.00     0.192 HD
BRANCH  20  24
HETATM   24  C   UNL     1      39.580 -12.955  -1.409  1.00  0.00     0.036 A 
HETATM   25  C   UNL     1      38.320 -12.373  -1.577  1.00  0.00     0.029 A 
HETATM   26  C   UNL     1      37.383 -12.945  -2.445  1.00  0.00     0.002 A 
HETATM   27  C   UNL     1      37.705 -14.088  -3.169  1.00  0.00     0.000 A 
HETATM   28  C   UNL     1      38.972 -14.651  -3.044  1.00  0.00     0.002 A 
HETATM   29  C   UNL     1      39.907 -14.080  -2.177  1.00  0.00     0.029 A 
ENDBRANCH  20  24
ENDBRANCH   2  18
TORSDOF 5
ENDMDL
MODEL 3
REMARK VINA RESULT:      -8.3      1.788      2.492
REMARK  5 active torsions:
REMARK  status: ('A' for Active; 'I' for Inactive)
REMARK    1  A    between atoms: C_7  and  S_8 
REMARK    2  A    between atoms: S_8  and  C_9 
REMARK    3  A    between atoms: C_9  and  C_10 
REMARK       I    between atoms: C_10  and  N_11 
REMARK    4  A    between atoms: N_11  and  N_12 
REMARK       I    between atoms: N_12  and  C_13 
REMARK       I    between atoms: C_13  and  N_14 
REMARK    5  A    between atoms: N_14  and  C_15 
ROOT
HETATM    1  C   UNL     1      43.313 -13.135   6.602  1.00  0.00     0.245 C 
HETATM    2  N   UNL     1      43.383 -11.767   6.739  1.00  0.00    -0.265 N 
HETATM    3  O   UNL     1      43.524 -13.887   7.559  1.00  0.00    -0.271 OA
HETATM    4  H   UNL     1      43.138 -11.108   6.000  1.00  0.00     0.190 HD
ENDROOT
BRANCH   1   5
HETATM    5  C   UNL     1      42.845 -13.674   5.267  1.00  0.00     0.184 C 
BRANCH   5   6
HETATM    6  S   UNL     1      41.287 -14.602   5.362  1.00  0.00    -0.118 SA
BRANCH   6   7
HETATM    7  C   UNL     1      41.541 -15.701   4.021  1.00  0.00     0.035 A 
HETATM    8  C   UNL     1      40.878 -15.652   2.812  1.00  0.00     0.023 A 
HETATM    9  C   UNL     1      39.805 -14.755   2.313  1.00  0.00     0.069 C 
HETATM   10  N   UNL     1      41.401 -16.653   2.030  1.00  0.00    -0.358 N 
HETATM   11  H   UNL     1      41.115 -16.860   1.083  1.00  0.00     0.166 HD
HETATM   12  C   UNL     1      42.382 -17.341   2.709  1.00  0.00     0.044 A 
HETATM   13  C   UNL     1      42.478 -16.774   3.981  1.00  0.00     0.009 A 
HETATM   14  C   UNL     1      43.180 -18.413   2.293  1.00  0.00     0.030 A 
HETATM   15  C   UNL     1      43.411 -17.323   4.888  1.00  0.00     0.015 A 
HETATM   16  C   UNL     1      44.216 -18.396   4.488  1.00  0.00     0.001 A 
HETATM   17  C   UNL     1      44.102 -18.928   3.207  1.00  0.00     0.002 A 
ENDBRANCH   6   7
ENDBRANCH   5   6
ENDBRANCH   1   5
BRANCH   2  18
HETATM   18  N   UNL     1      43.640 -11.249   8.019  1.00  0.00    -0.249 N 
HETATM   19  C   UNL     1      44.916 -10.846   8.301  1.00  0.00     0.339 C 
HETATM   20  N   UNL     1      45.120 -10.153   9.459  1.00  0.00    -0.308 N 
HETATM   21  O   UNL     1      45.856 -11.045   7.530  1.00  0.00    -0.245 OA
HETATM   22  H   UNL     1      46.042  -9.733   9.476  1.00  0.00     0.170 HD
HETATM   23  H   UNL     1      42.885 -10.665   8.374  1.00  0.00     0.192 HD
BRANCH  20  24
HETATM   24  C   UNL     1      44.292  -9.900  10.571  1.00  0.00     0.036 A 
HETATM   25  C   UNL     1      43.834 -10.880  11.456  1.00  0.00     0.029 A 
HETATM   26  C   UNL     1      42.983 -10.541  12.513  1.00  0.00     0.002 A 
HETATM   27  C   UNL     1      42.601  -9.217  12.709  1.00  0.00     0.000 A 
HETATM   28  C   UNL     1      43.087  -8.226  11.860  1.00  0.00     0.002 A 
HETATM   29  C   UNL     1      43.936  -8.566  10.804  1.00  0.00     0.029 A 
ENDBRANCH  20  24
ENDBRANCH   2  18
TORSDOF 5
ENDMDL
MODEL 4
REMARK VINA RESULT:      -8.3      1.497      2.158
REMARK  5 active torsions:
REMARK  status: ('A' for Active; 'I' for Inactive)
REMARK    1  A    between atoms: C_7  and  S_8 
REMARK    2  A    between atoms: S_8  and  C_9 
REMARK    3  A    between atoms: C_9  and  C_10 
REMARK       I    between atoms: C_10  and  N_11 
REMARK    4  A    between atoms: N_11  and  N_12 
REMARK       I    between atoms: N_12  and  C_13 
REMARK       I    between atoms: C_13  and  N_14 
REMARK    5  A    between atoms: N_14  and  C_15 
ROOT
HETATM    1  C   UNL     1      42.374 -12.046   6.032  1.00  0.00     0.245 C 
HETATM    2  N   UNL     1      43.243 -12.367   7.050  1.00  0.00    -0.265 N 
HETATM    3  O   UNL     1      41.881 -10.917   5.941  1.00  0.00    -0.271 OA
HETATM    4  H   UNL     1      43.737 -13.257   7.118  1.00  0.00     0.190 HD
ENDROOT
BRANCH   1   5
HETATM    5  C   UNL     1      42.150 -13.091   4.960  1.00  0.00     0.184 C 
BRANCH   5   6
HETATM    6  S   UNL     1      41.242 -14.550   5.543  1.00  0.00    -0.118 SA
BRANCH   6   7
HETATM    7  C   UNL     1      41.491 -15.599   4.161  1.00  0.00     0.035 A 
HETATM    8  C   UNL     1      40.819 -15.512   2.961  1.00  0.00     0.023 A 
HETATM    9  C   UNL     1      39.735 -14.605   2.502  1.00  0.00     0.069 C 
HETATM   10  N   UNL     1      41.342 -16.481   2.138  1.00  0.00    -0.358 N 
HETATM   11  H   UNL     1      41.050 -16.656   1.187  1.00  0.00     0.166 HD
HETATM   12  C   UNL     1      42.333 -17.185   2.785  1.00  0.00     0.044 A 
HETATM   13  C   UNL     1      42.436 -16.664   4.075  1.00  0.00     0.009 A 
HETATM   14  C   UNL     1      43.134 -18.237   2.325  1.00  0.00     0.030 A 
HETATM   15  C   UNL     1      43.379 -17.238   4.955  1.00  0.00     0.015 A 
HETATM   16  C   UNL     1      44.189 -18.291   4.511  1.00  0.00     0.001 A 
HETATM   17  C   UNL     1      44.068 -18.778   3.213  1.00  0.00     0.002 A 
ENDBRANCH   6   7
ENDBRANCH   5   6
ENDBRANCH   1   5
BRANCH   2  18
HETATM   18  N   UNL     1      43.602 -11.350   7.951  1.00  0.00    -0.249 N 
HETATM   19  C   UNL     1      44.878 -10.861   7.888  1.00  0.00     0.339 C 
HETATM   20  N   UNL     1      45.163  -9.739   8.611  1.00  0.00    -0.308 N 
HETATM   21  O   UNL     1      45.743 -11.367   7.172  1.00  0.00    -0.245 OA
HETATM   22  H   UNL     1      46.058  -9.349   8.343  1.00  0.00     0.170 HD
HETATM   23  H   UNL     1      42.858 -10.673   8.109  1.00  0.00     0.192 HD
BRANCH  20  24
HETATM   24  C   UNL     1      44.440  -9.039   9.597  1.00  0.00     0.036 A 
HETATM   25  C   UNL     1      44.365  -9.415  10.941  1.00  0.00     0.029 A 
HETATM   26  C   UNL     1      43.591  -8.679  11.844  1.00  0.00     0.002 A 
HETATM   27  C   UNL     1      42.905  -7.546  11.417  1.00  0.00     0.000 A 
HETATM   28  C   UNL     1      43.008  -7.136  10.091  1.00  0.00     0.002 A 
HETATM   29  C   UNL     1      43.780  -7.872   9.190  1.00  0.00     0.029 A 
ENDBRANCH  20  24
ENDBRANCH   2  18
TORSDOF 5
ENDMDL
MODEL 5
REMARK VINA RESULT:      -7.9      1.833      2.436
REMARK  5 active torsions:
REMARK  status: ('A' for Active; 'I' for Inactive)
REMARK    1  A    between atoms: C_7  and  S_8 
REMARK    2  A    between atoms: S_8  and  C_9 
REMARK    3  A    between atoms: C_9  and  C_10 
REMARK       I    between atoms: C_10  and  N_11 
REMARK    4  A    between atoms: N_11  and  N_12 
REMARK       I    between atoms: N_12  and  C_13 
REMARK       I    between atoms: C_13  and  N_14 
REMARK    5  A    between atoms: N_14  and  C_15 
ROOT
HETATM    1  C   UNL     1      43.502 -11.980   6.843  1.00  0.00     0.245 C 
HETATM    2  N   UNL     1      42.494 -11.047   6.929  1.00  0.00    -0.265 N 
HETATM    3  O   UNL     1      44.309 -12.140   7.765  1.00  0.00    -0.271 OA
HETATM    4  H   UNL     1      41.759 -10.937   6.230  1.00  0.00     0.190 HD
ENDROOT
BRANCH   1   5
HETATM    5  C   UNL     1      43.504 -12.885   5.630  1.00  0.00     0.184 C 
BRANCH   5   6
HETATM    6  S   UNL     1      42.031 -13.939   5.505  1.00  0.00    -0.118 SA
BRANCH   6   7
HETATM    7  C   UNL     1      42.807 -15.508   5.601  1.00  0.00     0.035 A 
HETATM    8  C   UNL     1      43.216 -16.126   6.764  1.00  0.00     0.023 A 
HETATM    9  C   UNL     1      43.170 -15.686   8.183  1.00  0.00     0.069 C 
HETATM   10  N   UNL     1      43.728 -17.350   6.407  1.00  0.00    -0.358 N 
HETATM   11  H   UNL     1      44.103 -18.034   7.050  1.00  0.00     0.166 HD
HETATM   12  C   UNL     1      43.656 -17.529   5.044  1.00  0.00     0.044 A 
HETATM   13  C   UNL     1      43.096 -16.371   4.504  1.00  0.00     0.009 A 
HETATM   14  C   UNL     1      44.044 -18.622   4.259  1.00  0.00     0.030 A 
HETATM   15  C   UNL     1      42.933 -16.297   3.103  1.00  0.00     0.015 A 
HETATM   16  C   UNL     1      43.317 -17.380   2.304  1.00  0.00     0.001 A 
HETATM   17  C   UNL     1      43.860 -18.526   2.877  1.00  0.00     0.002 A 
ENDBRANCH   6   7
ENDBRANCH   5   6
ENDBRANCH   1   5
BRANCH   2  18
HETATM   18  N   UNL     1      42.370 -10.324   8.127  1.00  0.00    -0.249 N 
HETATM   19  C   UNL     1      41.784  -9.089   8.071  1.00  0.00     0.339 C 
HETATM   20  N   UNL     1      41.475  -8.480   9.253  1.00  0.00    -0.308 N 
HETATM   21  O   UNL     1      41.491  -8.547   7.004  1.00  0.00    -0.245 OA
HETATM   22  H   UNL     1      40.873  -7.679   9.105  1.00  0.00     0.170 HD
HETATM   23  H   UNL     1      42.133 -10.909   8.926  1.00  0.00     0.192 HD
BRANCH  20  24
HETATM   24  C   UNL     1      41.802  -8.784  10.589  1.00  0.00     0.036 A 
HETATM   25  C   UNL     1      41.054  -9.627  11.416  1.00  0.00     0.029 A 
HETATM   26  C   UNL     1      41.437  -9.842  12.744  1.00  0.00     0.002 A 
HETATM   27  C   UNL     1      42.582  -9.236  13.251  1.00  0.00     0.000 A 
HETATM   28  C   UNL     1      43.360  -8.431  12.424  1.00  0.00     0.002 A 
HETATM   29  C   UNL     1      42.977  -8.216  11.097  1.00  0.00     0.029 A 
ENDBRANCH  20  24
ENDBRANCH   2  18
TORSDOF 5
ENDMDL
MODEL 6
REMARK VINA RESULT:      -7.9      4.945      8.565
REMARK  5 active torsions:
REMARK  status: ('A' for Active; 'I' for Inactive)
REMARK    1  A    between atoms: C_7  and  S_8 
REMARK    2  A    between atoms: S_8  and  C_9 
REMARK    3  A    between atoms: C_9  and  C_10 
REMARK       I    between atoms: C_10  and  N_11 
REMARK    4  A    between atoms: N_11  and  N_12 
REMARK       I    between atoms: N_12  and  C_13 
REMARK       I    between atoms: C_13  and  N_14 
REMARK    5  A    between atoms: N_14  and  C_15 
ROOT
HETATM    1  C   UNL     1      42.657 -13.625   3.359  1.00  0.00     0.245 C 
HETATM    2  N   UNL     1      42.283 -14.499   4.354  1.00  0.00    -0.265 N 
HETATM    3  O   UNL     1      43.526 -13.925   2.534  1.00  0.00    -0.271 OA
HETATM    4  H   UNL     1      41.516 -14.328   5.004  1.00  0.00     0.190 HD
ENDROOT
BRANCH   1   5
HETATM    5  C   UNL     1      41.872 -12.336   3.241  1.00  0.00     0.184 C 
BRANCH   5   6
HETATM    6  S   UNL     1      40.094 -12.587   2.977  1.00  0.00    -0.118 SA
BRANCH   6   7
HETATM    7  C   UNL     1      40.154 -13.342   1.397  1.00  0.00     0.035 A 
HETATM    8  C   UNL     1      39.990 -14.689   1.148  1.00  0.00     0.023 A 
HETATM    9  C   UNL     1      39.766 -15.839   2.061  1.00  0.00     0.069 C 
HETATM   10  N   UNL     1      40.062 -14.855  -0.214  1.00  0.00    -0.358 N 
HETATM   11  H   UNL     1      39.972 -15.737  -0.698  1.00  0.00     0.166 HD
HETATM   12  C   UNL     1      40.268 -13.647  -0.842  1.00  0.00     0.044 A 
HETATM   13  C   UNL     1      40.351 -12.672   0.154  1.00  0.00     0.009 A 
HETATM   14  C   UNL     1      40.387 -13.351  -2.205  1.00  0.00     0.030 A 
HETATM   15  C   UNL     1      40.584 -11.336  -0.237  1.00  0.00     0.015 A 
HETATM   16  C   UNL     1      40.706 -11.022  -1.596  1.00  0.00     0.001 A 
HETATM   17  C   UNL     1      40.605 -12.018  -2.564  1.00  0.00     0.002 A 
ENDBRANCH   6   7
ENDBRANCH   5   6
ENDBRANCH   1   5
BRANCH   2  18
HETATM   18  N   UNL     1      42.877 -15.773   4.365  1.00  0.00    -0.249 N 
HETATM   19  C   UNL     1      43.706 -16.082   5.408  1.00  0.00     0.339 C 
HETATM   20  N   UNL     1      44.113 -17.379   5.530  1.00  0.00    -0.308 N 
HETATM   21  O   UNL     1      44.047 -15.249   6.248  1.00  0.00    -0.245 OA
HETATM   22  H   UNL     1      44.549 -17.542   6.430  1.00  0.00     0.170 HD
HETATM   23  H   UNL     1      42.253 -16.509   4.039  1.00  0.00     0.192 HD
BRANCH  20  24
HETATM   24  C   UNL     1      44.002 -18.492   4.673  1.00  0.00     0.036 A 
HETATM   25  C   UNL     1      43.896 -18.412   3.281  1.00  0.00     0.029 A 
HETATM   26  C   UNL     1      43.752 -19.571   2.512  1.00  0.00     0.002 A 
HETATM   27  C   UNL     1      43.736 -20.821   3.123  1.00  0.00     0.000 A 
HETATM   28  C   UNL     1      43.885 -20.916   4.504  1.00  0.00     0.002 A 
HETATM   29  C   UNL     1      44.029 -19.758   5.272  1.00  0.00     0.029 A 
ENDBRANCH  20  24
ENDBRANCH   2  18
TORSDOF 5
ENDMDL
MODEL 7
REMARK VINA RESULT:      -7.8      5.541      9.219
REMARK  5 active torsions:
REMARK  status: ('A' for Active; 'I' for Inactive)
REMARK    1  A    between atoms: C_7  and  S_8 
REMARK    2  A    between atoms: S_8  and  C_9 
REMARK    3  A    between atoms: C_9  and  C_10 
REMARK       I    between atoms: C_10  and  N_11 
REMARK    4  A    between atoms: N_11  and  N_12 
REMARK       I    between atoms: N_12  and  C_13 
REMARK       I    between atoms: C_13  and  N_14 
REMARK    5  A    between atoms: N_14  and  C_15 
ROOT
HETATM    1  C   UNL     1      40.661 -14.766   2.832  1.00  0.00     0.245 C 
HETATM    2  N   UNL     1      41.848 -14.693   3.524  1.00  0.00    -0.265 N 
HETATM    3  O   UNL     1      40.241 -15.840   2.389  1.00  0.00    -0.271 OA
HETATM    4  H   UNL     1      42.193 -13.846   3.977  1.00  0.00     0.190 HD
ENDROOT
BRANCH   1   5
HETATM    5  C   UNL     1      39.831 -13.503   2.748  1.00  0.00     0.184 C 
BRANCH   5   6
HETATM    6  S   UNL     1      40.490 -12.275   1.584  1.00  0.00    -0.118 SA
BRANCH   6   7
HETATM    7  C   UNL     1      39.182 -12.274   0.417  1.00  0.00     0.035 A 
HETATM    8  C   UNL     1      38.051 -11.488   0.486  1.00  0.00     0.023 A 
HETATM    9  C   UNL     1      37.597 -10.501   1.499  1.00  0.00     0.069 C 
HETATM   10  N   UNL     1      37.309 -11.757  -0.639  1.00  0.00    -0.358 N 
HETATM   11  H   UNL     1      36.424 -11.326  -0.869  1.00  0.00     0.166 HD
HETATM   12  C   UNL     1      37.938 -12.697  -1.424  1.00  0.00     0.044 A 
HETATM   13  C   UNL     1      39.117 -13.059  -0.771  1.00  0.00     0.009 A 
HETATM   14  C   UNL     1      37.551 -13.248  -2.652  1.00  0.00     0.030 A 
HETATM   15  C   UNL     1      39.940 -14.036  -1.371  1.00  0.00     0.015 A 
HETATM   16  C   UNL     1      39.567 -14.598  -2.598  1.00  0.00     0.001 A 
HETATM   17  C   UNL     1      38.391 -14.204  -3.228  1.00  0.00     0.002 A 
ENDBRANCH   6   7
ENDBRANCH   5   6
ENDBRANCH   1   5
BRANCH   2  18
HETATM   18  N   UNL     1      42.541 -15.892   3.767  1.00  0.00    -0.249 N 
HETATM   19  C   UNL     1      43.331 -15.960   4.881  1.00  0.00     0.339 C 
HETATM   20  N   UNL     1      43.832 -17.180   5.229  1.00  0.00    -0.308 N 
HETATM   21  O   UNL     1      43.555 -14.977   5.590  1.00  0.00    -0.245 OA
HETATM   22  H   UNL     1      44.228 -17.161   6.161  1.00  0.00     0.170 HD
HETATM   23  H   UNL     1      41.997 -16.722   3.538  1.00  0.00     0.192 HD
BRANCH  20  24
HETATM   24  C   UNL     1      43.859 -18.419   4.559  1.00  0.00     0.036 A 
HETATM   25  C   UNL     1      43.817 -18.569   3.169  1.00  0.00     0.029 A 
HETATM   26  C   UNL     1      43.811 -19.843   2.592  1.00  0.00     0.002 A 
HETATM   27  C   UNL     1      43.871 -20.977   3.395  1.00  0.00     0.000 A 
HETATM   28  C   UNL     1      43.959 -20.840   4.778  1.00  0.00     0.002 A 
HETATM   29  C   UNL     1      43.965 -19.567   5.354  1.00  0.00     0.029 A 
ENDBRANCH  20  24
ENDBRANCH   2  18
TORSDOF 5
ENDMDL
MODEL 8
REMARK VINA RESULT:      -7.7      1.824      2.226
REMARK  5 active torsions:
REMARK  status: ('A' for Active; 'I' for Inactive)
REMARK    1  A    between atoms: C_7  and  S_8 
REMARK    2  A    between atoms: S_8  and  C_9 
REMARK    3  A    between atoms: C_9  and  C_10 
REMARK       I    between atoms: C_10  and  N_11 
REMARK    4  A    between atoms: N_11  and  N_12 
REMARK       I    between atoms: N_12  and  C_13 
REMARK       I    between atoms: C_13  and  N_14 
REMARK    5  A    between atoms: N_14  and  C_15 
ROOT
HETATM    1  C   UNL     1      42.882 -10.877   5.148  1.00  0.00     0.245 C 
HETATM    2  N   UNL     1      43.741 -11.583   5.960  1.00  0.00    -0.265 N 
HETATM    3  O   UNL     1      42.280  -9.882   5.564  1.00  0.00    -0.271 OA
HETATM    4  H   UNL     1      44.320 -12.359   5.637  1.00  0.00     0.190 HD
ENDROOT
BRANCH   1   5
HETATM    5  C   UNL     1      42.805 -11.293   3.695  1.00  0.00     0.184 C 
BRANCH   5   6
HETATM    6  S   UNL     1      41.206 -12.015   3.227  1.00  0.00    -0.118 SA
BRANCH   6   7
HETATM    7  C   UNL     1      41.465 -13.651   3.801  1.00  0.00     0.035 A 
HETATM    8  C   UNL     1      41.009 -14.159   4.999  1.00  0.00     0.023 A 
HETATM    9  C   UNL     1      40.249 -13.530   6.110  1.00  0.00     0.069 C 
HETATM   10  N   UNL     1      41.383 -15.480   5.042  1.00  0.00    -0.358 N 
HETATM   11  H   UNL     1      41.184 -16.118   5.800  1.00  0.00     0.166 HD
HETATM   12  C   UNL     1      42.068 -15.829   3.899  1.00  0.00     0.044 A 
HETATM   13  C   UNL     1      42.154 -14.686   3.103  1.00  0.00     0.009 A 
HETATM   14  C   UNL     1      42.613 -17.061   3.519  1.00  0.00     0.030 A 
HETATM   15  C   UNL     1      42.837 -14.779   1.871  1.00  0.00     0.015 A 
HETATM   16  C   UNL     1      43.389 -16.003   1.476  1.00  0.00     0.001 A 
HETATM   17  C   UNL     1      43.273 -17.127   2.289  1.00  0.00     0.002 A 
ENDBRANCH   6   7
ENDBRANCH   5   6
ENDBRANCH   1   5
BRANCH   2  18
HETATM   18  N   UNL     1      43.961 -11.100   7.260  1.00  0.00    -0.249 N 
HETATM   19  C   UNL     1      45.251 -10.862   7.645  1.00  0.00     0.339 C 
HETATM   20  N   UNL     1      45.451 -10.199   8.821  1.00  0.00    -0.308 N 
HETATM   21  O   UNL     1      46.216 -11.180   6.947  1.00  0.00    -0.245 OA
HETATM   22  H   UNL     1      46.414  -9.899   8.913  1.00  0.00     0.170 HD
HETATM   23  H   UNL     1      43.260 -10.425   7.561  1.00  0.00     0.192 HD
BRANCH  20  24
HETATM   24  C   UNL     1      44.576  -9.842   9.867  1.00  0.00     0.036 A 
HETATM   25  C   UNL     1      44.179 -10.702  10.895  1.00  0.00     0.029 A 
HETATM   26  C   UNL     1      43.276 -10.271  11.872  1.00  0.00     0.002 A 
HETATM   27  C   UNL     1      42.782  -8.971  11.846  1.00  0.00     0.000 A 
HETATM   28  C   UNL     1      43.205  -8.092  10.853  1.00  0.00     0.002 A 
HETATM   29  C   UNL     1      44.106  -8.523   9.876  1.00  0.00     0.029 A 
ENDBRANCH  20  24
ENDBRANCH   2  18
TORSDOF 5
ENDMDL
MODEL 9
REMARK VINA RESULT:      -7.5      6.483      8.927
REMARK  5 active torsions:
REMARK  status: ('A' for Active; 'I' for Inactive)
REMARK    1  A    between atoms: C_7  and  S_8 
REMARK    2  A    between atoms: S_8  and  C_9 
REMARK    3  A    between atoms: C_9  and  C_10 
REMARK       I    between atoms: C_10  and  N_11 
REMARK    4  A    between atoms: N_11  and  N_12 
REMARK       I    between atoms: N_12  and  C_13 
REMARK       I    between atoms: C_13  and  N_14 
REMARK    5  A    between atoms: N_14  and  C_15 
ROOT
HETATM    1  C   UNL     1      40.910 -13.382   0.833  1.00  0.00     0.245 C 
HETATM    2  N   UNL     1      41.184 -13.303  -0.513  1.00  0.00    -0.265 N 
HETATM    3  O   UNL     1      39.952 -12.782   1.330  1.00  0.00    -0.271 OA
HETATM    4  H   UNL     1      41.913 -13.844  -0.979  1.00  0.00     0.190 HD
ENDROOT
BRANCH   1   5
HETATM    5  C   UNL     1      41.752 -14.335   1.655  1.00  0.00     0.184 C 
BRANCH   5   6
HETATM    6  S   UNL     1      40.988 -14.809   3.232  1.00  0.00    -0.118 SA
BRANCH   6   7
HETATM    7  C   UNL     1      42.304 -15.752   3.903  1.00  0.00     0.035 A 
HETATM    8  C   UNL     1      43.058 -15.402   5.004  1.00  0.00     0.023 A 
HETATM    9  C   UNL     1      43.024 -14.202   5.879  1.00  0.00     0.069 C 
HETATM   10  N   UNL     1      43.946 -16.427   5.223  1.00  0.00    -0.358 N 
HETATM   11  H   UNL     1      44.628 -16.457   5.967  1.00  0.00     0.166 HD
HETATM   12  C   UNL     1      43.779 -17.424   4.288  1.00  0.00     0.044 A 
HETATM   13  C   UNL     1      42.760 -17.015   3.425  1.00  0.00     0.009 A 
HETATM   14  C   UNL     1      44.450 -18.644   4.144  1.00  0.00     0.030 A 
HETATM   15  C   UNL     1      42.410 -17.866   2.354  1.00  0.00     0.015 A 
HETATM   16  C   UNL     1      43.072 -19.089   2.196  1.00  0.00     0.001 A 
HETATM   17  C   UNL     1      44.075 -19.471   3.083  1.00  0.00     0.002 A 
ENDBRANCH   6   7
ENDBRANCH   5   6
ENDBRANCH   1   5
BRANCH   2  18
HETATM   18  N   UNL     1      40.301 -12.566  -1.319  1.00  0.00    -0.249 N 
HETATM   19  C   UNL     1      40.014 -13.053  -2.565  1.00  0.00     0.339 C 
HETATM   20  N   UNL     1      39.003 -12.456  -3.262  1.00  0.00    -0.308 N 
HETATM   21  O   UNL     1      40.599 -14.027  -3.042  1.00  0.00    -0.245 OA
HETATM   22  H   UNL     1      38.740 -13.008  -4.069  1.00  0.00     0.170 HD
HETATM   23  H   UNL     1      39.529 -12.155  -0.797  1.00  0.00     0.192 HD
BRANCH  20  24
HETATM   24  C   UNL     1      38.269 -11.274  -3.039  1.00  0.00     0.036 A 
HETATM   25  C   UNL     1      38.736  -9.987  -3.321  1.00  0.00     0.029 A 
HETATM   26  C   UNL     1      37.949  -8.867  -3.032  1.00  0.00     0.002 A 
HETATM   27  C   UNL     1      36.680  -9.024  -2.482  1.00  0.00     0.000 A 
HETATM   28  C   UNL     1      36.187 -10.303  -2.239  1.00  0.00     0.002 A 
HETATM   29  C   UNL     1      36.974 -11.421  -2.528  1.00  0.00     0.029 A 
ENDBRANCH  20  24
ENDBRANCH   2  18
TORSDOF 5
ENDMDL
MODEL 10
REMARK VINA RESULT:      -7.3      1.918      2.870
REMARK  5 active torsions:
REMARK  status: ('A' for Active; 'I' for Inactive)
REMARK    1  A    between atoms: C_7  and  S_8 
REMARK    2  A    between atoms: S_8  and  C_9 
REMARK    3  A    between atoms: C_9  and  C_10 
REMARK       I    between atoms: C_10  and  N_11 
REMARK    4  A    between atoms: N_11  and  N_12 
REMARK       I    between atoms: N_12  and  C_13 
REMARK       I    between atoms: C_13  and  N_14 
REMARK    5  A    between atoms: N_14  and  C_15 
ROOT
HETATM    1  C   UNL     1      40.803 -12.336   5.989  1.00  0.00     0.245 C 
HETATM    2  N   UNL     1      42.162 -12.334   6.206  1.00  0.00    -0.265 N 
HETATM    3  O   UNL     1      40.046 -11.621   6.654  1.00  0.00    -0.271 OA
HETATM    4  H   UNL     1      42.831 -12.844   5.630  1.00  0.00     0.190 HD
ENDROOT
BRANCH   1   5
HETATM    5  C   UNL     1      40.290 -13.151   4.821  1.00  0.00     0.184 C 
BRANCH   5   6
HETATM    6  S   UNL     1      41.373 -13.099   3.365  1.00  0.00    -0.118 SA
BRANCH   6   7
HETATM    7  C   UNL     1      41.679 -14.816   3.189  1.00  0.00     0.035 A 
HETATM    8  C   UNL     1      41.117 -15.633   2.231  1.00  0.00     0.023 A 
HETATM    9  C   UNL     1      40.130 -15.356   1.156  1.00  0.00     0.069 C 
HETATM   10  N   UNL     1      41.652 -16.886   2.410  1.00  0.00    -0.358 N 
HETATM   11  H   UNL     1      41.433 -17.698   1.851  1.00  0.00     0.166 HD
HETATM   12  C   UNL     1      42.543 -16.889   3.460  1.00  0.00     0.044 A 
HETATM   13  C   UNL     1      42.566 -15.596   3.987  1.00  0.00     0.009 A 
HETATM   14  C   UNL     1      43.321 -17.932   3.976  1.00  0.00     0.030 A 
HETATM   15  C   UNL     1      43.397 -15.342   5.099  1.00  0.00     0.015 A 
HETATM   16  C   UNL     1      44.181 -16.375   5.629  1.00  0.00     0.001 A 
HETATM   17  C   UNL     1      44.143 -17.650   5.070  1.00  0.00     0.002 A 
ENDBRANCH   6   7
ENDBRANCH   5   6
ENDBRANCH   1   5
BRANCH   2  18
HETATM   18  N   UNL     1      42.671 -11.445   7.168  1.00  0.00    -0.249 N 
HETATM   19  C   UNL     1      43.951 -11.643   7.607  1.00  0.00     0.339 C 
HETATM   20  N   UNL     1      44.515 -10.666   8.375  1.00  0.00    -0.308 N 
HETATM   21  O   UNL     1      44.610 -12.635   7.292  1.00  0.00    -0.245 OA
HETATM   22  H   UNL     1      45.513 -10.812   8.477  1.00  0.00     0.170 HD
HETATM   23  H   UNL     1      42.381 -10.480   7.015  1.00  0.00     0.192 HD
BRANCH  20  24
HETATM   24  C   UNL     1      43.980  -9.518   8.992  1.00  0.00     0.036 A 
HETATM   25  C   UNL     1      44.043  -8.228   8.457  1.00  0.00     0.029 A 
HETATM   26  C   UNL     1      43.514  -7.141   9.159  1.00  0.00     0.002 A 
HETATM   27  C   UNL     1      42.897  -7.335  10.391  1.00  0.00     0.000 A 
HETATM   28  C   UNL     1      42.788  -8.620  10.914  1.00  0.00     0.002 A 
HETATM   29  C   UNL     1      43.316  -9.706  10.211  1.00  0.00     0.029 A 
ENDBRANCH  20  24
ENDBRANCH   2  18
TORSDOF 5
ENDMDL
