MODEL 1
REMARK VINA RESULT:     -10.0      0.000      0.000
REMARK  7 active torsions:
REMARK  status: ('A' for Active; 'I' for Inactive)
REMARK    1  A    between atoms: C_3  and  N_4 
REMARK    2  A    between atoms: N_7  and  C_9 
REMARK    3  A    between atoms: C_9  and  C_10 
REMARK    4  A    between atoms: C_10  and  C_11 
REMARK    5  A    between atoms: C_11  and  N_12 
REMARK       I    between atoms: N_12  and  C_13 
REMARK    6  A    between atoms: C_13  and  C_14 
REMARK    7  A    between atoms: C_14  and  N_15 
ROOT
HETATM    1  N   UNL     1      43.445 -11.059   6.897  1.00  0.00    -0.360 N 
HETATM    2  C   UNL     1      44.816 -11.055   7.058  1.00  0.00     0.237 C 
HETATM    3  O   UNL     1      45.512 -11.978   6.632  1.00  0.00    -0.272 OA
HETATM    4  H   UNL     1      42.939 -10.261   7.280  1.00  0.00     0.162 HD
ENDROOT
BRANCH   1   5
HETATM    5  C   UNL     1      42.796 -12.001   6.019  1.00  0.00     0.124 C 
BRANCH   5   6
HETATM    6  C   UNL     1      42.756 -11.508   4.570  1.00  0.00     0.047 C 
BRANCH   6   7
HETATM    7  C   UNL     1      41.491 -12.001   3.883  1.00  0.00     0.236 C 
BRANCH   7   8
HETATM    8  N   UNL     1      41.642 -13.415   3.350  1.00  0.00    -0.068 N 
HETATM    9  C   UNL     1      43.099 -13.789   3.039  1.00  0.00     0.254 C 
HETATM   10  C   UNL     1      43.244 -15.280   2.666  1.00  0.00     0.150 C 
HETATM   11  N   UNL     1      42.668 -16.099   3.748  1.00  0.00    -0.377 N 
HETATM   12  C   UNL     1      41.225 -15.874   3.927  1.00  0.00     0.150 C 
HETATM   13  C   UNL     1      40.998 -14.406   4.342  1.00  0.00     0.254 C 
HETATM   14  H   UNL     1      41.113 -13.484   2.470  1.00  0.00     0.280 HD
BRANCH  11  15
HETATM   15  C   UNL     1      43.146 -17.417   3.785  1.00  0.00     0.037 A 
HETATM   16  C   UNL     1      43.663 -17.950   4.993  1.00  0.00    -0.035 A 
HETATM   17  C   UNL     1      43.709 -17.155   6.272  1.00  0.00     0.050 C 
HETATM   18  C   UNL     1      44.162 -19.265   5.027  1.00  0.00     0.011 A 
HETATM   19  C   UNL     1      44.121 -20.073   3.894  1.00  0.00     0.024 A 
HETATM   20  C   UNL     1      43.593 -19.564   2.716  1.00  0.00     0.036 A 
HETATM   21  C   UNL     1      43.114 -18.252   2.657  1.00  0.00     0.053 A 
HETATM   22 CL   UNL     1      43.528 -20.556   1.312  1.00  0.00    -0.084 Cl
ENDBRANCH  11  15
ENDBRANCH   7   8
ENDBRANCH   6   7
ENDBRANCH   5   6
ENDBRANCH   1   5
BRANCH   2  23
HETATM   23  C   UNL     1      45.381  -9.933   7.925  1.00  0.00     0.257 C 
BRANCH  23  24
HETATM   24  N   UNL     1      44.568  -9.656   9.105  1.00  0.00    -0.224 N 
HETATM   25  N   UNL     1      44.358 -10.729   9.992  1.00  0.00    -0.180 NA
HETATM   26  C   UNL     1      43.777 -10.508  11.141  1.00  0.00     0.153 A 
HETATM   27  C   UNL     1      43.323  -9.194  11.496  1.00  0.00     0.028 A 
HETATM   28  C   UNL     1      43.487  -8.171  10.598  1.00  0.00     0.116 A 
HETATM   29  C   UNL     1      42.709  -8.663  12.660  1.00  0.00     0.005 A 
HETATM   30  N   UNL     1      42.980  -7.029  11.149  1.00  0.00    -0.350 N 
HETATM   31  C   UNL     1      44.123  -8.337   9.326  1.00  0.00     0.291 A 
HETATM   32  H   UNL     1      42.982  -6.118  10.707  1.00  0.00     0.166 HD
HETATM   33  C   UNL     1      42.503  -7.300  12.415  1.00  0.00     0.044 A 
HETATM   34  C   UNL     1      41.920  -6.445  13.357  1.00  0.00     0.030 A 
HETATM   35  C   UNL     1      41.542  -6.996  14.586  1.00  0.00     0.002 A 
HETATM   36  C   UNL     1      41.736  -8.348  14.858  1.00  0.00     0.001 A 
HETATM   37  C   UNL     1      42.315  -9.193  13.905  1.00  0.00     0.014 A 
HETATM   38  O   UNL     1      44.256  -7.425   8.517  1.00  0.00    -0.264 OA
ENDBRANCH  23  24
ENDBRANCH   2  23
TORSDOF 7
ENDMDL
MODEL 2
REMARK VINA RESULT:      -9.9      3.720     11.198
REMARK  7 active torsions:
REMARK  status: ('A' for Active; 'I' for Inactive)
REMARK    1  A    between atoms: C_3  and  N_4 
REMARK    2  A    between atoms: N_7  and  C_9 
REMARK    3  A    between atoms: C_9  and  C_10 
REMARK    4  A    between atoms: C_10  and  C_11 
REMARK    5  A    between atoms: C_11  and  N_12 
REMARK       I    between atoms: N_12  and  C_13 
REMARK    6  A    between atoms: C_13  and  C_14 
REMARK    7  A    between atoms: C_14  and  N_15 
ROOT
HETATM    1  N   UNL     1      44.433 -11.913   6.016  1.00  0.00    -0.360 N 
HETATM    2  C   UNL     1      43.762 -11.957   4.811  1.00  0.00     0.237 C 
HETATM    3  O   UNL     1      44.014 -11.155   3.910  1.00  0.00    -0.272 OA
HETATM    4  H   UNL     1      44.166 -12.609   6.712  1.00  0.00     0.162 HD
ENDROOT
BRANCH   1   5
HETATM    5  C   UNL     1      45.614 -11.104   6.188  1.00  0.00     0.124 C 
BRANCH   5   6
HETATM    6  C   UNL     1      45.975 -10.913   7.663  1.00  0.00     0.047 C 
BRANCH   6   7
HETATM    7  C   UNL     1      46.330  -9.457   7.932  1.00  0.00     0.236 C 
BRANCH   7   8
HETATM    8  N   UNL     1      45.534  -8.878   9.089  1.00  0.00    -0.068 N 
HETATM    9  C   UNL     1      44.271  -8.131   8.637  1.00  0.00     0.254 C 
HETATM   10  C   UNL     1      43.394  -7.704   9.833  1.00  0.00     0.150 C 
HETATM   11  N   UNL     1      43.085  -8.896  10.645  1.00  0.00    -0.377 N 
HETATM   12  C   UNL     1      44.285  -9.511  11.233  1.00  0.00     0.150 C 
HETATM   13  C   UNL     1      45.202 -10.002  10.093  1.00  0.00     0.254 C 
HETATM   14  H   UNL     1      46.131  -8.201   9.582  1.00  0.00     0.280 HD
BRANCH  11  15
HETATM   15  C   UNL     1      41.944  -8.761  11.449  1.00  0.00     0.037 A 
HETATM   16  C   UNL     1      40.654  -8.882  10.874  1.00  0.00    -0.035 A 
HETATM   17  C   UNL     1      40.446  -9.170   9.410  1.00  0.00     0.050 C 
HETATM   18  C   UNL     1      39.508  -8.727  11.676  1.00  0.00     0.011 A 
HETATM   19  C   UNL     1      39.620  -8.493  13.043  1.00  0.00     0.024 A 
HETATM   20  C   UNL     1      40.881  -8.400  13.615  1.00  0.00     0.036 A 
HETATM   21  C   UNL     1      42.031  -8.527  12.830  1.00  0.00     0.053 A 
HETATM   22 CL   UNL     1      41.032  -8.120  15.306  1.00  0.00    -0.084 Cl
ENDBRANCH  11  15
ENDBRANCH   7   8
ENDBRANCH   6   7
ENDBRANCH   5   6
ENDBRANCH   1   5
BRANCH   2  23
HETATM   23  C   UNL     1      42.598 -12.941   4.732  1.00  0.00     0.257 C 
BRANCH  23  24
HETATM   24  N   UNL     1      43.030 -14.333   4.641  1.00  0.00    -0.224 N 
HETATM   25  N   UNL     1      43.413 -14.955   5.844  1.00  0.00    -0.180 NA
HETATM   26  C   UNL     1      43.654 -16.238   5.855  1.00  0.00     0.153 A 
HETATM   27  C   UNL     1      43.566 -17.015   4.652  1.00  0.00     0.028 A 
HETATM   28  C   UNL     1      43.243 -16.383   3.478  1.00  0.00     0.116 A 
HETATM   29  C   UNL     1      43.731 -18.397   4.377  1.00  0.00     0.005 A 
HETATM   30  N   UNL     1      43.223 -17.315   2.480  1.00  0.00    -0.350 N 
HETATM   31  C   UNL     1      42.956 -14.983   3.392  1.00  0.00     0.291 A 
HETATM   32  H   UNL     1      43.000 -17.125   1.510  1.00  0.00     0.166 HD
HETATM   33  C   UNL     1      43.511 -18.559   3.004  1.00  0.00     0.044 A 
HETATM   34  C   UNL     1      43.582 -19.805   2.371  1.00  0.00     0.030 A 
HETATM   35  C   UNL     1      43.879 -20.919   3.164  1.00  0.00     0.002 A 
HETATM   36  C   UNL     1      44.101 -20.788   4.532  1.00  0.00     0.001 A 
HETATM   37  C   UNL     1      44.033 -19.534   5.152  1.00  0.00     0.014 A 
HETATM   38  O   UNL     1      42.682 -14.416   2.340  1.00  0.00    -0.264 OA
ENDBRANCH  23  24
ENDBRANCH   2  23
TORSDOF 7
ENDMDL
MODEL 3
REMARK VINA RESULT:      -9.7      3.518     11.515
REMARK  7 active torsions:
REMARK  status: ('A' for Active; 'I' for Inactive)
REMARK    1  A    between atoms: C_3  and  N_4 
REMARK    2  A    between atoms: N_7  and  C_9 
REMARK    3  A    between atoms: C_9  and  C_10 
REMARK    4  A    between atoms: C_10  and  C_11 
REMARK    5  A    between atoms: C_11  and  N_12 
REMARK       I    between atoms: N_12  and  C_13 
REMARK    6  A    between atoms: C_13  and  C_14 
REMARK    7  A    between atoms: C_14  and  N_15 
ROOT
HETATM    1  N   UNL     1      44.389 -11.481   6.932  1.00  0.00    -0.360 N 
HETATM    2  C   UNL     1      43.924 -11.678   5.647  1.00  0.00     0.237 C 
HETATM    3  O   UNL     1      44.535 -11.238   4.672  1.00  0.00    -0.272 OA
HETATM    4  H   UNL     1      43.826 -11.873   7.686  1.00  0.00     0.162 HD
ENDROOT
BRANCH   1   5
HETATM    5  C   UNL     1      45.719 -10.980   7.179  1.00  0.00     0.124 C 
BRANCH   5   6
HETATM    6  C   UNL     1      45.725  -9.833   8.193  1.00  0.00     0.047 C 
BRANCH   6   7
HETATM    7  C   UNL     1      45.360 -10.353   9.575  1.00  0.00     0.236 C 
BRANCH   7   8
HETATM    8  N   UNL     1      43.958  -9.942   9.990  1.00  0.00    -0.068 N 
HETATM    9  C   UNL     1      43.574 -10.440  11.392  1.00  0.00     0.254 C 
HETATM   10  C   UNL     1      42.219  -9.866  11.857  1.00  0.00     0.150 C 
HETATM   11  N   UNL     1      42.274  -8.395  11.776  1.00  0.00    -0.377 N 
HETATM   12  C   UNL     1      42.459  -7.907  10.400  1.00  0.00     0.150 C 
HETATM   13  C   UNL     1      43.819  -8.410   9.873  1.00  0.00     0.254 C 
HETATM   14  H   UNL     1      43.292 -10.356   9.325  1.00  0.00     0.280 HD
BRANCH  11  15
HETATM   15  C   UNL     1      41.341  -7.741  12.594  1.00  0.00     0.037 A 
HETATM   16  C   UNL     1      41.761  -7.138  13.806  1.00  0.00    -0.035 A 
HETATM   17  C   UNL     1      43.197  -7.154  14.260  1.00  0.00     0.050 C 
HETATM   18  C   UNL     1      40.823  -6.500  14.639  1.00  0.00     0.011 A 
HETATM   19  C   UNL     1      39.483  -6.415  14.270  1.00  0.00     0.024 A 
HETATM   20  C   UNL     1      39.072  -6.981  13.071  1.00  0.00     0.036 A 
HETATM   21  C   UNL     1      39.985  -7.640  12.243  1.00  0.00     0.053 A 
HETATM   22 CL   UNL     1      37.421  -6.875  12.600  1.00  0.00    -0.084 Cl
ENDBRANCH  11  15
ENDBRANCH   7   8
ENDBRANCH   6   7
ENDBRANCH   5   6
ENDBRANCH   1   5
BRANCH   2  23
HETATM   23  C   UNL     1      42.545 -12.321   5.530  1.00  0.00     0.257 C 
BRANCH  23  24
HETATM   24  N   UNL     1      42.594 -13.696   5.042  1.00  0.00    -0.224 N 
HETATM   25  N   UNL     1      42.265 -13.897   3.688  1.00  0.00    -0.180 NA
HETATM   26  C   UNL     1      42.444 -15.073   3.151  1.00  0.00     0.153 A 
HETATM   27  C   UNL     1      42.939 -16.172   3.931  1.00  0.00     0.028 A 
HETATM   28  C   UNL     1      43.203 -15.973   5.263  1.00  0.00     0.116 A 
HETATM   29  C   UNL     1      43.259 -17.518   3.616  1.00  0.00     0.005 A 
HETATM   30  N   UNL     1      43.654 -17.148   5.792  1.00  0.00    -0.350 N 
HETATM   31  C   UNL     1      43.040 -14.709   5.915  1.00  0.00     0.291 A 
HETATM   32  H   UNL     1      43.936 -17.283   6.755  1.00  0.00     0.166 HD
HETATM   33  C   UNL     1      43.706 -18.109   4.804  1.00  0.00     0.044 A 
HETATM   34  C   UNL     1      44.121 -19.445   4.871  1.00  0.00     0.030 A 
HETATM   35  C   UNL     1      44.085 -20.194   3.690  1.00  0.00     0.002 A 
HETATM   36  C   UNL     1      43.648 -19.631   2.494  1.00  0.00     0.001 A 
HETATM   37  C   UNL     1      43.230 -18.296   2.442  1.00  0.00     0.014 A 
HETATM   38  O   UNL     1      43.262 -14.535   7.109  1.00  0.00    -0.264 OA
ENDBRANCH  23  24
ENDBRANCH   2  23
TORSDOF 7
ENDMDL
MODEL 4
REMARK VINA RESULT:      -9.5      3.789     10.375
REMARK  7 active torsions:
REMARK  status: ('A' for Active; 'I' for Inactive)
REMARK    1  A    between atoms: C_3  and  N_4 
REMARK    2  A    between atoms: N_7  and  C_9 
REMARK    3  A    between atoms: C_9  and  C_10 
REMARK    4  A    between atoms: C_10  and  C_11 
REMARK    5  A    between atoms: C_11  and  N_12 
REMARK       I    between atoms: N_12  and  C_13 
REMARK    6  A    between atoms: C_13  and  C_14 
REMARK    7  A    between atoms: C_14  and  N_15 
ROOT
HETATM    1  N   UNL     1      42.002 -11.717   3.414  1.00  0.00    -0.360 N 
HETATM    2  C   UNL     1      43.228 -11.933   4.011  1.00  0.00     0.237 C 
HETATM    3  O   UNL     1      44.258 -11.436   3.554  1.00  0.00    -0.272 OA
HETATM    4  H   UNL     1      41.197 -12.166   3.850  1.00  0.00     0.162 HD
ENDROOT
BRANCH   1   5
HETATM    5  C   UNL     1      41.833 -10.713   2.393  1.00  0.00     0.124 C 
BRANCH   5   6
HETATM    6  C   UNL     1      40.992  -9.530   2.879  1.00  0.00     0.047 C 
BRANCH   6   7
HETATM    7  C   UNL     1      39.967 -10.000   3.902  1.00  0.00     0.236 C 
BRANCH   7   8
HETATM    8  N   UNL     1      40.209  -9.396   5.274  1.00  0.00    -0.068 N 
HETATM    9  C   UNL     1      40.115 -10.426   6.410  1.00  0.00     0.254 C 
HETATM   10  C   UNL     1      40.533  -9.825   7.768  1.00  0.00     0.150 C 
HETATM   11  N   UNL     1      41.885  -9.250   7.638  1.00  0.00    -0.377 N 
HETATM   12  C   UNL     1      41.939  -8.136   6.679  1.00  0.00     0.150 C 
HETATM   13  C   UNL     1      41.568  -8.666   5.279  1.00  0.00     0.254 C 
HETATM   14  H   UNL     1      39.485  -8.685   5.444  1.00  0.00     0.280 HD
BRANCH  11  15
HETATM   15  C   UNL     1      42.570  -9.116   8.854  1.00  0.00     0.037 A 
HETATM   16  C   UNL     1      43.712  -9.914   9.116  1.00  0.00    -0.035 A 
HETATM   17  C   UNL     1      44.246 -10.911   8.121  1.00  0.00     0.050 C 
HETATM   18  C   UNL     1      44.389  -9.795  10.344  1.00  0.00     0.011 A 
HETATM   19  C   UNL     1      43.976  -8.871  11.300  1.00  0.00     0.024 A 
HETATM   20  C   UNL     1      42.874  -8.070  11.038  1.00  0.00     0.036 A 
HETATM   21  C   UNL     1      42.175  -8.191   9.833  1.00  0.00     0.053 A 
HETATM   22 CL   UNL     1      42.359  -6.918  12.207  1.00  0.00    -0.084 Cl
ENDBRANCH  11  15
ENDBRANCH   7   8
ENDBRANCH   6   7
ENDBRANCH   5   6
ENDBRANCH   1   5
BRANCH   2  23
HETATM   23  C   UNL     1      43.241 -12.943   5.156  1.00  0.00     0.257 C 
BRANCH  23  24
HETATM   24  N   UNL     1      43.141 -14.327   4.701  1.00  0.00    -0.224 N 
HETATM   25  N   UNL     1      42.728 -14.524   3.369  1.00  0.00    -0.180 NA
HETATM   26  C   UNL     1      42.773 -15.724   2.855  1.00  0.00     0.153 A 
HETATM   27  C   UNL     1      43.205 -16.846   3.637  1.00  0.00     0.028 A 
HETATM   28  C   UNL     1      43.553 -16.644   4.949  1.00  0.00     0.116 A 
HETATM   29  C   UNL     1      43.387 -18.222   3.341  1.00  0.00     0.005 A 
HETATM   30  N   UNL     1      43.922 -17.844   5.486  1.00  0.00    -0.350 N 
HETATM   31  C   UNL     1      43.538 -15.358   5.577  1.00  0.00     0.291 A 
HETATM   32  H   UNL     1      44.238 -17.984   6.438  1.00  0.00     0.166 HD
HETATM   33  C   UNL     1      43.837 -18.827   4.521  1.00  0.00     0.044 A 
HETATM   34  C   UNL     1      44.133 -20.193   4.601  1.00  0.00     0.030 A 
HETATM   35  C   UNL     1      43.971 -20.961   3.443  1.00  0.00     0.002 A 
HETATM   36  C   UNL     1      43.526 -20.385   2.255  1.00  0.00     0.001 A 
HETATM   37  C   UNL     1      43.228 -19.019   2.190  1.00  0.00     0.014 A 
HETATM   38  O   UNL     1      43.834 -15.180   6.753  1.00  0.00    -0.264 OA
ENDBRANCH  23  24
ENDBRANCH   2  23
TORSDOF 7
ENDMDL
MODEL 5
REMARK VINA RESULT:      -9.4      1.480      2.364
REMARK  7 active torsions:
REMARK  status: ('A' for Active; 'I' for Inactive)
REMARK    1  A    between atoms: C_3  and  N_4 
REMARK    2  A    between atoms: N_7  and  C_9 
REMARK    3  A    between atoms: C_9  and  C_10 
REMARK    4  A    between atoms: C_10  and  C_11 
REMARK    5  A    between atoms: C_11  and  N_12 
REMARK       I    between atoms: N_12  and  C_13 
REMARK    6  A    between atoms: C_13  and  C_14 
REMARK    7  A    between atoms: C_14  and  N_15 
ROOT
HETATM    1  N   UNL     1      40.933 -11.417   5.428  1.00  0.00    -0.360 N 
HETATM    2  C   UNL     1      42.081 -11.986   5.940  1.00  0.00     0.237 C 
HETATM    3  O   UNL     1      42.077 -13.128   6.401  1.00  0.00    -0.272 OA
HETATM    4  H   UNL     1      41.016 -10.467   5.067  1.00  0.00     0.162 HD
ENDROOT
BRANCH   1   5
HETATM    5  C   UNL     1      39.752 -12.206   5.179  1.00  0.00     0.124 C 
BRANCH   5   6
HETATM    6  C   UNL     1      39.340 -12.182   3.705  1.00  0.00     0.047 C 
BRANCH   6   7
HETATM    7  C   UNL     1      40.563 -11.989   2.821  1.00  0.00     0.236 C 
BRANCH   7   8
HETATM    8  N   UNL     1      41.172 -13.310   2.386  1.00  0.00    -0.068 N 
HETATM    9  C   UNL     1      42.656 -13.442   2.760  1.00  0.00     0.254 C 
HETATM   10  C   UNL     1      43.202 -14.855   2.465  1.00  0.00     0.150 C 
HETATM   11  N   UNL     1      42.356 -15.845   3.155  1.00  0.00    -0.377 N 
HETATM   12  C   UNL     1      40.968 -15.847   2.667  1.00  0.00     0.150 C 
HETATM   13  C   UNL     1      40.336 -14.472   2.962  1.00  0.00     0.254 C 
HETATM   14  H   UNL     1      41.108 -13.372   1.362  1.00  0.00     0.280 HD
BRANCH  11  15
HETATM   15  C   UNL     1      42.985 -17.079   3.379  1.00  0.00     0.037 A 
HETATM   16  C   UNL     1      43.643 -17.326   4.610  1.00  0.00    -0.035 A 
HETATM   17  C   UNL     1      43.687 -16.309   5.720  1.00  0.00     0.050 C 
HETATM   18  C   UNL     1      44.293 -18.555   4.828  1.00  0.00     0.011 A 
HETATM   19  C   UNL     1      44.266 -19.557   3.862  1.00  0.00     0.024 A 
HETATM   20  C   UNL     1      43.601 -19.330   2.666  1.00  0.00     0.036 A 
HETATM   21  C   UNL     1      42.971 -18.106   2.422  1.00  0.00     0.053 A 
HETATM   22 CL   UNL     1      43.553 -20.564   1.468  1.00  0.00    -0.084 Cl
ENDBRANCH  11  15
ENDBRANCH   7   8
ENDBRANCH   6   7
ENDBRANCH   5   6
ENDBRANCH   1   5
BRANCH   2  23
HETATM   23  C   UNL     1      43.292 -11.062   6.045  1.00  0.00     0.257 C 
BRANCH  23  24
HETATM   24  N   UNL     1      43.209 -10.136   7.170  1.00  0.00    -0.224 N 
HETATM   25  N   UNL     1      42.439  -8.974   6.975  1.00  0.00    -0.180 NA
HETATM   26  C   UNL     1      42.195  -8.188   7.989  1.00  0.00     0.153 A 
HETATM   27  C   UNL     1      42.728  -8.476   9.290  1.00  0.00     0.028 A 
HETATM   28  C   UNL     1      43.521  -9.584   9.451  1.00  0.00     0.116 A 
HETATM   29  C   UNL     1      42.601  -7.839  10.552  1.00  0.00     0.005 A 
HETATM   30  N   UNL     1      43.911  -9.648  10.758  1.00  0.00    -0.350 N 
HETATM   31  C   UNL     1      43.823 -10.494   8.388  1.00  0.00     0.291 A 
HETATM   32  H   UNL     1      44.492 -10.374  11.158  1.00  0.00     0.166 HD
HETATM   33  C   UNL     1      43.355  -8.596  11.457  1.00  0.00     0.044 A 
HETATM   34  C   UNL     1      43.455  -8.267  12.814  1.00  0.00     0.030 A 
HETATM   35  C   UNL     1      42.761  -7.138  13.260  1.00  0.00     0.002 A 
HETATM   36  C   UNL     1      42.002  -6.367  12.383  1.00  0.00     0.001 A 
HETATM   37  C   UNL     1      41.915  -6.704  11.027  1.00  0.00     0.014 A 
HETATM   38  O   UNL     1      44.544 -11.476   8.528  1.00  0.00    -0.264 OA
ENDBRANCH  23  24
ENDBRANCH   2  23
TORSDOF 7
ENDMDL
MODEL 6
REMARK VINA RESULT:      -9.4      2.171      2.467
REMARK  7 active torsions:
REMARK  status: ('A' for Active; 'I' for Inactive)
REMARK    1  A    between atoms: C_3  and  N_4 
REMARK    2  A    between atoms: N_7  and  C_9 
REMARK    3  A    between atoms: C_9  and  C_10 
REMARK    4  A    between atoms: C_10  and  C_11 
REMARK    5  A    between atoms: C_11  and  N_12 
REMARK       I    between atoms: N_12  and  C_13 
REMARK    6  A    between atoms: C_13  and  C_14 
REMARK    7  A    between atoms: C_14  and  N_15 
ROOT
HETATM    1  N   UNL     1      41.934 -10.183   5.310  1.00  0.00    -0.360 N 
HETATM    2  C   UNL     1      41.042 -10.721   6.215  1.00  0.00     0.237 C 
HETATM    3  O   UNL     1      40.845 -11.936   6.273  1.00  0.00    -0.272 OA
HETATM    4  H   UNL     1      42.039  -9.169   5.322  1.00  0.00     0.162 HD
ENDROOT
BRANCH   1   5
HETATM    5  C   UNL     1      42.851 -11.018   4.574  1.00  0.00     0.124 C 
BRANCH   5   6
HETATM    6  C   UNL     1      42.585 -10.980   3.067  1.00  0.00     0.047 C 
BRANCH   6   7
HETATM    7  C   UNL     1      41.290 -11.711   2.743  1.00  0.00     0.236 C 
BRANCH   7   8
HETATM    8  N   UNL     1      41.525 -13.174   2.411  1.00  0.00    -0.068 N 
HETATM    9  C   UNL     1      43.012 -13.524   2.249  1.00  0.00     0.254 C 
HETATM   10  C   UNL     1      43.233 -15.042   2.086  1.00  0.00     0.150 C 
HETATM   11  N   UNL     1      42.611 -15.738   3.226  1.00  0.00    -0.377 N 
HETATM   12  C   UNL     1      41.152 -15.554   3.279  1.00  0.00     0.150 C 
HETATM   13  C   UNL     1      40.848 -14.055   3.481  1.00  0.00     0.254 C 
HETATM   14  H   UNL     1      41.063 -13.378   1.516  1.00  0.00     0.280 HD
BRANCH  11  15
HETATM   15  C   UNL     1      43.129 -17.019   3.467  1.00  0.00     0.037 A 
HETATM   16  C   UNL     1      43.692 -17.330   4.731  1.00  0.00    -0.035 A 
HETATM   17  C   UNL     1      43.749 -16.331   5.857  1.00  0.00     0.050 C 
HETATM   18  C   UNL     1      44.232 -18.608   4.968  1.00  0.00     0.011 A 
HETATM   19  C   UNL     1      44.185 -19.594   3.987  1.00  0.00     0.024 A 
HETATM   20  C   UNL     1      43.611 -19.303   2.758  1.00  0.00     0.036 A 
HETATM   21  C   UNL     1      43.093 -18.032   2.496  1.00  0.00     0.053 A 
HETATM   22 CL   UNL     1      43.540 -20.517   1.541  1.00  0.00    -0.084 Cl
ENDBRANCH  11  15
ENDBRANCH   7   8
ENDBRANCH   6   7
ENDBRANCH   5   6
ENDBRANCH   1   5
BRANCH   2  23
HETATM   23  C   UNL     1      40.211  -9.716   7.009  1.00  0.00     0.257 C 
BRANCH  23  24
HETATM   24  N   UNL     1      40.736  -9.470   8.348  1.00  0.00    -0.224 N 
HETATM   25  N   UNL     1      42.127  -9.287   8.457  1.00  0.00    -0.180 NA
HETATM   26  C   UNL     1      42.638  -8.906   9.596  1.00  0.00     0.153 A 
HETATM   27  C   UNL     1      41.804  -8.703  10.747  1.00  0.00     0.028 A 
HETATM   28  C   UNL     1      40.457  -8.938  10.638  1.00  0.00     0.116 A 
HETATM   29  C   UNL     1      42.069  -8.266  12.070  1.00  0.00     0.005 A 
HETATM   30  N   UNL     1      39.877  -8.686  11.848  1.00  0.00    -0.350 N 
HETATM   31  C   UNL     1      39.827  -9.348   9.419  1.00  0.00     0.291 A 
HETATM   32  H   UNL     1      38.887  -8.766  12.048  1.00  0.00     0.166 HD
HETATM   33  C   UNL     1      40.840  -8.265  12.742  1.00  0.00     0.044 A 
HETATM   34  C   UNL     1      40.714  -7.876  14.081  1.00  0.00     0.030 A 
HETATM   35  C   UNL     1      41.873  -7.472  14.751  1.00  0.00     0.002 A 
HETATM   36  C   UNL     1      43.109  -7.461  14.107  1.00  0.00     0.001 A 
HETATM   37  C   UNL     1      43.222  -7.858  12.769  1.00  0.00     0.014 A 
HETATM   38  O   UNL     1      38.625  -9.573   9.326  1.00  0.00    -0.264 OA
ENDBRANCH  23  24
ENDBRANCH   2  23
TORSDOF 7
ENDMDL
MODEL 7
REMARK VINA RESULT:      -9.3      4.015     11.447
REMARK  7 active torsions:
REMARK  status: ('A' for Active; 'I' for Inactive)
REMARK    1  A    between atoms: C_3  and  N_4 
REMARK    2  A    between atoms: N_7  and  C_9 
REMARK    3  A    between atoms: C_9  and  C_10 
REMARK    4  A    between atoms: C_10  and  C_11 
REMARK    5  A    between atoms: C_11  and  N_12 
REMARK       I    between atoms: N_12  and  C_13 
REMARK    6  A    between atoms: C_13  and  C_14 
REMARK    7  A    between atoms: C_14  and  N_15 
ROOT
HETATM    1  N   UNL     1      44.560 -10.692   7.210  1.00  0.00    -0.360 N 
HETATM    2  C   UNL     1      44.434 -11.215   5.939  1.00  0.00     0.237 C 
HETATM    3  O   UNL     1      45.373 -11.194   5.143  1.00  0.00    -0.272 OA
HETATM    4  H   UNL     1      43.737 -10.744   7.808  1.00  0.00     0.162 HD
ENDROOT
BRANCH   1   5
HETATM    5  C   UNL     1      45.849 -10.331   7.746  1.00  0.00     0.124 C 
BRANCH   5   6
HETATM    6  C   UNL     1      45.731  -9.531   9.046  1.00  0.00     0.047 C 
BRANCH   6   7
HETATM    7  C   UNL     1      44.940 -10.321  10.079  1.00  0.00     0.236 C 
BRANCH   7   8
HETATM    8  N   UNL     1      44.163  -9.418  11.020  1.00  0.00    -0.068 N 
HETATM    9  C   UNL     1      43.459  -8.259  10.299  1.00  0.00     0.254 C 
HETATM   10  C   UNL     1      42.540  -7.463  11.249  1.00  0.00     0.150 C 
HETATM   11  N   UNL     1      41.589  -8.394  11.882  1.00  0.00    -0.377 N 
HETATM   12  C   UNL     1      42.253  -9.400  12.726  1.00  0.00     0.150 C 
HETATM   13  C   UNL     1      43.168 -10.268  11.837  1.00  0.00     0.254 C 
HETATM   14  H   UNL     1      44.826  -9.006  11.689  1.00  0.00     0.280 HD
BRANCH  11  15
HETATM   15  C   UNL     1      40.425  -7.782  12.368  1.00  0.00     0.037 A 
HETATM   16  C   UNL     1      39.266  -7.714  11.554  1.00  0.00    -0.035 A 
HETATM   17  C   UNL     1      39.221  -8.295  10.165  1.00  0.00     0.050 C 
HETATM   18  C   UNL     1      38.104  -7.081  12.032  1.00  0.00     0.011 A 
HETATM   19  C   UNL     1      38.058  -6.550  13.318  1.00  0.00     0.024 A 
HETATM   20  C   UNL     1      39.181  -6.637  14.128  1.00  0.00     0.036 A 
HETATM   21  C   UNL     1      40.353  -7.240  13.662  1.00  0.00     0.053 A 
HETATM   22 CL   UNL     1      39.134  -5.993  15.723  1.00  0.00    -0.084 Cl
ENDBRANCH  11  15
ENDBRANCH   7   8
ENDBRANCH   6   7
ENDBRANCH   5   6
ENDBRANCH   1   5
BRANCH   2  23
HETATM   23  C   UNL     1      43.030 -11.662   5.540  1.00  0.00     0.257 C 
BRANCH  23  24
HETATM   24  N   UNL     1      42.980 -13.043   5.069  1.00  0.00    -0.224 N 
HETATM   25  N   UNL     1      42.670 -13.235   3.710  1.00  0.00    -0.180 NA
HETATM   26  C   UNL     1      42.766 -14.430   3.192  1.00  0.00     0.153 A 
HETATM   27  C   UNL     1      43.152 -15.554   3.998  1.00  0.00     0.028 A 
HETATM   28  C   UNL     1      43.399 -15.357   5.333  1.00  0.00     0.116 A 
HETATM   29  C   UNL     1      43.371 -16.925   3.707  1.00  0.00     0.005 A 
HETATM   30  N   UNL     1      43.742 -16.557   5.888  1.00  0.00    -0.350 N 
HETATM   31  C   UNL     1      43.323 -14.076   5.966  1.00  0.00     0.291 A 
HETATM   32  H   UNL     1      43.988 -16.701   6.859  1.00  0.00     0.166 HD
HETATM   33  C   UNL     1      43.740 -17.534   4.913  1.00  0.00     0.044 A 
HETATM   34  C   UNL     1      44.045 -18.897   5.006  1.00  0.00     0.030 A 
HETATM   35  C   UNL     1      43.978 -19.658   3.834  1.00  0.00     0.002 A 
HETATM   36  C   UNL     1      43.617 -19.078   2.620  1.00  0.00     0.001 A 
HETATM   37  C   UNL     1      43.308 -17.715   2.542  1.00  0.00     0.014 A 
HETATM   38  O   UNL     1      43.528 -13.903   7.162  1.00  0.00    -0.264 OA
ENDBRANCH  23  24
ENDBRANCH   2  23
TORSDOF 7
ENDMDL
MODEL 8
REMARK VINA RESULT:      -9.2      4.943      9.172
REMARK  7 active torsions:
REMARK  status: ('A' for Active; 'I' for Inactive)
REMARK    1  A    between atoms: C_3  and  N_4 
REMARK    2  A    between atoms: N_7  and  C_9 
REMARK    3  A    between atoms: C_9  and  C_10 
REMARK    4  A    between atoms: C_10  and  C_11 
REMARK    5  A    between atoms: C_11  and  N_12 
REMARK       I    between atoms: N_12  and  C_13 
REMARK    6  A    between atoms: C_13  and  C_14 
REMARK    7  A    between atoms: C_14  and  N_15 
ROOT
HETATM    1  N   UNL     1      39.482  -9.867   4.820  1.00  0.00    -0.360 N 
HETATM    2  C   UNL     1      40.608  -9.291   4.267  1.00  0.00     0.237 C 
HETATM    3  O   UNL     1      41.608  -9.061   4.948  1.00  0.00    -0.272 OA
HETATM    4  H   UNL     1      38.694 -10.022   4.192  1.00  0.00     0.162 HD
ENDROOT
BRANCH   1   5
HETATM    5  C   UNL     1      39.509 -10.449   6.139  1.00  0.00     0.124 C 
BRANCH   5   6
HETATM    6  C   UNL     1      39.784 -11.954   6.101  1.00  0.00     0.047 C 
BRANCH   6   7
HETATM    7  C   UNL     1      41.277 -12.218   6.235  1.00  0.00     0.236 C 
BRANCH   7   8
HETATM    8  N   UNL     1      41.598 -13.703   6.249  1.00  0.00    -0.068 N 
HETATM    9  C   UNL     1      40.771 -14.507   5.234  1.00  0.00     0.254 C 
HETATM   10  C   UNL     1      41.237 -15.976   5.147  1.00  0.00     0.150 C 
HETATM   11  N   UNL     1      42.680 -16.000   4.844  1.00  0.00    -0.377 N 
HETATM   12  C   UNL     1      43.495 -15.389   5.907  1.00  0.00     0.150 C 
HETATM   13  C   UNL     1      43.113 -13.899   6.031  1.00  0.00     0.254 C 
HETATM   14  H   UNL     1      41.378 -14.070   7.183  1.00  0.00     0.280 HD
BRANCH  11  15
HETATM   15  C   UNL     1      43.125 -17.199   4.271  1.00  0.00     0.037 A 
HETATM   16  C   UNL     1      43.224 -17.317   2.862  1.00  0.00    -0.035 A 
HETATM   17  C   UNL     1      42.880 -16.184   1.930  1.00  0.00     0.050 C 
HETATM   18  C   UNL     1      43.651 -18.527   2.283  1.00  0.00     0.011 A 
HETATM   19  C   UNL     1      44.019 -19.608   3.080  1.00  0.00     0.024 A 
HETATM   20  C   UNL     1      43.949 -19.488   4.461  1.00  0.00     0.036 A 
HETATM   21  C   UNL     1      43.504 -18.302   5.052  1.00  0.00     0.053 A 
HETATM   22 CL   UNL     1      44.410 -20.813   5.456  1.00  0.00    -0.084 Cl
ENDBRANCH  11  15
ENDBRANCH   7   8
ENDBRANCH   6   7
ENDBRANCH   5   6
ENDBRANCH   1   5
BRANCH   2  23
HETATM   23  C   UNL     1      40.472  -8.818   2.822  1.00  0.00     0.257 C 
BRANCH  23  24
HETATM   24  N   UNL     1      39.996  -9.861   1.920  1.00  0.00    -0.224 N 
HETATM   25  N   UNL     1      38.607  -9.916   1.694  1.00  0.00    -0.180 NA
HETATM   26  C   UNL     1      38.137 -10.718   0.778  1.00  0.00     0.153 A 
HETATM   27  C   UNL     1      39.012 -11.568   0.022  1.00  0.00     0.028 A 
HETATM   28  C   UNL     1      40.356 -11.541   0.291  1.00  0.00     0.116 A 
HETATM   29  C   UNL     1      38.793 -12.490  -1.034  1.00  0.00     0.005 A 
HETATM   30  N   UNL     1      40.980 -12.427  -0.541  1.00  0.00    -0.350 N 
HETATM   31  C   UNL     1      40.944 -10.681   1.273  1.00  0.00     0.291 A 
HETATM   32  H   UNL     1      41.977 -12.600  -0.566  1.00  0.00     0.166 HD
HETATM   33  C   UNL     1      40.046 -13.016  -1.369  1.00  0.00     0.044 A 
HETATM   34  C   UNL     1      40.219 -13.961  -2.388  1.00  0.00     0.030 A 
HETATM   35  C   UNL     1      39.081 -14.374  -3.088  1.00  0.00     0.002 A 
HETATM   36  C   UNL     1      37.822 -13.865  -2.779  1.00  0.00     0.001 A 
HETATM   37  C   UNL     1      37.662 -12.926  -1.753  1.00  0.00     0.014 A 
HETATM   38  O   UNL     1      42.144 -10.668   1.525  1.00  0.00    -0.264 OA
ENDBRANCH  23  24
ENDBRANCH   2  23
TORSDOF 7
ENDMDL
MODEL 9
REMARK VINA RESULT:      -9.0      6.349     10.802
REMARK  7 active torsions:
REMARK  status: ('A' for Active; 'I' for Inactive)
REMARK    1  A    between atoms: C_3  and  N_4 
REMARK    2  A    between atoms: N_7  and  C_9 
REMARK    3  A    between atoms: C_9  and  C_10 
REMARK    4  A    between atoms: C_10  and  C_11 
REMARK    5  A    between atoms: C_11  and  N_12 
REMARK       I    between atoms: N_12  and  C_13 
REMARK    6  A    between atoms: C_13  and  C_14 
REMARK    7  A    between atoms: C_14  and  N_15 
ROOT
HETATM    1  N   UNL     1      40.647 -12.661   4.367  1.00  0.00    -0.360 N 
HETATM    2  C   UNL     1      41.882 -12.076   4.169  1.00  0.00     0.237 C 
HETATM    3  O   UNL     1      42.003 -11.049   3.501  1.00  0.00    -0.272 OA
HETATM    4  H   UNL     1      40.629 -13.511   4.929  1.00  0.00     0.162 HD
ENDROOT
BRANCH   1   5
HETATM    5  C   UNL     1      39.428 -11.972   4.020  1.00  0.00     0.124 C 
BRANCH   5   6
HETATM    6  C   UNL     1      38.801 -12.516   2.734  1.00  0.00     0.047 C 
BRANCH   6   7
HETATM    7  C   UNL     1      38.378 -11.368   1.830  1.00  0.00     0.236 C 
BRANCH   7   8
HETATM    8  N   UNL     1      39.548 -10.476   1.450  1.00  0.00    -0.068 N 
HETATM    9  C   UNL     1      40.475 -11.111   0.403  1.00  0.00     0.254 C 
HETATM   10  C   UNL     1      41.550 -10.120  -0.091  1.00  0.00     0.150 C 
HETATM   11  N   UNL     1      40.883  -8.904  -0.590  1.00  0.00    -0.377 N 
HETATM   12  C   UNL     1      40.140  -8.190   0.460  1.00  0.00     0.150 C 
HETATM   13  C   UNL     1      39.014  -9.107   0.982  1.00  0.00     0.254 C 
HETATM   14  H   UNL     1      40.109 -10.307   2.295  1.00  0.00     0.280 HD
BRANCH  11  15
HETATM   15  C   UNL     1      41.658  -8.153  -1.485  1.00  0.00     0.037 A 
HETATM   16  C   UNL     1      41.482  -8.313  -2.883  1.00  0.00    -0.035 A 
HETATM   17  C   UNL     1      40.467  -9.263  -3.465  1.00  0.00     0.050 C 
HETATM   18  C   UNL     1      42.272  -7.575  -3.783  1.00  0.00     0.011 A 
HETATM   19  C   UNL     1      43.207  -6.652  -3.321  1.00  0.00     0.024 A 
HETATM   20  C   UNL     1      43.365  -6.473  -1.954  1.00  0.00     0.036 A 
HETATM   21  C   UNL     1      42.605  -7.215  -1.045  1.00  0.00     0.053 A 
HETATM   22 CL   UNL     1      44.510  -5.329  -1.370  1.00  0.00    -0.084 Cl
ENDBRANCH  11  15
ENDBRANCH   7   8
ENDBRANCH   6   7
ENDBRANCH   5   6
ENDBRANCH   1   5
BRANCH   2  23
HETATM   23  C   UNL     1      43.081 -12.866   4.686  1.00  0.00     0.257 C 
BRANCH  23  24
HETATM   24  N   UNL     1      43.030 -14.282   4.336  1.00  0.00    -0.224 N 
HETATM   25  N   UNL     1      42.662 -14.592   3.012  1.00  0.00    -0.180 NA
HETATM   26  C   UNL     1      42.752 -15.825   2.593  1.00  0.00     0.153 A 
HETATM   27  C   UNL     1      43.189 -16.872   3.471  1.00  0.00     0.028 A 
HETATM   28  C   UNL     1      43.492 -16.562   4.773  1.00  0.00     0.116 A 
HETATM   29  C   UNL     1      43.413 -18.261   3.286  1.00  0.00     0.005 A 
HETATM   30  N   UNL     1      43.875 -17.707   5.410  1.00  0.00    -0.350 N 
HETATM   31  C   UNL     1      43.426 -15.232   5.299  1.00  0.00     0.291 A 
HETATM   32  H   UNL     1      44.167 -17.766   6.378  1.00  0.00     0.166 HD
HETATM   33  C   UNL     1      43.844 -18.762   4.521  1.00  0.00     0.044 A 
HETATM   34  C   UNL     1      44.171 -20.110   4.714  1.00  0.00     0.030 A 
HETATM   35  C   UNL     1      44.063 -20.967   3.614  1.00  0.00     0.002 A 
HETATM   36  C   UNL     1      43.640 -20.496   2.374  1.00  0.00     0.001 A 
HETATM   37  C   UNL     1      43.309 -19.147   2.196  1.00  0.00     0.014 A 
HETATM   38  O   UNL     1      43.682 -14.958   6.466  1.00  0.00    -0.264 OA
ENDBRANCH  23  24
ENDBRANCH   2  23
TORSDOF 7
ENDMDL
MODEL 10
REMARK VINA RESULT:      -8.7      4.209     11.474
REMARK  7 active torsions:
REMARK  status: ('A' for Active; 'I' for Inactive)
REMARK    1  A    between atoms: C_3  and  N_4 
REMARK    2  A    between atoms: N_7  and  C_9 
REMARK    3  A    between atoms: C_9  and  C_10 
REMARK    4  A    between atoms: C_10  and  C_11 
REMARK    5  A    between atoms: C_11  and  N_12 
REMARK       I    between atoms: N_12  and  C_13 
REMARK    6  A    between atoms: C_13  and  C_14 
REMARK    7  A    between atoms: C_14  and  N_15 
ROOT
HETATM    1  N   UNL     1      40.539 -12.431   5.132  1.00  0.00    -0.360 N 
HETATM    2  C   UNL     1      41.670 -12.204   4.375  1.00  0.00     0.237 C 
HETATM    3  O   UNL     1      42.446 -11.286   4.646  1.00  0.00    -0.272 OA
HETATM    4  H   UNL     1      39.945 -13.208   4.843  1.00  0.00     0.162 HD
ENDROOT
BRANCH   1   5
HETATM    5  C   UNL     1      40.344 -11.778   6.403  1.00  0.00     0.124 C 
BRANCH   5   6
HETATM    6  C   UNL     1      39.248 -10.711   6.343  1.00  0.00     0.047 C 
BRANCH   6   7
HETATM    7  C   UNL     1      39.859  -9.347   6.056  1.00  0.00     0.236 C 
BRANCH   7   8
HETATM    8  N   UNL     1      39.995  -8.503   7.312  1.00  0.00    -0.068 N 
HETATM    9  C   UNL     1      39.637  -9.270   8.594  1.00  0.00     0.254 C 
HETATM   10  C   UNL     1      39.948  -8.449   9.863  1.00  0.00     0.150 C 
HETATM   11  N   UNL     1      41.363  -8.037   9.827  1.00  0.00    -0.377 N 
HETATM   12  C   UNL     1      41.670  -7.148   8.695  1.00  0.00     0.150 C 
HETATM   13  C   UNL     1      41.419  -7.914   7.380  1.00  0.00     0.254 C 
HETATM   14  H   UNL     1      39.344  -7.711   7.238  1.00  0.00     0.280 HD
BRANCH  11  15
HETATM   15  C   UNL     1      41.900  -7.723  11.084  1.00  0.00     0.037 A 
HETATM   16  C   UNL     1      42.775  -8.634  11.729  1.00  0.00    -0.035 A 
HETATM   17  C   UNL     1      43.175  -9.947  11.107  1.00  0.00     0.050 C 
HETATM   18  C   UNL     1      43.298  -8.330  13.000  1.00  0.00     0.011 A 
HETATM   19  C   UNL     1      43.001  -7.122  13.623  1.00  0.00     0.024 A 
HETATM   20  C   UNL     1      42.167  -6.215  12.984  1.00  0.00     0.036 A 
HETATM   21  C   UNL     1      41.618  -6.510  11.733  1.00  0.00     0.053 A 
HETATM   22 CL   UNL     1      41.800  -4.714  13.740  1.00  0.00    -0.084 Cl
ENDBRANCH  11  15
ENDBRANCH   7   8
ENDBRANCH   6   7
ENDBRANCH   5   6
ENDBRANCH   1   5
BRANCH   2  23
HETATM   23  C   UNL     1      41.804 -13.046   3.109  1.00  0.00     0.257 C 
BRANCH  23  24
HETATM   24  N   UNL     1      42.394 -14.359   3.354  1.00  0.00    -0.224 N 
HETATM   25  N   UNL     1      42.879 -14.600   4.654  1.00  0.00    -0.180 NA
HETATM   26  C   UNL     1      43.269 -15.803   4.980  1.00  0.00     0.153 A 
HETATM   27  C   UNL     1      43.241 -16.872   4.024  1.00  0.00     0.028 A 
HETATM   28  C   UNL     1      42.815 -16.607   2.747  1.00  0.00     0.116 A 
HETATM   29  C   UNL     1      43.561 -18.252   4.103  1.00  0.00     0.005 A 
HETATM   30  N   UNL     1      42.879 -17.764   2.023  1.00  0.00    -0.350 N 
HETATM   31  C   UNL     1      42.364 -15.317   2.320  1.00  0.00     0.291 A 
HETATM   32  H   UNL     1      42.611 -17.859   1.052  1.00  0.00     0.166 HD
HETATM   33  C   UNL     1      43.325 -18.789   2.832  1.00  0.00     0.044 A 
HETATM   34  C   UNL     1      43.525 -20.143   2.537  1.00  0.00     0.030 A 
HETATM   35  C   UNL     1      43.972 -20.972   3.571  1.00  0.00     0.002 A 
HETATM   36  C   UNL     1      44.213 -20.466   4.846  1.00  0.00     0.001 A 
HETATM   37  C   UNL     1      44.014 -19.109   5.126  1.00  0.00     0.014 A 
HETATM   38  O   UNL     1      41.999 -15.077   1.175  1.00  0.00    -0.264 OA
ENDBRANCH  23  24
ENDBRANCH   2  23
TORSDOF 7
ENDMDL
