MODEL 1
REMARK VINA RESULT:      -7.1      0.000      0.000
REMARK  5 active torsions:
REMARK  status: ('A' for Active; 'I' for Inactive)
REMARK    1  A    between atoms: C_2  and  N_3 
REMARK    2  A    between atoms: N_3  and  C_5 
REMARK    3  A    between atoms: N_3  and  C_21 
REMARK    4  A    between atoms: C_8  and  N_9 
REMARK       I    between atoms: N_9  and  C_10 
REMARK    5  A    between atoms: C_10  and  C_11 
ROOT
HETATM    1  C   UNL     1      43.000 -17.245   4.136  1.00  0.00     0.134 A 
HETATM    2  C   UNL     1      41.845 -16.594   4.564  1.00  0.00     0.039 A 
HETATM    3  C   UNL     1      41.007 -15.965   3.634  1.00  0.00     0.032 A 
HETATM    4  C   UNL     1      41.315 -15.966   2.273  1.00  0.00     0.035 A 
HETATM    5  C   UNL     1      42.486 -16.609   1.853  1.00  0.00     0.032 A 
HETATM    6  C   UNL     1      43.324 -17.249   2.776  1.00  0.00     0.039 A 
ENDROOT
BRANCH   4   7
HETATM    7  N   UNL     1      40.515 -15.361   1.278  1.00  0.00    -0.323 N 
HETATM    8  C   UNL     1      40.694 -14.106   0.715  1.00  0.00     0.257 C 
HETATM    9  O   UNL     1      41.616 -13.337   0.965  1.00  0.00    -0.267 OA
HETATM   10  H   UNL     1      39.757 -15.926   0.920  1.00  0.00     0.169 HD
BRANCH   8  11
HETATM   11  C   UNL     1      39.685 -13.683  -0.292  1.00  0.00     0.050 A 
HETATM   12  C   UNL     1      39.013 -12.481  -0.086  1.00  0.00     0.135 A 
HETATM   13  N   UNL     1      38.073 -11.980  -0.926  1.00  0.00    -0.248 NA
HETATM   14  C   UNL     1      37.777 -12.723  -2.009  1.00  0.00     0.125 A 
HETATM   15 CL   UNL     1      36.581 -12.057  -3.038  1.00  0.00    -0.063 Cl
HETATM   16  C   UNL     1      38.370 -13.940  -2.300  1.00  0.00     0.045 A 
HETATM   17  C   UNL     1      39.339 -14.432  -1.421  1.00  0.00     0.022 A 
ENDBRANCH   8  11
ENDBRANCH   4   7
BRANCH   1  18
HETATM   18  N   UNL     1      43.904 -17.948   5.075  1.00  0.00    -0.042 N 
HETATM   19  H   UNL     1      44.746 -17.361   5.122  1.00  0.00     0.286 HD
BRANCH  18  20
HETATM   20  C   UNL     1      44.412 -19.282   4.576  1.00  0.00     0.237 C 
HETATM   21  C   UNL     1      43.951 -20.416   5.478  1.00  0.00     0.035 C 
ENDBRANCH  18  20
BRANCH  18  22
HETATM   22  C   UNL     1      43.367 -17.947   6.489  1.00  0.00     0.237 C 
HETATM   23  C   UNL     1      43.982 -16.888   7.383  1.00  0.00     0.035 C 
ENDBRANCH  18  22
ENDBRANCH   1  18
TORSDOF 5
ENDMDL
MODEL 2
REMARK VINA RESULT:      -7.1      1.620      2.426
REMARK  5 active torsions:
REMARK  status: ('A' for Active; 'I' for Inactive)
REMARK    1  A    between atoms: C_2  and  N_3 
REMARK    2  A    between atoms: N_3  and  C_5 
REMARK    3  A    between atoms: N_3  and  C_21 
REMARK    4  A    between atoms: C_8  and  N_9 
REMARK       I    between atoms: N_9  and  C_10 
REMARK    5  A    between atoms: C_10  and  C_11 
ROOT
HETATM    1  C   UNL     1      42.928 -17.248   4.079  1.00  0.00     0.134 A 
HETATM    2  C   UNL     1      43.521 -17.376   2.825  1.00  0.00     0.039 A 
HETATM    3  C   UNL     1      43.153 -16.517   1.782  1.00  0.00     0.032 A 
HETATM    4  C   UNL     1      42.184 -15.530   1.971  1.00  0.00     0.035 A 
HETATM    5  C   UNL     1      41.583 -15.418   3.231  1.00  0.00     0.032 A 
HETATM    6  C   UNL     1      41.953 -16.267   4.281  1.00  0.00     0.039 A 
ENDROOT
BRANCH   4   7
HETATM    7  N   UNL     1      41.770 -14.623   0.971  1.00  0.00    -0.323 N 
HETATM    8  C   UNL     1      40.599 -14.680   0.229  1.00  0.00     0.257 C 
HETATM    9  O   UNL     1      39.709 -15.514   0.363  1.00  0.00    -0.267 OA
HETATM   10  H   UNL     1      42.380 -13.833   0.814  1.00  0.00     0.169 HD
BRANCH   8  11
HETATM   11  C   UNL     1      40.413 -13.620  -0.797  1.00  0.00     0.050 A 
HETATM   12  C   UNL     1      40.692 -12.303  -0.442  1.00  0.00     0.135 A 
HETATM   13  N   UNL     1      40.567 -11.245  -1.280  1.00  0.00    -0.248 NA
HETATM   14  C   UNL     1      40.124 -11.512  -2.524  1.00  0.00     0.125 A 
HETATM   15 CL   UNL     1      39.973 -10.147  -3.547  1.00  0.00    -0.063 Cl
HETATM   16  C   UNL     1      39.799 -12.780  -2.975  1.00  0.00     0.045 A 
HETATM   17  C   UNL     1      39.941 -13.855  -2.092  1.00  0.00     0.022 A 
ENDBRANCH   8  11
ENDBRANCH   4   7
BRANCH   1  18
HETATM   18  N   UNL     1      43.303 -18.114   5.221  1.00  0.00    -0.042 N 
HETATM   19  H   UNL     1      42.461 -18.671   5.417  1.00  0.00     0.286 HD
BRANCH  18  20
HETATM   20  C   UNL     1      43.562 -17.370   6.512  1.00  0.00     0.237 C 
HETATM   21  C   UNL     1      44.743 -16.424   6.372  1.00  0.00     0.035 C 
ENDBRANCH  18  20
BRANCH  18  22
HETATM   22  C   UNL     1      44.350 -19.136   4.841  1.00  0.00     0.237 C 
HETATM   23  C   UNL     1      44.032 -20.546   5.298  1.00  0.00     0.035 C 
ENDBRANCH  18  22
ENDBRANCH   1  18
TORSDOF 5
ENDMDL
MODEL 3
REMARK VINA RESULT:      -7.0      1.530      1.822
REMARK  5 active torsions:
REMARK  status: ('A' for Active; 'I' for Inactive)
REMARK    1  A    between atoms: C_2  and  N_3 
REMARK    2  A    between atoms: N_3  and  C_5 
REMARK    3  A    between atoms: N_3  and  C_21 
REMARK    4  A    between atoms: C_8  and  N_9 
REMARK       I    between atoms: N_9  and  C_10 
REMARK    5  A    between atoms: C_10  and  C_11 
ROOT
HETATM    1  C   UNL     1      43.468 -17.071   4.002  1.00  0.00     0.134 A 
HETATM    2  C   UNL     1      43.578 -17.478   2.673  1.00  0.00     0.039 A 
HETATM    3  C   UNL     1      43.071 -16.671   1.647  1.00  0.00     0.032 A 
HETATM    4  C   UNL     1      42.438 -15.460   1.930  1.00  0.00     0.035 A 
HETATM    5  C   UNL     1      42.318 -15.066   3.269  1.00  0.00     0.032 A 
HETATM    6  C   UNL     1      42.832 -15.863   4.300  1.00  0.00     0.039 A 
ENDROOT
BRANCH   4   7
HETATM    7  N   UNL     1      41.912 -14.591   0.948  1.00  0.00    -0.323 N 
HETATM    8  C   UNL     1      40.672 -14.685   0.334  1.00  0.00     0.257 C 
HETATM    9  O   UNL     1      39.811 -15.521   0.587  1.00  0.00    -0.267 OA
HETATM   10  H   UNL     1      42.493 -13.802   0.703  1.00  0.00     0.169 HD
BRANCH   8  11
HETATM   11  C   UNL     1      40.368 -13.662  -0.702  1.00  0.00     0.050 A 
HETATM   12  C   UNL     1      40.648 -12.328  -0.414  1.00  0.00     0.135 A 
HETATM   13  N   UNL     1      40.422 -11.300  -1.269  1.00  0.00    -0.248 NA
HETATM   14  C   UNL     1      39.873 -11.616  -2.457  1.00  0.00     0.125 A 
HETATM   15 CL   UNL     1      39.598 -10.288  -3.503  1.00  0.00    -0.063 Cl
HETATM   16  C   UNL     1      39.538 -12.905  -2.839  1.00  0.00     0.045 A 
HETATM   17  C   UNL     1      39.785 -13.947  -1.941  1.00  0.00     0.022 A 
ENDBRANCH   8  11
ENDBRANCH   4   7
BRANCH   1  18
HETATM   18  N   UNL     1      44.011 -17.875   5.120  1.00  0.00    -0.042 N 
HETATM   19  H   UNL     1      44.917 -17.443   5.342  1.00  0.00     0.286 HD
BRANCH  18  20
HETATM   20  C   UNL     1      44.363 -19.300   4.755  1.00  0.00     0.237 C 
HETATM   21  C   UNL     1      43.719 -20.287   5.715  1.00  0.00     0.035 C 
ENDBRANCH  18  20
BRANCH  18  22
HETATM   22  C   UNL     1      43.199 -17.713   6.385  1.00  0.00     0.237 C 
HETATM   23  C   UNL     1      43.892 -16.906   7.466  1.00  0.00     0.035 C 
ENDBRANCH  18  22
ENDBRANCH   1  18
TORSDOF 5
ENDMDL
MODEL 4
REMARK VINA RESULT:      -6.9      1.827      2.499
REMARK  5 active torsions:
REMARK  status: ('A' for Active; 'I' for Inactive)
REMARK    1  A    between atoms: C_2  and  N_3 
REMARK    2  A    between atoms: N_3  and  C_5 
REMARK    3  A    between atoms: N_3  and  C_21 
REMARK    4  A    between atoms: C_8  and  N_9 
REMARK       I    between atoms: N_9  and  C_10 
REMARK    5  A    between atoms: C_10  and  C_11 
ROOT
HETATM    1  C   UNL     1      42.781 -17.017   3.066  1.00  0.00     0.134 A 
HETATM    2  C   UNL     1      41.474 -16.572   3.258  1.00  0.00     0.039 A 
HETATM    3  C   UNL     1      40.928 -15.606   2.404  1.00  0.00     0.032 A 
HETATM    4  C   UNL     1      41.678 -15.062   1.359  1.00  0.00     0.035 A 
HETATM    5  C   UNL     1      42.996 -15.503   1.184  1.00  0.00     0.032 A 
HETATM    6  C   UNL     1      43.545 -16.477   2.028  1.00  0.00     0.039 A 
ENDROOT
BRANCH   4   7
HETATM    7  N   UNL     1      41.192 -14.093   0.455  1.00  0.00    -0.323 N 
HETATM    8  C   UNL     1      40.163 -14.252  -0.461  1.00  0.00     0.257 C 
HETATM    9  O   UNL     1      39.476 -15.260  -0.596  1.00  0.00    -0.267 OA
HETATM   10  H   UNL     1      41.621 -13.180   0.517  1.00  0.00     0.169 HD
BRANCH   8  11
HETATM   11  C   UNL     1      39.865 -13.084  -1.332  1.00  0.00     0.050 A 
HETATM   12  C   UNL     1      38.558 -12.912  -1.781  1.00  0.00     0.135 A 
HETATM   13  N   UNL     1      38.154 -11.891  -2.576  1.00  0.00    -0.248 NA
HETATM   14  C   UNL     1      39.102 -11.012  -2.955  1.00  0.00     0.125 A 
HETATM   15 CL   UNL     1      38.550  -9.743  -3.964  1.00  0.00    -0.063 Cl
HETATM   16  C   UNL     1      40.433 -11.099  -2.583  1.00  0.00     0.045 A 
HETATM   17  C   UNL     1      40.823 -12.159  -1.759  1.00  0.00     0.022 A 
ENDBRANCH   8  11
ENDBRANCH   4   7
BRANCH   1  18
HETATM   18  N   UNL     1      43.395 -18.055   3.925  1.00  0.00    -0.042 N 
HETATM   19  H   UNL     1      42.601 -18.576   4.318  1.00  0.00     0.286 HD
BRANCH  18  20
HETATM   20  C   UNL     1      44.121 -17.517   5.138  1.00  0.00     0.237 C 
HETATM   21  C   UNL     1      43.293 -17.703   6.399  1.00  0.00     0.035 C 
ENDBRANCH  18  20
BRANCH  18  22
HETATM   22  C   UNL     1      44.156 -19.084   3.118  1.00  0.00     0.237 C 
HETATM   23  C   UNL     1      43.276 -19.965   2.252  1.00  0.00     0.035 C 
ENDBRANCH  18  22
ENDBRANCH   1  18
TORSDOF 5
ENDMDL
MODEL 5
REMARK VINA RESULT:      -6.8      3.551      8.569
REMARK  5 active torsions:
REMARK  status: ('A' for Active; 'I' for Inactive)
REMARK    1  A    between atoms: C_2  and  N_3 
REMARK    2  A    between atoms: N_3  and  C_5 
REMARK    3  A    between atoms: N_3  and  C_21 
REMARK    4  A    between atoms: C_8  and  N_9 
REMARK       I    between atoms: N_9  and  C_10 
REMARK    5  A    between atoms: C_10  and  C_11 
ROOT
HETATM    1  C   UNL     1      39.827 -12.861  -0.436  1.00  0.00     0.134 A 
HETATM    2  C   UNL     1      40.725 -12.431   0.539  1.00  0.00     0.039 A 
HETATM    3  C   UNL     1      41.345 -13.362   1.383  1.00  0.00     0.032 A 
HETATM    4  C   UNL     1      41.069 -14.726   1.275  1.00  0.00     0.035 A 
HETATM    5  C   UNL     1      40.154 -15.147   0.302  1.00  0.00     0.032 A 
HETATM    6  C   UNL     1      39.538 -14.223  -0.551  1.00  0.00     0.039 A 
ENDROOT
BRANCH   4   7
HETATM    7  N   UNL     1      41.662 -15.721   2.083  1.00  0.00    -0.323 N 
HETATM    8  C   UNL     1      42.979 -16.153   2.039  1.00  0.00     0.257 C 
HETATM    9  O   UNL     1      43.856 -15.698   1.312  1.00  0.00    -0.267 OA
HETATM   10  H   UNL     1      41.064 -16.127   2.790  1.00  0.00     0.169 HD
BRANCH   8  11
HETATM   11  C   UNL     1      43.348 -17.248   2.976  1.00  0.00     0.050 A 
HETATM   12  C   UNL     1      43.437 -18.544   2.474  1.00  0.00     0.135 A 
HETATM   13  N   UNL     1      43.765 -19.629   3.218  1.00  0.00    -0.248 NA
HETATM   14  C   UNL     1      43.995 -19.412   4.527  1.00  0.00     0.125 A 
HETATM   15 CL   UNL     1      44.399 -20.810   5.431  1.00  0.00    -0.063 Cl
HETATM   16  C   UNL     1      43.915 -18.170   5.134  1.00  0.00     0.045 A 
HETATM   17  C   UNL     1      43.580 -17.067   4.343  1.00  0.00     0.022 A 
ENDBRANCH   8  11
ENDBRANCH   4   7
BRANCH   1  18
HETATM   18  N   UNL     1      39.167 -11.920  -1.369  1.00  0.00    -0.042 N 
HETATM   19  H   UNL     1      39.552 -10.997  -1.132  1.00  0.00     0.286 HD
BRANCH  18  20
HETATM   20  C   UNL     1      37.678 -11.764  -1.153  1.00  0.00     0.237 C 
HETATM   21  C   UNL     1      37.384 -11.116   0.190  1.00  0.00     0.035 C 
ENDBRANCH  18  20
BRANCH  18  22
HETATM   22  C   UNL     1      39.592 -12.147  -2.802  1.00  0.00     0.237 C 
HETATM   23  C   UNL     1      41.074 -11.940  -3.048  1.00  0.00     0.035 C 
ENDBRANCH  18  22
ENDBRANCH   1  18
TORSDOF 5
ENDMDL
MODEL 6
REMARK VINA RESULT:      -6.8      3.573      8.463
REMARK  5 active torsions:
REMARK  status: ('A' for Active; 'I' for Inactive)
REMARK    1  A    between atoms: C_2  and  N_3 
REMARK    2  A    between atoms: N_3  and  C_5 
REMARK    3  A    between atoms: N_3  and  C_21 
REMARK    4  A    between atoms: C_8  and  N_9 
REMARK       I    between atoms: N_9  and  C_10 
REMARK    5  A    between atoms: C_10  and  C_11 
ROOT
HETATM    1  C   UNL     1      39.797 -12.763  -0.343  1.00  0.00     0.134 A 
HETATM    2  C   UNL     1      40.686 -12.452   0.684  1.00  0.00     0.039 A 
HETATM    3  C   UNL     1      41.291 -13.475   1.425  1.00  0.00     0.032 A 
HETATM    4  C   UNL     1      41.010 -14.817   1.161  1.00  0.00     0.035 A 
HETATM    5  C   UNL     1      40.103 -15.120   0.137  1.00  0.00     0.032 A 
HETATM    6  C   UNL     1      39.502 -14.102  -0.614  1.00  0.00     0.039 A 
ENDROOT
BRANCH   4   7
HETATM    7  N   UNL     1      41.588 -15.901   1.858  1.00  0.00    -0.323 N 
HETATM    8  C   UNL     1      42.931 -16.244   1.896  1.00  0.00     0.257 C 
HETATM    9  O   UNL     1      43.842 -15.623   1.359  1.00  0.00    -0.267 OA
HETATM   10  H   UNL     1      40.951 -16.454   2.415  1.00  0.00     0.169 HD
BRANCH   8  11
HETATM   11  C   UNL     1      43.281 -17.460   2.677  1.00  0.00     0.050 A 
HETATM   12  C   UNL     1      43.659 -17.303   4.008  1.00  0.00     0.135 A 
HETATM   13  N   UNL     1      44.001 -18.327   4.829  1.00  0.00    -0.248 NA
HETATM   14  C   UNL     1      43.981 -19.561   4.291  1.00  0.00     0.125 A 
HETATM   15 CL   UNL     1      44.426 -20.823   5.361  1.00  0.00    -0.063 Cl
HETATM   16  C   UNL     1      43.640 -19.829   2.976  1.00  0.00     0.045 A 
HETATM   17  C   UNL     1      43.288 -18.756   2.152  1.00  0.00     0.022 A 
ENDBRANCH   8  11
ENDBRANCH   4   7
BRANCH   1  18
HETATM   18  N   UNL     1      39.153 -11.719  -1.171  1.00  0.00    -0.042 N 
HETATM   19  H   UNL     1      38.143 -11.854  -1.030  1.00  0.00     0.286 HD
BRANCH  18  20
HETATM   20  C   UNL     1      39.344 -11.895  -2.661  1.00  0.00     0.237 C 
HETATM   21  C   UNL     1      40.797 -11.690  -3.055  1.00  0.00     0.035 C 
ENDBRANCH  18  20
BRANCH  18  22
HETATM   22  C   UNL     1      39.422 -10.327  -0.644  1.00  0.00     0.237 C 
HETATM   23  C   UNL     1      38.192  -9.621  -0.107  1.00  0.00     0.035 C 
ENDBRANCH  18  22
ENDBRANCH   1  18
TORSDOF 5
ENDMDL
MODEL 7
REMARK VINA RESULT:      -6.8      6.322      8.908
REMARK  5 active torsions:
REMARK  status: ('A' for Active; 'I' for Inactive)
REMARK    1  A    between atoms: C_2  and  N_3 
REMARK    2  A    between atoms: N_3  and  C_5 
REMARK    3  A    between atoms: N_3  and  C_21 
REMARK    4  A    between atoms: C_8  and  N_9 
REMARK       I    between atoms: N_9  and  C_10 
REMARK    5  A    between atoms: C_10  and  C_11 
ROOT
HETATM    1  C   UNL     1      42.799 -14.909   3.689  1.00  0.00     0.134 A 
HETATM    2  C   UNL     1      43.122 -15.473   4.922  1.00  0.00     0.039 A 
HETATM    3  C   UNL     1      43.302 -14.655   6.044  1.00  0.00     0.032 A 
HETATM    4  C   UNL     1      43.175 -13.267   5.951  1.00  0.00     0.035 A 
HETATM    5  C   UNL     1      42.865 -12.708   4.705  1.00  0.00     0.032 A 
HETATM    6  C   UNL     1      42.675 -13.521   3.580  1.00  0.00     0.039 A 
ENDROOT
BRANCH   4   7
HETATM    7  N   UNL     1      43.332 -12.382   7.040  1.00  0.00    -0.323 N 
HETATM    8  C   UNL     1      44.447 -11.609   7.329  1.00  0.00     0.257 C 
HETATM    9  O   UNL     1      45.464 -11.540   6.647  1.00  0.00    -0.267 OA
HETATM   10  H   UNL     1      42.528 -12.280   7.643  1.00  0.00     0.169 HD
BRANCH   8  11
HETATM   11  C   UNL     1      44.376 -10.782   8.563  1.00  0.00     0.050 A 
HETATM   12  C   UNL     1      43.125 -10.354   8.999  1.00  0.00     0.135 A 
HETATM   13  N   UNL     1      42.922  -9.598  10.107  1.00  0.00    -0.248 NA
HETATM   14  C   UNL     1      44.020  -9.238  10.799  1.00  0.00     0.125 A 
HETATM   15 CL   UNL     1      43.718  -8.280  12.186  1.00  0.00    -0.063 Cl
HETATM   16  C   UNL     1      45.311  -9.592  10.444  1.00  0.00     0.045 A 
HETATM   17  C   UNL     1      45.493 -10.375   9.300  1.00  0.00     0.022 A 
ENDBRANCH   8  11
ENDBRANCH   4   7
BRANCH   1  18
HETATM   18  N   UNL     1      42.573 -15.733   2.480  1.00  0.00    -0.042 N 
HETATM   19  H   UNL     1      43.497 -15.810   2.036  1.00  0.00     0.286 HD
BRANCH  18  20
HETATM   20  C   UNL     1      41.711 -15.074   1.425  1.00  0.00     0.237 C 
HETATM   21  C   UNL     1      40.284 -15.595   1.481  1.00  0.00     0.035 C 
ENDBRANCH  18  20
BRANCH  18  22
HETATM   22  C   UNL     1      42.200 -17.157   2.823  1.00  0.00     0.237 C 
HETATM   23  C   UNL     1      43.256 -18.180   2.448  1.00  0.00     0.035 C 
ENDBRANCH  18  22
ENDBRANCH   1  18
TORSDOF 5
ENDMDL
MODEL 8
REMARK VINA RESULT:      -6.8      5.742      8.057
REMARK  5 active torsions:
REMARK  status: ('A' for Active; 'I' for Inactive)
REMARK    1  A    between atoms: C_2  and  N_3 
REMARK    2  A    between atoms: N_3  and  C_5 
REMARK    3  A    between atoms: N_3  and  C_21 
REMARK    4  A    between atoms: C_8  and  N_9 
REMARK       I    between atoms: N_9  and  C_10 
REMARK    5  A    between atoms: C_10  and  C_11 
ROOT
HETATM    1  C   UNL     1      43.185 -10.875   7.143  1.00  0.00     0.134 A 
HETATM    2  C   UNL     1      42.114 -11.163   6.300  1.00  0.00     0.039 A 
HETATM    3  C   UNL     1      42.107 -12.347   5.551  1.00  0.00     0.032 A 
HETATM    4  C   UNL     1      43.170 -13.249   5.623  1.00  0.00     0.035 A 
HETATM    5  C   UNL     1      44.249 -12.944   6.461  1.00  0.00     0.032 A 
HETATM    6  C   UNL     1      44.258 -11.767   7.220  1.00  0.00     0.039 A 
ENDROOT
BRANCH   4   7
HETATM    7  N   UNL     1      43.229 -14.464   4.905  1.00  0.00    -0.323 N 
HETATM    8  C   UNL     1      42.878 -15.723   5.371  1.00  0.00     0.257 C 
HETATM    9  O   UNL     1      42.412 -15.970   6.478  1.00  0.00    -0.267 OA
HETATM   10  H   UNL     1      43.523 -14.392   3.941  1.00  0.00     0.169 HD
BRANCH   8  11
HETATM   11  C   UNL     1      43.069 -16.855   4.425  1.00  0.00     0.050 A 
HETATM   12  C   UNL     1      43.908 -17.898   4.806  1.00  0.00     0.135 A 
HETATM   13  N   UNL     1      44.166 -18.987   4.041  1.00  0.00    -0.248 NA
HETATM   14  C   UNL     1      43.573 -19.027   2.832  1.00  0.00     0.125 A 
HETATM   15 CL   UNL     1      43.931 -20.416   1.896  1.00  0.00    -0.063 Cl
HETATM   16  C   UNL     1      42.737 -18.036   2.346  1.00  0.00     0.045 A 
HETATM   17  C   UNL     1      42.483 -16.926   3.157  1.00  0.00     0.022 A 
ENDBRANCH   8  11
ENDBRANCH   4   7
BRANCH   1  18
HETATM   18  N   UNL     1      43.226  -9.651   7.975  1.00  0.00    -0.042 N 
HETATM   19  H   UNL     1      43.444  -8.891   7.318  1.00  0.00     0.286 HD
BRANCH  18  20
HETATM   20  C   UNL     1      44.360  -9.611   8.975  1.00  0.00     0.237 C 
HETATM   21  C   UNL     1      45.415  -8.596   8.567  1.00  0.00     0.035 C 
ENDBRANCH  18  20
BRANCH  18  22
HETATM   22  C   UNL     1      41.864  -9.291   8.526  1.00  0.00     0.237 C 
HETATM   23  C   UNL     1      41.788  -9.301  10.040  1.00  0.00     0.035 C 
ENDBRANCH  18  22
ENDBRANCH   1  18
TORSDOF 5
ENDMDL
MODEL 9
REMARK VINA RESULT:      -6.3     11.509     13.976
REMARK  5 active torsions:
REMARK  status: ('A' for Active; 'I' for Inactive)
REMARK    1  A    between atoms: C_2  and  N_3 
REMARK    2  A    between atoms: N_3  and  C_5 
REMARK    3  A    between atoms: N_3  and  C_21 
REMARK    4  A    between atoms: C_8  and  N_9 
REMARK       I    between atoms: N_9  and  C_10 
REMARK    5  A    between atoms: C_10  and  C_11 
ROOT
HETATM    1  C   UNL     1      41.532  -7.631  15.338  1.00  0.00     0.134 A 
HETATM    2  C   UNL     1      42.660  -6.933  14.910  1.00  0.00     0.039 A 
HETATM    3  C   UNL     1      43.345  -7.341  13.759  1.00  0.00     0.032 A 
HETATM    4  C   UNL     1      42.924  -8.454  13.028  1.00  0.00     0.035 A 
HETATM    5  C   UNL     1      41.799  -9.158  13.474  1.00  0.00     0.032 A 
HETATM    6  C   UNL     1      41.103  -8.750  14.619  1.00  0.00     0.039 A 
ENDROOT
BRANCH   4   7
HETATM    7  N   UNL     1      43.559  -8.918  11.855  1.00  0.00    -0.323 N 
HETATM    8  C   UNL     1      43.453  -8.377  10.582  1.00  0.00     0.257 C 
HETATM    9  O   UNL     1      42.820  -7.369  10.286  1.00  0.00    -0.267 OA
HETATM   10  H   UNL     1      44.182  -9.705  11.974  1.00  0.00     0.169 HD
BRANCH   8  11
HETATM   11  C   UNL     1      44.195  -9.078   9.501  1.00  0.00     0.050 A 
HETATM   12  C   UNL     1      43.596 -10.182   8.900  1.00  0.00     0.135 A 
HETATM   13  N   UNL     1      44.163 -10.908   7.904  1.00  0.00    -0.248 NA
HETATM   14  C   UNL     1      45.391 -10.525   7.505  1.00  0.00     0.125 A 
HETATM   15 CL   UNL     1      46.071 -11.473   6.251  1.00  0.00    -0.063 Cl
HETATM   16  C   UNL     1      46.084  -9.456   8.046  1.00  0.00     0.045 A 
HETATM   17  C   UNL     1      45.476  -8.721   9.069  1.00  0.00     0.022 A 
ENDBRANCH   8  11
ENDBRANCH   4   7
BRANCH   1  18
HETATM   18  N   UNL     1      40.759  -7.223  16.533  1.00  0.00    -0.042 N 
HETATM   19  H   UNL     1      39.943  -7.849  16.547  1.00  0.00     0.286 HD
BRANCH  18  20
HETATM   20  C   UNL     1      40.158  -5.837  16.447  1.00  0.00     0.237 C 
HETATM   21  C   UNL     1      38.705  -5.896  16.005  1.00  0.00     0.035 C 
ENDBRANCH  18  20
BRANCH  18  22
HETATM   22  C   UNL     1      41.492  -7.531  17.818  1.00  0.00     0.237 C 
HETATM   23  C   UNL     1      41.070  -6.669  18.993  1.00  0.00     0.035 C 
ENDBRANCH  18  22
ENDBRANCH   1  18
TORSDOF 5
ENDMDL
MODEL 10
REMARK VINA RESULT:      -6.3      1.758      2.810
REMARK  5 active torsions:
REMARK  status: ('A' for Active; 'I' for Inactive)
REMARK    1  A    between atoms: C_2  and  N_3 
REMARK    2  A    between atoms: N_3  and  C_5 
REMARK    3  A    between atoms: N_3  and  C_21 
REMARK    4  A    between atoms: C_8  and  N_9 
REMARK       I    between atoms: N_9  and  C_10 
REMARK    5  A    between atoms: C_10  and  C_11 
ROOT
HETATM    1  C   UNL     1      41.905 -16.399   2.929  1.00  0.00     0.134 A 
HETATM    2  C   UNL     1      42.549 -15.715   1.899  1.00  0.00     0.039 A 
HETATM    3  C   UNL     1      41.837 -14.809   1.104  1.00  0.00     0.032 A 
HETATM    4  C   UNL     1      40.476 -14.581   1.315  1.00  0.00     0.035 A 
HETATM    5  C   UNL     1      39.833 -15.284   2.342  1.00  0.00     0.032 A 
HETATM    6  C   UNL     1      40.541 -16.185   3.147  1.00  0.00     0.039 A 
ENDROOT
BRANCH   4   7
HETATM    7  N   UNL     1      39.697 -13.676   0.560  1.00  0.00    -0.323 N 
HETATM    8  C   UNL     1      39.246 -13.850  -0.740  1.00  0.00     0.257 C 
HETATM    9  O   UNL     1      39.419 -14.851  -1.427  1.00  0.00    -0.267 OA
HETATM   10  H   UNL     1      39.412 -12.834   1.042  1.00  0.00     0.169 HD
BRANCH   8  11
HETATM   11  C   UNL     1      38.470 -12.726  -1.327  1.00  0.00     0.050 A 
HETATM   12  C   UNL     1      38.716 -11.438  -0.857  1.00  0.00     0.135 A 
HETATM   13  N   UNL     1      38.081 -10.328  -1.307  1.00  0.00    -0.248 NA
HETATM   14  C   UNL     1      37.144 -10.515  -2.256  1.00  0.00     0.125 A 
HETATM   15 CL   UNL     1      36.362  -9.088  -2.791  1.00  0.00    -0.063 Cl
HETATM   16  C   UNL     1      36.806 -11.752  -2.780  1.00  0.00     0.045 A 
HETATM   17  C   UNL     1      37.479 -12.880  -2.302  1.00  0.00     0.022 A 
ENDBRANCH   8  11
ENDBRANCH   4   7
BRANCH   1  18
HETATM   18  N   UNL     1      42.619 -17.347   3.814  1.00  0.00    -0.042 N 
HETATM   19  H   UNL     1      41.959 -18.121   3.961  1.00  0.00     0.286 HD
BRANCH  18  20
HETATM   20  C   UNL     1      42.889 -16.822   5.206  1.00  0.00     0.237 C 
HETATM   21  C   UNL     1      44.368 -16.903   5.546  1.00  0.00     0.035 C 
ENDBRANCH  18  20
BRANCH  18  22
HETATM   22  C   UNL     1      43.802 -17.988   3.124  1.00  0.00     0.237 C 
HETATM   23  C   UNL     1      43.501 -19.344   2.513  1.00  0.00     0.035 C 
ENDBRANCH  18  22
ENDBRANCH   1  18
TORSDOF 5
ENDMDL
