MODEL 1
REMARK VINA RESULT:      -9.5      0.000      0.000
REMARK  8 active torsions:
REMARK  status: ('A' for Active; 'I' for Inactive)
REMARK    1  A    between atoms: C_7  and  C_8 
REMARK       I    between atoms: C_8  and  N_9 
REMARK    2  A    between atoms: N_9  and  N_10 
REMARK    3  A    between atoms: N_10  and  C_11 
REMARK    4  A    between atoms: C_11  and  N_12 
REMARK    5  A    between atoms: N_12  and  C_13 
REMARK    6  A    between atoms: N_15  and  C_16 
REMARK    7  A    between atoms: C_16  and  C_17 
REMARK    8  A    between atoms: C_29  and  C_30 
ROOT
HETATM    1  C   UNL     1      41.093 -14.497   2.788  1.00  0.00     0.290 C 
HETATM    2  N   UNL     1      40.042 -14.459   3.681  1.00  0.00    -0.262 N 
HETATM    3  O   UNL     1      42.272 -14.638   3.099  1.00  0.00    -0.264 OA
HETATM    4  H   UNL     1      39.092 -14.454   3.307  1.00  0.00     0.190 HD
ENDROOT
BRANCH   2   5
HETATM    5  N   UNL     1      40.222 -14.761   5.030  1.00  0.00    -0.273 N 
HETATM    6  H   UNL     1      40.303 -15.749   5.296  1.00  0.00     0.189 HD
BRANCH   5   7
HETATM    7  C   UNL     1      40.602 -13.805   5.934  1.00  0.00     0.192 C 
HETATM    8  S   UNL     1      39.883 -12.295   6.082  1.00  0.00    -0.039 SA
BRANCH   7   9
HETATM    9  N   UNL     1      41.645 -14.097   6.764  1.00  0.00    -0.315 N 
HETATM   10  H   UNL     1      41.774 -13.461   7.538  1.00  0.00     0.170 HD
BRANCH   9  11
HETATM   11  C   UNL     1      42.583 -15.098   6.624  1.00  0.00     0.151 A 
HETATM   12  N   UNL     1      42.293 -16.398   6.514  1.00  0.00    -0.154 NA
HETATM   13  N   UNL     1      43.496 -16.996   6.374  1.00  0.00    -0.275 N 
HETATM   14  C   UNL     1      44.539 -16.116   6.403  1.00  0.00     0.116 A 
HETATM   15  C   UNL     1      43.976 -14.873   6.570  1.00  0.00     0.071 A 
BRANCH  13  16
HETATM   16  C   UNL     1      43.587 -18.448   6.295  1.00  0.00     0.192 C 
BRANCH  16  17
HETATM   17  C   UNL     1      43.604 -18.929   4.873  1.00  0.00     0.000 A 
HETATM   18  C   UNL     1      43.895 -20.263   4.582  1.00  0.00     0.124 A 
HETATM   19  F   UNL     1      44.152 -21.120   5.581  1.00  0.00    -0.205 F 
HETATM   20  C   UNL     1      43.919 -20.731   3.271  1.00  0.00     0.043 A 
HETATM   21  C   UNL     1      43.650 -19.854   2.223  1.00  0.00     0.003 A 
HETATM   22  C   UNL     1      43.366 -18.515   2.491  1.00  0.00     0.001 A 
HETATM   23  C   UNL     1      43.348 -18.051   3.809  1.00  0.00     0.012 A 
ENDBRANCH  16  17
ENDBRANCH  13  16
ENDBRANCH   9  11
ENDBRANCH   7   9
ENDBRANCH   5   7
ENDBRANCH   2   5
BRANCH   1  24
HETATM   24  C   UNL     1      40.636 -14.344   1.396  1.00  0.00     0.150 A 
HETATM   25  N   UNL     1      40.958 -13.255   0.663  1.00  0.00    -0.165 NA
HETATM   26  N   UNL     1      40.357 -13.472  -0.519  1.00  0.00    -0.240 N 
HETATM   27  C   UNL     1      39.698 -14.669  -0.591  1.00  0.00     0.123 A 
HETATM   28  C   UNL     1      40.510 -12.546  -1.622  1.00  0.00     0.221 C 
HETATM   29  N   UNL     1      39.090 -15.078  -1.726  1.00  0.00    -0.371 N 
HETATM   30  C   UNL     1      39.846 -15.253   0.640  1.00  0.00     0.089 A 
HETATM   31  C   UNL     1      38.913 -14.177  -2.858  1.00  0.00     0.081 C 
HETATM   32  H   UNL     1      38.480 -15.895  -1.709  1.00  0.00     0.161 HD
HETATM   33  C   UNL     1      37.539 -13.521  -2.795  1.00  0.00     0.032 C 
HETATM   34  C   UNL     1      40.095 -13.199  -2.954  1.00  0.00     0.061 C 
BRANCH  28  35
HETATM   35  C   UNL     1      39.793 -11.243  -1.341  1.00  0.00     0.409 C 
HETATM   36  F   UNL     1      39.305 -10.666  -2.461  1.00  0.00    -0.169 F 
HETATM   37  F   UNL     1      38.719 -11.475  -0.539  1.00  0.00    -0.169 F 
HETATM   38  F   UNL     1      40.555 -10.331  -0.708  1.00  0.00    -0.169 F 
ENDBRANCH  28  35
ENDBRANCH   1  24
TORSDOF 8
ENDMDL
MODEL 2
REMARK VINA RESULT:      -9.0      1.893      2.460
REMARK  8 active torsions:
REMARK  status: ('A' for Active; 'I' for Inactive)
REMARK    1  A    between atoms: C_7  and  C_8 
REMARK       I    between atoms: C_8  and  N_9 
REMARK    2  A    between atoms: N_9  and  N_10 
REMARK    3  A    between atoms: N_10  and  C_11 
REMARK    4  A    between atoms: C_11  and  N_12 
REMARK    5  A    between atoms: N_12  and  C_13 
REMARK    6  A    between atoms: N_15  and  C_16 
REMARK    7  A    between atoms: C_16  and  C_17 
REMARK    8  A    between atoms: C_29  and  C_30 
ROOT
HETATM    1  C   UNL     1      41.268 -13.542   2.582  1.00  0.00     0.290 C 
HETATM    2  N   UNL     1      42.169 -12.660   3.145  1.00  0.00    -0.262 N 
HETATM    3  O   UNL     1      41.041 -14.674   3.001  1.00  0.00    -0.264 OA
HETATM    4  H   UNL     1      42.196 -11.705   2.787  1.00  0.00     0.190 HD
ENDROOT
BRANCH   2   5
HETATM    5  N   UNL     1      42.781 -12.928   4.368  1.00  0.00    -0.273 N 
HETATM    6  H   UNL     1      43.786 -13.130   4.369  1.00  0.00     0.189 HD
BRANCH   5   7
HETATM    7  C   UNL     1      42.171 -12.625   5.556  1.00  0.00     0.192 C 
HETATM    8  S   UNL     1      41.683 -11.084   6.011  1.00  0.00    -0.039 SA
BRANCH   7   9
HETATM    9  N   UNL     1      41.955 -13.646   6.436  1.00  0.00    -0.315 N 
HETATM   10  H   UNL     1      41.514 -13.382   7.306  1.00  0.00     0.170 HD
BRANCH   9  11
HETATM   11  C   UNL     1      42.341 -14.964   6.313  1.00  0.00     0.151 A 
HETATM   12  N   UNL     1      43.502 -15.369   5.789  1.00  0.00    -0.154 NA
HETATM   13  N   UNL     1      43.463 -16.715   5.892  1.00  0.00    -0.275 N 
HETATM   14  C   UNL     1      42.307 -17.175   6.454  1.00  0.00     0.116 A 
HETATM   15  C   UNL     1      41.555 -16.060   6.734  1.00  0.00     0.071 A 
BRANCH  13  16
HETATM   16  C   UNL     1      44.547 -17.522   5.351  1.00  0.00     0.192 C 
BRANCH  16  17
HETATM   17  C   UNL     1      44.073 -18.429   4.252  1.00  0.00     0.000 A 
HETATM   18  C   UNL     1      44.140 -19.816   4.402  1.00  0.00     0.124 A 
HETATM   19  F   UNL     1      44.623 -20.339   5.538  1.00  0.00    -0.205 F 
HETATM   20  C   UNL     1      43.709 -20.676   3.396  1.00  0.00     0.043 A 
HETATM   21  C   UNL     1      43.199 -20.148   2.211  1.00  0.00     0.003 A 
HETATM   22  C   UNL     1      43.132 -18.765   2.038  1.00  0.00     0.001 A 
HETATM   23  C   UNL     1      43.571 -17.908   3.051  1.00  0.00     0.012 A 
ENDBRANCH  16  17
ENDBRANCH  13  16
ENDBRANCH   9  11
ENDBRANCH   7   9
ENDBRANCH   5   7
ENDBRANCH   2   5
BRANCH   1  24
HETATM   24  C   UNL     1      40.600 -12.966   1.403  1.00  0.00     0.150 A 
HETATM   25  N   UNL     1      39.830 -13.721   0.589  1.00  0.00    -0.165 NA
HETATM   26  N   UNL     1      39.420 -12.861  -0.358  1.00  0.00    -0.240 N 
HETATM   27  C   UNL     1      39.860 -11.580  -0.168  1.00  0.00     0.123 A 
HETATM   28  C   UNL     1      38.511 -13.274  -1.407  1.00  0.00     0.221 C 
HETATM   29  N   UNL     1      39.493 -10.573  -0.989  1.00  0.00    -0.371 N 
HETATM   30  C   UNL     1      40.642 -11.615   0.959  1.00  0.00     0.089 A 
HETATM   31  C   UNL     1      38.796 -10.833  -2.243  1.00  0.00     0.081 C 
HETATM   32  H   UNL     1      39.953  -9.666  -0.918  1.00  0.00     0.161 HD
HETATM   33  C   UNL     1      39.795 -10.914  -3.390  1.00  0.00     0.032 C 
HETATM   34  C   UNL     1      37.873 -12.054  -2.098  1.00  0.00     0.061 C 
BRANCH  28  35
HETATM   35  C   UNL     1      39.187 -14.226  -2.370  1.00  0.00     0.409 C 
HETATM   36  F   UNL     1      40.524 -14.044  -2.429  1.00  0.00    -0.169 F 
HETATM   37  F   UNL     1      38.999 -15.508  -1.954  1.00  0.00    -0.169 F 
HETATM   38  F   UNL     1      38.707 -14.156  -3.627  1.00  0.00    -0.169 F 
ENDBRANCH  28  35
ENDBRANCH   1  24
TORSDOF 8
ENDMDL
MODEL 3
REMARK VINA RESULT:      -9.0      5.262      7.981
REMARK  8 active torsions:
REMARK  status: ('A' for Active; 'I' for Inactive)
REMARK    1  A    between atoms: C_7  and  C_8 
REMARK       I    between atoms: C_8  and  N_9 
REMARK    2  A    between atoms: N_9  and  N_10 
REMARK    3  A    between atoms: N_10  and  C_11 
REMARK    4  A    between atoms: C_11  and  N_12 
REMARK    5  A    between atoms: N_12  and  C_13 
REMARK    6  A    between atoms: N_15  and  C_16 
REMARK    7  A    between atoms: C_16  and  C_17 
REMARK    8  A    between atoms: C_29  and  C_30 
ROOT
HETATM    1  C   UNL     1      42.462 -11.976   5.767  1.00  0.00     0.290 C 
HETATM    2  N   UNL     1      41.525 -11.803   4.769  1.00  0.00    -0.262 N 
HETATM    3  O   UNL     1      43.176 -12.967   5.895  1.00  0.00    -0.264 OA
HETATM    4  H   UNL     1      41.069 -10.894   4.689  1.00  0.00     0.190 HD
ENDROOT
BRANCH   2   5
HETATM    5  N   UNL     1      41.435 -12.688   3.696  1.00  0.00    -0.273 N 
HETATM    6  H   UNL     1      42.307 -13.040   3.287  1.00  0.00     0.189 HD
BRANCH   5   7
HETATM    7  C   UNL     1      40.262 -13.325   3.389  1.00  0.00     0.192 C 
HETATM    8  S   UNL     1      39.020 -12.651   2.482  1.00  0.00    -0.039 SA
BRANCH   7   9
HETATM    9  N   UNL     1      40.087 -14.593   3.864  1.00  0.00    -0.315 N 
HETATM   10  H   UNL     1      39.159 -14.975   3.746  1.00  0.00     0.170 HD
BRANCH   9  11
HETATM   11  C   UNL     1      40.994 -15.370   4.552  1.00  0.00     0.151 A 
HETATM   12  N   UNL     1      42.213 -15.687   4.107  1.00  0.00    -0.154 NA
HETATM   13  N   UNL     1      42.749 -16.428   5.100  1.00  0.00    -0.275 N 
HETATM   14  C   UNL     1      41.902 -16.600   6.156  1.00  0.00     0.116 A 
HETATM   15  C   UNL     1      40.750 -15.928   5.827  1.00  0.00     0.071 A 
BRANCH  13  16
HETATM   16  C   UNL     1      44.070 -17.020   4.941  1.00  0.00     0.192 C 
BRANCH  16  17
HETATM   17  C   UNL     1      43.992 -18.429   4.428  1.00  0.00     0.000 A 
HETATM   18  C   UNL     1      43.840 -18.675   3.061  1.00  0.00     0.124 A 
HETATM   19  F   UNL     1      43.773 -17.647   2.204  1.00  0.00    -0.205 F 
HETATM   20  C   UNL     1      43.763 -19.973   2.562  1.00  0.00     0.043 A 
HETATM   21  C   UNL     1      43.836 -21.053   3.440  1.00  0.00     0.003 A 
HETATM   22  C   UNL     1      43.978 -20.828   4.810  1.00  0.00     0.001 A 
HETATM   23  C   UNL     1      44.051 -19.523   5.304  1.00  0.00     0.012 A 
ENDBRANCH  16  17
ENDBRANCH  13  16
ENDBRANCH   9  11
ENDBRANCH   7   9
ENDBRANCH   5   7
ENDBRANCH   2   5
BRANCH   1  24
HETATM   24  C   UNL     1      42.511 -10.822   6.681  1.00  0.00     0.150 A 
HETATM   25  N   UNL     1      43.604 -10.561   7.432  1.00  0.00    -0.165 NA
HETATM   26  N   UNL     1      43.263  -9.464   8.128  1.00  0.00    -0.240 N 
HETATM   27  C   UNL     1      42.017  -8.985   7.829  1.00  0.00     0.123 A 
HETATM   28  C   UNL     1      44.202  -8.820   9.023  1.00  0.00     0.221 C 
HETATM   29  N   UNL     1      41.537  -7.854   8.389  1.00  0.00    -0.371 N 
HETATM   30  C   UNL     1      41.494  -9.852   6.904  1.00  0.00     0.089 A 
HETATM   31  C   UNL     1      42.224  -7.208   9.501  1.00  0.00     0.081 C 
HETATM   32  H   UNL     1      40.555  -7.605   8.269  1.00  0.00     0.161 HD
HETATM   33  C   UNL     1      41.633  -7.677  10.825  1.00  0.00     0.032 C 
HETATM   34  C   UNL     1      43.744  -7.390   9.369  1.00  0.00     0.061 C 
BRANCH  28  35
HETATM   35  C   UNL     1      44.468  -9.677  10.241  1.00  0.00     0.409 C 
HETATM   36  F   UNL     1      44.647  -8.946  11.363  1.00  0.00    -0.169 F 
HETATM   37  F   UNL     1      43.395 -10.478  10.481  1.00  0.00    -0.169 F 
HETATM   38  F   UNL     1      45.533 -10.491  10.109  1.00  0.00    -0.169 F 
ENDBRANCH  28  35
ENDBRANCH   1  24
TORSDOF 8
ENDMDL
MODEL 4
REMARK VINA RESULT:      -8.8      6.466      9.530
REMARK  8 active torsions:
REMARK  status: ('A' for Active; 'I' for Inactive)
REMARK    1  A    between atoms: C_7  and  C_8 
REMARK       I    between atoms: C_8  and  N_9 
REMARK    2  A    between atoms: N_9  and  N_10 
REMARK    3  A    between atoms: N_10  and  C_11 
REMARK    4  A    between atoms: C_11  and  N_12 
REMARK    5  A    between atoms: N_12  and  C_13 
REMARK    6  A    between atoms: N_15  and  C_16 
REMARK    7  A    between atoms: C_16  and  C_17 
REMARK    8  A    between atoms: C_29  and  C_30 
ROOT
HETATM    1  C   UNL     1      44.376 -10.688   8.817  1.00  0.00     0.290 C 
HETATM    2  N   UNL     1      43.399 -11.443   8.201  1.00  0.00    -0.262 N 
HETATM    3  O   UNL     1      45.585 -10.855   8.676  1.00  0.00    -0.264 OA
HETATM    4  H   UNL     1      42.428 -11.146   8.298  1.00  0.00     0.190 HD
ENDROOT
BRANCH   2   5
HETATM    5  N   UNL     1      43.714 -12.367   7.206  1.00  0.00    -0.273 N 
HETATM    6  H   UNL     1      44.330 -13.149   7.453  1.00  0.00     0.189 HD
BRANCH   5   7
HETATM    7  C   UNL     1      42.997 -12.439   6.042  1.00  0.00     0.192 C 
HETATM    8  S   UNL     1      43.139 -11.356   4.767  1.00  0.00    -0.039 SA
BRANCH   7   9
HETATM    9  N   UNL     1      42.095 -13.457   5.915  1.00  0.00    -0.315 N 
HETATM   10  H   UNL     1      41.125 -13.175   5.893  1.00  0.00     0.170 HD
BRANCH   9  11
HETATM   11  C   UNL     1      42.347 -14.812   5.897  1.00  0.00     0.151 A 
HETATM   12  N   UNL     1      43.529 -15.360   5.598  1.00  0.00    -0.154 NA
HETATM   13  N   UNL     1      43.323 -16.688   5.729  1.00  0.00    -0.275 N 
HETATM   14  C   UNL     1      42.043 -16.998   6.090  1.00  0.00     0.116 A 
HETATM   15  C   UNL     1      41.383 -15.798   6.202  1.00  0.00     0.071 A 
BRANCH  13  16
HETATM   16  C   UNL     1      44.388 -17.629   5.411  1.00  0.00     0.192 C 
BRANCH  16  17
HETATM   17  C   UNL     1      44.005 -18.545   4.284  1.00  0.00     0.000 A 
HETATM   18  C   UNL     1      44.118 -19.929   4.430  1.00  0.00     0.124 A 
HETATM   19  F   UNL     1      44.563 -20.442   5.586  1.00  0.00    -0.205 F 
HETATM   20  C   UNL     1      43.771 -20.797   3.398  1.00  0.00     0.043 A 
HETATM   21  C   UNL     1      43.302 -20.280   2.192  1.00  0.00     0.003 A 
HETATM   22  C   UNL     1      43.190 -18.900   2.024  1.00  0.00     0.001 A 
HETATM   23  C   UNL     1      43.544 -18.034   3.062  1.00  0.00     0.012 A 
ENDBRANCH  16  17
ENDBRANCH  13  16
ENDBRANCH   9  11
ENDBRANCH   7   9
ENDBRANCH   5   7
ENDBRANCH   2   5
BRANCH   1  24
HETATM   24  C   UNL     1      43.800  -9.644   9.681  1.00  0.00     0.150 A 
HETATM   25  N   UNL     1      43.252  -9.942  10.881  1.00  0.00    -0.165 NA
HETATM   26  N   UNL     1      42.832  -8.755  11.348  1.00  0.00    -0.240 N 
HETATM   27  C   UNL     1      43.119  -7.704  10.522  1.00  0.00     0.123 A 
HETATM   28  C   UNL     1      42.230  -8.634  12.659  1.00  0.00     0.221 C 
HETATM   29  N   UNL     1      42.825  -6.430  10.863  1.00  0.00    -0.371 N 
HETATM   30  C   UNL     1      43.734  -8.247   9.423  1.00  0.00     0.089 A 
HETATM   31  C   UNL     1      41.990  -6.130  12.019  1.00  0.00     0.081 C 
HETATM   32  H   UNL     1      42.907  -5.687  10.170  1.00  0.00     0.161 HD
HETATM   33  C   UNL     1      40.538  -5.961  11.587  1.00  0.00     0.032 C 
HETATM   34  C   UNL     1      42.220  -7.167  13.130  1.00  0.00     0.061 C 
BRANCH  28  35
HETATM   35  C   UNL     1      40.865  -9.285  12.693  1.00  0.00     0.409 C 
HETATM   36  F   UNL     1      40.912 -10.573  13.099  1.00  0.00    -0.169 F 
HETATM   37  F   UNL     1      40.070  -8.638  13.588  1.00  0.00    -0.169 F 
HETATM   38  F   UNL     1      40.219  -9.252  11.512  1.00  0.00    -0.169 F 
ENDBRANCH  28  35
ENDBRANCH   1  24
TORSDOF 8
ENDMDL
MODEL 5
REMARK VINA RESULT:      -8.7      4.038      5.693
REMARK  8 active torsions:
REMARK  status: ('A' for Active; 'I' for Inactive)
REMARK    1  A    between atoms: C_7  and  C_8 
REMARK       I    between atoms: C_8  and  N_9 
REMARK    2  A    between atoms: N_9  and  N_10 
REMARK    3  A    between atoms: N_10  and  C_11 
REMARK    4  A    between atoms: C_11  and  N_12 
REMARK    5  A    between atoms: N_12  and  C_13 
REMARK    6  A    between atoms: N_15  and  C_16 
REMARK    7  A    between atoms: C_16  and  C_17 
REMARK    8  A    between atoms: C_29  and  C_30 
ROOT
HETATM    1  C   UNL     1      40.937 -11.057  -0.892  1.00  0.00     0.290 C 
HETATM    2  N   UNL     1      41.046 -12.320  -1.437  1.00  0.00    -0.262 N 
HETATM    3  O   UNL     1      40.625 -10.821   0.272  1.00  0.00    -0.264 OA
HETATM    4  H   UNL     1      41.423 -12.407  -2.382  1.00  0.00     0.190 HD
ENDROOT
BRANCH   2   5
HETATM    5  N   UNL     1      40.980 -13.463  -0.643  1.00  0.00    -0.273 N 
HETATM    6  H   UNL     1      41.579 -13.508   0.189  1.00  0.00     0.189 HD
BRANCH   5   7
HETATM    7  C   UNL     1      39.946 -14.355  -0.755  1.00  0.00     0.192 C 
HETATM    8  S   UNL     1      39.093 -14.651  -2.170  1.00  0.00    -0.039 SA
BRANCH   7   9
HETATM    9  N   UNL     1      39.578 -15.042   0.366  1.00  0.00    -0.315 N 
HETATM   10  H   UNL     1      38.586 -15.199   0.471  1.00  0.00     0.170 HD
BRANCH   9  11
HETATM   11  C   UNL     1      40.384 -15.468   1.400  1.00  0.00     0.151 A 
HETATM   12  N   UNL     1      41.697 -15.696   1.294  1.00  0.00    -0.154 NA
HETATM   13  N   UNL     1      42.073 -16.065   2.537  1.00  0.00    -0.275 N 
HETATM   14  C   UNL     1      41.036 -16.089   3.425  1.00  0.00     0.116 A 
HETATM   15  C   UNL     1      39.923 -15.711   2.713  1.00  0.00     0.071 A 
BRANCH  13  16
HETATM   16  C   UNL     1      43.448 -16.467   2.797  1.00  0.00     0.192 C 
BRANCH  16  17
HETATM   17  C   UNL     1      43.560 -17.943   3.050  1.00  0.00     0.000 A 
HETATM   18  C   UNL     1      44.121 -18.416   4.238  1.00  0.00     0.124 A 
HETATM   19  F   UNL     1      44.554 -17.544   5.161  1.00  0.00    -0.205 F 
HETATM   20  C   UNL     1      44.237 -19.779   4.494  1.00  0.00     0.043 A 
HETATM   21  C   UNL     1      43.786 -20.697   3.547  1.00  0.00     0.003 A 
HETATM   22  C   UNL     1      43.231 -20.245   2.349  1.00  0.00     0.001 A 
HETATM   23  C   UNL     1      43.122 -18.875   2.098  1.00  0.00     0.012 A 
ENDBRANCH  16  17
ENDBRANCH  13  16
ENDBRANCH   9  11
ENDBRANCH   7   9
ENDBRANCH   5   7
ENDBRANCH   2   5
BRANCH   1  24
HETATM   24  C   UNL     1      41.238 -10.006  -1.878  1.00  0.00     0.150 A 
HETATM   25  N   UNL     1      42.139  -9.032  -1.619  1.00  0.00    -0.165 NA
HETATM   26  N   UNL     1      42.123  -8.274  -2.728  1.00  0.00    -0.240 N 
HETATM   27  C   UNL     1      41.283  -8.739  -3.703  1.00  0.00     0.123 A 
HETATM   28  C   UNL     1      43.009  -7.138  -2.875  1.00  0.00     0.221 C 
HETATM   29  N   UNL     1      41.189  -8.135  -4.907  1.00  0.00    -0.371 N 
HETATM   30  C   UNL     1      40.681  -9.854  -3.178  1.00  0.00     0.089 A 
HETATM   31  C   UNL     1      41.803  -6.837  -5.154  1.00  0.00     0.081 C 
HETATM   32  H   UNL     1      40.449  -8.406  -5.555  1.00  0.00     0.161 HD
HETATM   33  C   UNL     1      40.786  -5.725  -4.928  1.00  0.00     0.032 C 
HETATM   34  C   UNL     1      43.105  -6.698  -4.349  1.00  0.00     0.061 C 
BRANCH  28  35
HETATM   35  C   UNL     1      42.617  -6.017  -1.938  1.00  0.00     0.409 C 
HETATM   36  F   UNL     1      43.297  -6.051  -0.771  1.00  0.00    -0.169 F 
HETATM   37  F   UNL     1      42.911  -4.817  -2.509  1.00  0.00    -0.169 F 
HETATM   38  F   UNL     1      41.302  -5.990  -1.646  1.00  0.00    -0.169 F 
ENDBRANCH  28  35
ENDBRANCH   1  24
TORSDOF 8
ENDMDL
MODEL 6
REMARK VINA RESULT:      -8.7      1.988      2.334
REMARK  8 active torsions:
REMARK  status: ('A' for Active; 'I' for Inactive)
REMARK    1  A    between atoms: C_7  and  C_8 
REMARK       I    between atoms: C_8  and  N_9 
REMARK    2  A    between atoms: N_9  and  N_10 
REMARK    3  A    between atoms: N_10  and  C_11 
REMARK    4  A    between atoms: C_11  and  N_12 
REMARK    5  A    between atoms: N_12  and  C_13 
REMARK    6  A    between atoms: N_15  and  C_16 
REMARK    7  A    between atoms: C_16  and  C_17 
REMARK    8  A    between atoms: C_29  and  C_30 
ROOT
HETATM    1  C   UNL     1      41.528 -11.593   2.886  1.00  0.00     0.290 C 
HETATM    2  N   UNL     1      42.387 -12.445   3.549  1.00  0.00    -0.262 N 
HETATM    3  O   UNL     1      41.210 -10.473   3.278  1.00  0.00    -0.264 OA
HETATM    4  H   UNL     1      42.673 -13.304   3.078  1.00  0.00     0.190 HD
ENDROOT
BRANCH   2   5
HETATM    5  N   UNL     1      43.117 -12.023   4.659  1.00  0.00    -0.273 N 
HETATM    6  H   UNL     1      43.948 -11.443   4.497  1.00  0.00     0.189 HD
BRANCH   5   7
HETATM    7  C   UNL     1      42.598 -12.087   5.925  1.00  0.00     0.192 C 
HETATM    8  S   UNL     1      42.784 -10.895   7.092  1.00  0.00    -0.039 SA
BRANCH   7   9
HETATM    9  N   UNL     1      41.890 -13.205   6.263  1.00  0.00    -0.315 N 
HETATM   10  H   UNL     1      40.978 -13.035   6.662  1.00  0.00     0.170 HD
BRANCH   9  11
HETATM   11  C   UNL     1      42.303 -14.518   6.201  1.00  0.00     0.151 A 
HETATM   12  N   UNL     1      43.481 -14.920   5.714  1.00  0.00    -0.154 NA
HETATM   13  N   UNL     1      43.467 -16.261   5.873  1.00  0.00    -0.275 N 
HETATM   14  C   UNL     1      42.311 -16.722   6.435  1.00  0.00     0.116 A 
HETATM   15  C   UNL     1      41.532 -15.611   6.654  1.00  0.00     0.071 A 
BRANCH  13  16
HETATM   16  C   UNL     1      44.577 -17.068   5.385  1.00  0.00     0.192 C 
BRANCH  16  17
HETATM   17  C   UNL     1      44.122 -18.100   4.393  1.00  0.00     0.000 A 
HETATM   18  C   UNL     1      43.570 -17.711   3.171  1.00  0.00     0.124 A 
HETATM   19  F   UNL     1      43.456 -16.407   2.879  1.00  0.00    -0.205 F 
HETATM   20  C   UNL     1      43.140 -18.649   2.237  1.00  0.00     0.043 A 
HETATM   21  C   UNL     1      43.257 -20.008   2.523  1.00  0.00     0.003 A 
HETATM   22  C   UNL     1      43.797 -20.418   3.743  1.00  0.00     0.001 A 
HETATM   23  C   UNL     1      44.223 -19.470   4.677  1.00  0.00     0.012 A 
ENDBRANCH  16  17
ENDBRANCH  13  16
ENDBRANCH   9  11
ENDBRANCH   7   9
ENDBRANCH   5   7
ENDBRANCH   2   5
BRANCH   1  24
HETATM   24  C   UNL     1      41.025 -12.185   1.635  1.00  0.00     0.150 A 
HETATM   25  N   UNL     1      41.369 -11.683   0.427  1.00  0.00    -0.165 NA
HETATM   26  N   UNL     1      40.712 -12.465  -0.446  1.00  0.00    -0.240 N 
HETATM   27  C   UNL     1      39.995 -13.469   0.143  1.00  0.00     0.123 A 
HETATM   28  C   UNL     1      40.865 -12.288  -1.875  1.00  0.00     0.221 C 
HETATM   29  N   UNL     1      39.324 -14.386  -0.587  1.00  0.00    -0.371 N 
HETATM   30  C   UNL     1      40.163 -13.308   1.495  1.00  0.00     0.089 A 
HETATM   31  C   UNL     1      39.145 -14.227  -2.025  1.00  0.00     0.081 C 
HETATM   32  H   UNL     1      38.677 -15.027  -0.128  1.00  0.00     0.161 HD
HETATM   33  C   UNL     1      37.807 -13.557  -2.315  1.00  0.00     0.032 C 
HETATM   34  C   UNL     1      40.367 -13.528  -2.642  1.00  0.00     0.061 C 
BRANCH  28  35
HETATM   35  C   UNL     1      40.222 -10.998  -2.336  1.00  0.00     0.409 C 
HETATM   36  F   UNL     1      41.103  -9.977  -2.416  1.00  0.00    -0.169 F 
HETATM   37  F   UNL     1      39.718 -11.160  -3.589  1.00  0.00    -0.169 F 
HETATM   38  F   UNL     1      39.198 -10.596  -1.559  1.00  0.00    -0.169 F 
ENDBRANCH  28  35
ENDBRANCH   1  24
TORSDOF 8
ENDMDL
MODEL 7
REMARK VINA RESULT:      -8.7      5.757      8.945
REMARK  8 active torsions:
REMARK  status: ('A' for Active; 'I' for Inactive)
REMARK    1  A    between atoms: C_7  and  C_8 
REMARK       I    between atoms: C_8  and  N_9 
REMARK    2  A    between atoms: N_9  and  N_10 
REMARK    3  A    between atoms: N_10  and  C_11 
REMARK    4  A    between atoms: C_11  and  N_12 
REMARK    5  A    between atoms: N_12  and  C_13 
REMARK    6  A    between atoms: N_15  and  C_16 
REMARK    7  A    between atoms: C_16  and  C_17 
REMARK    8  A    between atoms: C_29  and  C_30 
ROOT
HETATM    1  C   UNL     1      39.275 -10.338   7.153  1.00  0.00     0.290 C 
HETATM    2  N   UNL     1      39.673 -11.653   7.024  1.00  0.00    -0.262 N 
HETATM    3  O   UNL     1      38.712  -9.687   6.276  1.00  0.00    -0.264 OA
HETATM    4  H   UNL     1      40.028 -12.132   7.853  1.00  0.00     0.190 HD
ENDROOT
BRANCH   2   5
HETATM    5  N   UNL     1      39.303 -12.420   5.921  1.00  0.00    -0.273 N 
HETATM    6  H   UNL     1      38.331 -12.363   5.599  1.00  0.00     0.189 HD
BRANCH   5   7
HETATM    7  C   UNL     1      40.238 -12.980   5.091  1.00  0.00     0.192 C 
HETATM    8  S   UNL     1      41.466 -12.128   4.327  1.00  0.00    -0.039 SA
BRANCH   7   9
HETATM    9  N   UNL     1      40.157 -14.323   4.861  1.00  0.00    -0.315 N 
HETATM   10  H   UNL     1      39.641 -14.851   5.551  1.00  0.00     0.170 HD
BRANCH   9  11
HETATM   11  C   UNL     1      40.759 -15.046   3.853  1.00  0.00     0.151 A 
HETATM   12  N   UNL     1      42.018 -15.492   3.888  1.00  0.00    -0.154 NA
HETATM   13  N   UNL     1      42.169 -16.157   2.723  1.00  0.00    -0.275 N 
HETATM   14  C   UNL     1      41.047 -16.135   1.945  1.00  0.00     0.116 A 
HETATM   15  C   UNL     1      40.114 -15.415   2.652  1.00  0.00     0.071 A 
BRANCH  13  16
HETATM   16  C   UNL     1      43.459 -16.733   2.370  1.00  0.00     0.192 C 
BRANCH  16  17
HETATM   17  C   UNL     1      43.609 -18.130   2.898  1.00  0.00     0.000 A 
HETATM   18  C   UNL     1      44.116 -18.350   4.181  1.00  0.00     0.124 A 
HETATM   19  F   UNL     1      44.463 -17.305   4.946  1.00  0.00    -0.205 F 
HETATM   20  C   UNL     1      44.266 -19.636   4.691  1.00  0.00     0.043 A 
HETATM   21  C   UNL     1      43.906 -20.732   3.910  1.00  0.00     0.003 A 
HETATM   22  C   UNL     1      43.406 -20.535   2.623  1.00  0.00     0.001 A 
HETATM   23  C   UNL     1      43.262 -19.241   2.115  1.00  0.00     0.012 A 
ENDBRANCH  16  17
ENDBRANCH  13  16
ENDBRANCH   9  11
ENDBRANCH   7   9
ENDBRANCH   5   7
ENDBRANCH   2   5
BRANCH   1  24
HETATM   24  C   UNL     1      39.606  -9.791   8.479  1.00  0.00     0.150 A 
HETATM   25  N   UNL     1      40.732  -9.072   8.685  1.00  0.00    -0.165 NA
HETATM   26  N   UNL     1      40.688  -8.771   9.993  1.00  0.00    -0.240 N 
HETATM   27  C   UNL     1      39.567  -9.230  10.628  1.00  0.00     0.123 A 
HETATM   28  C   UNL     1      41.705  -7.943  10.609  1.00  0.00     0.221 C 
HETATM   29  N   UNL     1      39.328  -8.964  11.931  1.00  0.00    -0.371 N 
HETATM   30  C   UNL     1      38.850  -9.910   9.678  1.00  0.00     0.089 A 
HETATM   31  C   UNL     1      40.351  -8.370  12.783  1.00  0.00     0.081 C 
HETATM   32  H   UNL     1      38.570  -9.443  12.416  1.00  0.00     0.161 HD
HETATM   33  C   UNL     1      41.114  -9.462  13.524  1.00  0.00     0.032 C 
HETATM   34  C   UNL     1      41.229  -7.404  11.971  1.00  0.00     0.061 C 
BRANCH  28  35
HETATM   35  C   UNL     1      43.029  -8.671  10.681  1.00  0.00     0.409 C 
HETATM   36  F   UNL     1      43.753  -8.330  11.770  1.00  0.00    -0.169 F 
HETATM   37  F   UNL     1      42.811 -10.010  10.778  1.00  0.00    -0.169 F 
HETATM   38  F   UNL     1      43.808  -8.487   9.598  1.00  0.00    -0.169 F 
ENDBRANCH  28  35
ENDBRANCH   1  24
TORSDOF 8
ENDMDL
MODEL 8
REMARK VINA RESULT:      -8.6      2.579      3.265
REMARK  8 active torsions:
REMARK  status: ('A' for Active; 'I' for Inactive)
REMARK    1  A    between atoms: C_7  and  C_8 
REMARK       I    between atoms: C_8  and  N_9 
REMARK    2  A    between atoms: N_9  and  N_10 
REMARK    3  A    between atoms: N_10  and  C_11 
REMARK    4  A    between atoms: C_11  and  N_12 
REMARK    5  A    between atoms: N_12  and  C_13 
REMARK    6  A    between atoms: N_15  and  C_16 
REMARK    7  A    between atoms: C_16  and  C_17 
REMARK    8  A    between atoms: C_29  and  C_30 
ROOT
HETATM    1  C   UNL     1      42.534 -10.983   3.067  1.00  0.00     0.290 C 
HETATM    2  N   UNL     1      41.849 -10.173   3.950  1.00  0.00    -0.262 N 
HETATM    3  O   UNL     1      43.678 -11.395   3.238  1.00  0.00    -0.264 OA
HETATM    4  H   UNL     1      40.863  -9.984   3.764  1.00  0.00     0.190 HD
ENDROOT
BRANCH   2   5
HETATM    5  N   UNL     1      42.349  -9.895   5.221  1.00  0.00    -0.273 N 
HETATM    6  H   UNL     1      43.029  -9.133   5.314  1.00  0.00     0.189 HD
BRANCH   5   7
HETATM    7  C   UNL     1      41.744 -10.377   6.351  1.00  0.00     0.192 C 
HETATM    8  S   UNL     1      41.607  -9.530   7.793  1.00  0.00    -0.039 SA
BRANCH   7   9
HETATM    9  N   UNL     1      41.226 -11.639   6.302  1.00  0.00    -0.315 N 
HETATM   10  H   UNL     1      40.217 -11.693   6.300  1.00  0.00     0.170 HD
BRANCH   9  11
HETATM   11  C   UNL     1      41.909 -12.835   6.341  1.00  0.00     0.151 A 
HETATM   12  N   UNL     1      41.350 -14.035   6.154  1.00  0.00    -0.154 NA
HETATM   13  N   UNL     1      42.381 -14.902   6.253  1.00  0.00    -0.275 N 
HETATM   14  C   UNL     1      43.574 -14.289   6.508  1.00  0.00     0.116 A 
HETATM   15  C   UNL     1      43.298 -12.945   6.576  1.00  0.00     0.071 A 
BRANCH  13  16
HETATM   16  C   UNL     1      42.141 -16.336   6.171  1.00  0.00     0.192 C 
BRANCH  16  17
HETATM   17  C   UNL     1      42.515 -16.888   4.826  1.00  0.00     0.000 A 
HETATM   18  C   UNL     1      43.547 -17.822   4.708  1.00  0.00     0.124 A 
HETATM   19  F   UNL     1      44.200 -18.234   5.804  1.00  0.00    -0.205 F 
HETATM   20  C   UNL     1      43.913 -18.346   3.471  1.00  0.00     0.043 A 
HETATM   21  C   UNL     1      43.240 -17.933   2.323  1.00  0.00     0.003 A 
HETATM   22  C   UNL     1      42.213 -16.994   2.418  1.00  0.00     0.001 A 
HETATM   23  C   UNL     1      41.854 -16.469   3.662  1.00  0.00     0.012 A 
ENDBRANCH  16  17
ENDBRANCH  13  16
ENDBRANCH   9  11
ENDBRANCH   7   9
ENDBRANCH   5   7
ENDBRANCH   2   5
BRANCH   1  24
HETATM   24  C   UNL     1      41.730 -11.301   1.876  1.00  0.00     0.150 A 
HETATM   25  N   UNL     1      40.870 -12.344   1.861  1.00  0.00    -0.165 NA
HETATM   26  N   UNL     1      40.350 -12.316   0.623  1.00  0.00    -0.240 N 
HETATM   27  C   UNL     1      40.805 -11.280  -0.145  1.00  0.00     0.123 A 
HETATM   28  C   UNL     1      39.323 -13.255   0.218  1.00  0.00     0.221 C 
HETATM   29  N   UNL     1      40.341 -11.064  -1.394  1.00  0.00    -0.371 N 
HETATM   30  C   UNL     1      41.715 -10.609   0.632  1.00  0.00     0.089 A 
HETATM   31  C   UNL     1      39.501 -12.044  -2.071  1.00  0.00     0.081 C 
HETATM   32  H   UNL     1      40.804 -10.384  -1.998  1.00  0.00     0.161 HD
HETATM   33  C   UNL     1      40.358 -12.955  -2.943  1.00  0.00     0.032 C 
HETATM   34  C   UNL     1      38.606 -12.773  -1.057  1.00  0.00     0.061 C 
BRANCH  28  35
HETATM   35  C   UNL     1      39.883 -14.656   0.100  1.00  0.00     0.409 C 
HETATM   36  F   UNL     1      41.221 -14.668  -0.087  1.00  0.00    -0.169 F 
HETATM   37  F   UNL     1      39.658 -15.338   1.255  1.00  0.00    -0.169 F 
HETATM   38  F   UNL     1      39.325 -15.380  -0.888  1.00  0.00    -0.169 F 
ENDBRANCH  28  35
ENDBRANCH   1  24
TORSDOF 8
ENDMDL
MODEL 9
REMARK VINA RESULT:      -8.6      6.273      9.206
REMARK  8 active torsions:
REMARK  status: ('A' for Active; 'I' for Inactive)
REMARK    1  A    between atoms: C_7  and  C_8 
REMARK       I    between atoms: C_8  and  N_9 
REMARK    2  A    between atoms: N_9  and  N_10 
REMARK    3  A    between atoms: N_10  and  C_11 
REMARK    4  A    between atoms: C_11  and  N_12 
REMARK    5  A    between atoms: N_12  and  C_13 
REMARK    6  A    between atoms: N_15  and  C_16 
REMARK    7  A    between atoms: C_16  and  C_17 
REMARK    8  A    between atoms: C_29  and  C_30 
ROOT
HETATM    1  C   UNL     1      43.738 -13.109   6.618  1.00  0.00     0.290 C 
HETATM    2  N   UNL     1      44.704 -12.237   6.159  1.00  0.00    -0.262 N 
HETATM    3  O   UNL     1      43.612 -13.464   7.787  1.00  0.00    -0.264 OA
HETATM    4  H   UNL     1      44.647 -11.921   5.190  1.00  0.00     0.190 HD
ENDROOT
BRANCH   2   5
HETATM    5  N   UNL     1      45.528 -11.536   7.038  1.00  0.00    -0.273 N 
HETATM    6  H   UNL     1      46.516 -11.805   7.090  1.00  0.00     0.189 HD
BRANCH   5   7
HETATM    7  C   UNL     1      45.145 -10.336   7.576  1.00  0.00     0.192 C 
HETATM    8  S   UNL     1      46.204  -9.130   8.066  1.00  0.00    -0.039 SA
BRANCH   7   9
HETATM    9  N   UNL     1      43.807 -10.112   7.735  1.00  0.00    -0.315 N 
HETATM   10  H   UNL     1      43.274 -10.051   6.879  1.00  0.00     0.170 HD
BRANCH   9  11
HETATM   11  C   UNL     1      43.123  -9.878   8.908  1.00  0.00     0.151 A 
HETATM   12  N   UNL     1      43.468 -10.375  10.099  1.00  0.00    -0.154 NA
HETATM   13  N   UNL     1      42.546  -9.873  10.950  1.00  0.00    -0.275 N 
HETATM   14  C   UNL     1      41.621  -9.083  10.331  1.00  0.00     0.116 A 
HETATM   15  C   UNL     1      41.966  -9.071   9.001  1.00  0.00     0.071 A 
BRANCH  13  16
HETATM   16  C   UNL     1      42.559 -10.259  12.354  1.00  0.00     0.192 C 
BRANCH  16  17
HETATM   17  C   UNL     1      42.377  -9.074  13.259  1.00  0.00     0.000 A 
HETATM   18  C   UNL     1      41.253  -8.979  14.081  1.00  0.00     0.124 A 
HETATM   19  F   UNL     1      40.335  -9.957  14.067  1.00  0.00    -0.205 F 
HETATM   20  C   UNL     1      41.062  -7.890  14.926  1.00  0.00     0.043 A 
HETATM   21  C   UNL     1      42.009  -6.868  14.956  1.00  0.00     0.003 A 
HETATM   22  C   UNL     1      43.135  -6.940  14.135  1.00  0.00     0.001 A 
HETATM   23  C   UNL     1      43.318  -8.034  13.286  1.00  0.00     0.012 A 
ENDBRANCH  16  17
ENDBRANCH  13  16
ENDBRANCH   9  11
ENDBRANCH   7   9
ENDBRANCH   5   7
ENDBRANCH   2   5
BRANCH   1  24
HETATM   24  C   UNL     1      42.860 -13.577   5.532  1.00  0.00     0.150 A 
HETATM   25  N   UNL     1      42.649 -14.894   5.313  1.00  0.00    -0.165 NA
HETATM   26  N   UNL     1      41.824 -14.917   4.253  1.00  0.00    -0.240 N 
HETATM   27  C   UNL     1      41.466 -13.675   3.806  1.00  0.00     0.123 A 
HETATM   28  C   UNL     1      41.305 -16.164   3.731  1.00  0.00     0.221 C 
HETATM   29  N   UNL     1      40.594 -13.510   2.787  1.00  0.00    -0.371 N 
HETATM   30  C   UNL     1      42.132 -12.782   4.604  1.00  0.00     0.089 A 
HETATM   31  C   UNL     1      40.163 -14.637   1.969  1.00  0.00     0.081 C 
HETATM   32  H   UNL     1      40.462 -12.587   2.375  1.00  0.00     0.161 HD
HETATM   33  C   UNL     1      41.033 -14.741   0.722  1.00  0.00     0.032 C 
HETATM   34  C   UNL     1      40.090 -15.917   2.817  1.00  0.00     0.061 C 
BRANCH  28  35
HETATM   35  C   UNL     1      42.398 -16.976   3.071  1.00  0.00     0.409 C 
HETATM   36  F   UNL     1      43.376 -16.204   2.548  1.00  0.00    -0.169 F 
HETATM   37  F   UNL     1      43.000 -17.771   3.997  1.00  0.00    -0.169 F 
HETATM   38  F   UNL     1      41.954 -17.791   2.096  1.00  0.00    -0.169 F 
ENDBRANCH  28  35
ENDBRANCH   1  24
TORSDOF 8
ENDMDL
MODEL 10
REMARK VINA RESULT:      -8.5      7.286     10.588
REMARK  8 active torsions:
REMARK  status: ('A' for Active; 'I' for Inactive)
REMARK    1  A    between atoms: C_7  and  C_8 
REMARK       I    between atoms: C_8  and  N_9 
REMARK    2  A    between atoms: N_9  and  N_10 
REMARK    3  A    between atoms: N_10  and  C_11 
REMARK    4  A    between atoms: C_11  and  N_12 
REMARK    5  A    between atoms: N_12  and  C_13 
REMARK    6  A    between atoms: N_15  and  C_16 
REMARK    7  A    between atoms: C_16  and  C_17 
REMARK    8  A    between atoms: C_29  and  C_30 
ROOT
HETATM    1  C   UNL     1      42.692  -9.745   9.361  1.00  0.00     0.290 C 
HETATM    2  N   UNL     1      43.527 -10.843   9.338  1.00  0.00    -0.262 N 
HETATM    3  O   UNL     1      42.129  -9.272   8.377  1.00  0.00    -0.264 OA
HETATM    4  H   UNL     1      43.850 -11.221  10.229  1.00  0.00     0.190 HD
ENDROOT
BRANCH   2   5
HETATM    5  N   UNL     1      43.664 -11.629   8.195  1.00  0.00    -0.273 N 
HETATM    6  H   UNL     1      42.866 -12.205   7.908  1.00  0.00     0.189 HD
BRANCH   5   7
HETATM    7  C   UNL     1      44.678 -11.419   7.299  1.00  0.00     0.192 C 
HETATM    8  S   UNL     1      46.101 -10.598   7.644  1.00  0.00    -0.039 SA
BRANCH   7   9
HETATM    9  N   UNL     1      44.513 -11.903   6.032  1.00  0.00    -0.315 N 
HETATM   10  H   UNL     1      45.135 -11.515   5.337  1.00  0.00     0.170 HD
BRANCH   9  11
HETATM   11  C   UNL     1      43.555 -12.785   5.582  1.00  0.00     0.151 A 
HETATM   12  N   UNL     1      43.388 -14.026   6.047  1.00  0.00    -0.154 NA
HETATM   13  N   UNL     1      42.338 -14.507   5.348  1.00  0.00    -0.275 N 
HETATM   14  C   UNL     1      41.841 -13.611   4.445  1.00  0.00     0.116 A 
HETATM   15  C   UNL     1      42.616 -12.483   4.570  1.00  0.00     0.071 A 
BRANCH  13  16
HETATM   16  C   UNL     1      41.900 -15.883   5.536  1.00  0.00     0.192 C 
BRANCH  16  17
HETATM   17  C   UNL     1      42.621 -16.828   4.620  1.00  0.00     0.000 A 
HETATM   18  C   UNL     1      43.676 -17.608   5.098  1.00  0.00     0.124 A 
HETATM   19  F   UNL     1      44.039 -17.518   6.386  1.00  0.00    -0.205 F 
HETATM   20  C   UNL     1      44.362 -18.490   4.267  1.00  0.00     0.043 A 
HETATM   21  C   UNL     1      43.993 -18.600   2.927  1.00  0.00     0.003 A 
HETATM   22  C   UNL     1      42.948 -17.822   2.428  1.00  0.00     0.001 A 
HETATM   23  C   UNL     1      42.267 -16.936   3.267  1.00  0.00     0.012 A 
ENDBRANCH  16  17
ENDBRANCH  13  16
ENDBRANCH   9  11
ENDBRANCH   7   9
ENDBRANCH   5   7
ENDBRANCH   2   5
BRANCH   1  24
HETATM   24  C   UNL     1      42.549  -9.192  10.718  1.00  0.00     0.150 A 
HETATM   25  N   UNL     1      41.392  -9.302  11.408  1.00  0.00    -0.165 NA
HETATM   26  N   UNL     1      41.646  -8.675  12.568  1.00  0.00    -0.240 N 
HETATM   27  C   UNL     1      42.925  -8.202  12.671  1.00  0.00     0.123 A 
HETATM   28  C   UNL     1      40.659  -8.622  13.626  1.00  0.00     0.221 C 
HETATM   29  N   UNL     1      43.372  -7.599  13.794  1.00  0.00    -0.371 N 
HETATM   30  C   UNL     1      43.535  -8.507  11.481  1.00  0.00     0.089 A 
HETATM   31  C   UNL     1      42.459  -7.223  14.867  1.00  0.00     0.081 C 
HETATM   32  H   UNL     1      44.273  -7.122  13.791  1.00  0.00     0.161 HD
HETATM   33  C   UNL     1      42.027  -5.771  14.701  1.00  0.00     0.032 C 
HETATM   34  C   UNL     1      41.307  -8.235  14.969  1.00  0.00     0.061 C 
BRANCH  28  35
HETATM   35  C   UNL     1      39.496  -7.733  13.242  1.00  0.00     0.409 C 
HETATM   36  F   UNL     1      38.985  -7.059  14.296  1.00  0.00    -0.169 F 
HETATM   37  F   UNL     1      39.916  -6.787  12.358  1.00  0.00    -0.169 F 
HETATM   38  F   UNL     1      38.484  -8.392  12.647  1.00  0.00    -0.169 F 
ENDBRANCH  28  35
ENDBRANCH   1  24
TORSDOF 8
ENDMDL
