MODEL 1
REMARK VINA RESULT:      -9.2      0.000      0.000
REMARK  7 active torsions:
REMARK  status: ('A' for Active; 'I' for Inactive)
REMARK    1  A    between atoms: O_2  and  C_3 
REMARK    2  A    between atoms: N_7  and  C_9 
REMARK    3  A    between atoms: C_9  and  C_10 
REMARK    4  A    between atoms: C_11  and  O_12 
REMARK    5  A    between atoms: C_22  and  N_23 
REMARK       I    between atoms: N_23  and  C_24 
REMARK    6  A    between atoms: C_24  and  C_25 
REMARK    7  A    between atoms: C_25  and  C_26 
ROOT
HETATM    1  C   UNL     1      41.696 -14.063   4.928  1.00  0.00     0.161 C 
HETATM    2  C   UNL     1      41.864 -14.984   3.654  1.00  0.00     0.019 C 
HETATM    3  C   UNL     1      42.631 -14.232   2.539  1.00  0.00     0.045 C 
HETATM    4  C   UNL     1      41.769 -13.187   1.832  1.00  0.00     0.236 C 
HETATM    5  N   UNL     1      40.486 -13.796   1.336  1.00  0.00    -0.067 N 
HETATM    6  H   UNL     1      39.902 -13.018   0.986  1.00  0.00     0.280 HD
HETATM    7  C   UNL     1      39.694 -14.432   2.447  1.00  0.00     0.236 C 
HETATM    8  C   UNL     1      40.523 -15.523   3.105  1.00  0.00     0.045 C 
HETATM    9  C   UNL     1      42.713 -16.118   4.187  1.00  0.00    -0.038 A 
HETATM   10  C   UNL     1      43.201 -15.846   5.466  1.00  0.00    -0.026 A 
HETATM   11  C   UNL     1      42.804 -14.483   5.952  1.00  0.00     0.148 C 
HETATM   12  C   UNL     1      43.043 -17.314   3.553  1.00  0.00     0.009 A 
HETATM   13  C   UNL     1      43.851 -18.236   4.222  1.00  0.00     0.001 A 
HETATM   14  C   UNL     1      44.326 -17.962   5.510  1.00  0.00     0.001 A 
HETATM   15  C   UNL     1      44.004 -16.761   6.138  1.00  0.00     0.010 A 
ENDROOT
BRANCH   1  16
HETATM   16  O   UNL     1      40.370 -14.233   5.465  1.00  0.00    -0.387 OA
HETATM   17  C   UNL     1      39.764 -13.005   5.868  1.00  0.00     0.202 C 
ENDBRANCH   1  16
BRANCH  11  18
HETATM   18  N   UNL     1      43.968 -13.615   5.974  1.00  0.00    -0.350 N 
HETATM   19  C   UNL     1      43.881 -12.289   6.340  1.00  0.00     0.223 C 
HETATM   20  O   UNL     1      42.808 -11.696   6.422  1.00  0.00    -0.273 OA
HETATM   21  H   UNL     1      44.877 -14.061   6.020  1.00  0.00     0.163 HD
BRANCH  19  22
HETATM   22  C   UNL     1      45.218 -11.624   6.619  1.00  0.00     0.148 C 
BRANCH  22  23
HETATM   23  C   UNL     1      45.150 -10.793   7.862  1.00  0.00    -0.009 A 
HETATM   24  S   UNL     1      46.135  -9.399   8.035  1.00  0.00    -0.106 SA
HETATM   25  C   UNL     1      45.564  -9.115   9.621  1.00  0.00     0.050 A 
HETATM   26  C   UNL     1      44.637 -10.055  10.013  1.00  0.00     0.008 A 
HETATM   27  C   UNL     1      44.395 -11.021   8.995  1.00  0.00     0.015 A 
ENDBRANCH  22  23
ENDBRANCH  19  22
ENDBRANCH  11  18
BRANCH   5  28
HETATM   28  C   UNL     1      40.624 -14.674   0.108  1.00  0.00     0.276 C 
BRANCH  28  29
HETATM   29  C   UNL     1      39.902 -14.135  -1.096  1.00  0.00     0.002 A 
HETATM   30  C   UNL     1      39.014 -14.941  -1.819  1.00  0.00     0.073 A 
HETATM   31  C   UNL     1      38.363 -14.466  -2.955  1.00  0.00     0.039 A 
HETATM   32  C   UNL     1      38.590 -13.155  -3.377  1.00  0.00     0.026 A 
HETATM   33  C   UNL     1      39.463 -12.337  -2.664  1.00  0.00     0.034 A 
HETATM   34 CL   UNL     1      39.732 -10.717  -3.174  1.00  0.00    -0.084 Cl
HETATM   35  C   UNL     1      40.123 -12.819  -1.532  1.00  0.00     0.035 A 
BRANCH  30  36
HETATM   36  O   UNL     1      38.779 -16.208  -1.360  1.00  0.00    -0.360 OA
HETATM   37  H   UNL     1      37.876 -16.466  -1.634  1.00  0.00     0.217 HD
ENDBRANCH  30  36
ENDBRANCH  28  29
ENDBRANCH   5  28
TORSDOF 7
ENDMDL
MODEL 2
REMARK VINA RESULT:      -9.0      3.101      5.732
REMARK  7 active torsions:
REMARK  status: ('A' for Active; 'I' for Inactive)
REMARK    1  A    between atoms: O_2  and  C_3 
REMARK    2  A    between atoms: N_7  and  C_9 
REMARK    3  A    between atoms: C_9  and  C_10 
REMARK    4  A    between atoms: C_11  and  O_12 
REMARK    5  A    between atoms: C_22  and  N_23 
REMARK       I    between atoms: N_23  and  C_24 
REMARK    6  A    between atoms: C_24  and  C_25 
REMARK    7  A    between atoms: C_25  and  C_26 
ROOT
HETATM    1  C   UNL     1      43.590 -11.216   6.798  1.00  0.00     0.161 C 
HETATM    2  C   UNL     1      42.286 -10.840   5.988  1.00  0.00     0.019 C 
HETATM    3  C   UNL     1      41.095 -11.718   6.443  1.00  0.00     0.045 C 
HETATM    4  C   UNL     1      41.175 -13.145   5.905  1.00  0.00     0.236 C 
HETATM    5  N   UNL     1      41.352 -13.146   4.411  1.00  0.00    -0.067 N 
HETATM    6  H   UNL     1      41.526 -14.127   4.132  1.00  0.00     0.280 HD
HETATM    7  C   UNL     1      42.576 -12.380   3.985  1.00  0.00     0.236 C 
HETATM    8  C   UNL     1      42.465 -10.939   4.456  1.00  0.00     0.045 C 
HETATM    9  C   UNL     1      42.053  -9.403   6.403  1.00  0.00    -0.038 A 
HETATM   10  C   UNL     1      42.886  -9.025   7.458  1.00  0.00    -0.026 A 
HETATM   11  C   UNL     1      43.751 -10.153   7.937  1.00  0.00     0.148 C 
HETATM   12  C   UNL     1      41.135  -8.497   5.880  1.00  0.00     0.009 A 
HETATM   13  C   UNL     1      41.074  -7.207   6.412  1.00  0.00     0.001 A 
HETATM   14  C   UNL     1      41.923  -6.830   7.459  1.00  0.00     0.001 A 
HETATM   15  C   UNL     1      42.834  -7.741   7.990  1.00  0.00     0.010 A 
ENDROOT
BRANCH   1  16
HETATM   16  O   UNL     1      44.719 -11.225   5.903  1.00  0.00    -0.387 OA
HETATM   17  C   UNL     1      45.975 -11.228   6.581  1.00  0.00     0.202 C 
ENDBRANCH   1  16
BRANCH  11  18
HETATM   18  N   UNL     1      43.297 -10.593   9.244  1.00  0.00    -0.350 N 
HETATM   19  C   UNL     1      44.158 -10.707  10.314  1.00  0.00     0.223 C 
HETATM   20  O   UNL     1      45.380 -10.695  10.182  1.00  0.00    -0.273 OA
HETATM   21  H   UNL     1      42.305 -10.515   9.440  1.00  0.00     0.163 HD
BRANCH  19  22
HETATM   22  C   UNL     1      43.473 -10.860  11.661  1.00  0.00     0.148 C 
BRANCH  22  23
HETATM   23  C   UNL     1      42.874  -9.563  12.104  1.00  0.00    -0.009 A 
HETATM   24  S   UNL     1      41.289  -9.511  12.759  1.00  0.00    -0.106 SA
HETATM   25  C   UNL     1      41.336  -7.808  12.906  1.00  0.00     0.050 A 
HETATM   26  C   UNL     1      42.535  -7.286  12.472  1.00  0.00     0.008 A 
HETATM   27  C   UNL     1      43.423  -8.299  12.013  1.00  0.00     0.015 A 
ENDBRANCH  22  23
ENDBRANCH  19  22
ENDBRANCH  11  18
BRANCH   5  28
HETATM   28  C   UNL     1      40.110 -12.800   3.616  1.00  0.00     0.276 C 
BRANCH  28  29
HETATM   29  C   UNL     1      40.033 -13.503   2.289  1.00  0.00     0.002 A 
HETATM   30  C   UNL     1      39.986 -14.901   2.222  1.00  0.00     0.073 A 
HETATM   31  C   UNL     1      39.946 -15.568   0.999  1.00  0.00     0.039 A 
HETATM   32  C   UNL     1      39.942 -14.829  -0.185  1.00  0.00     0.026 A 
HETATM   33  C   UNL     1      39.979 -13.438  -0.135  1.00  0.00     0.034 A 
HETATM   34 CL   UNL     1      39.958 -12.526  -1.593  1.00  0.00    -0.084 Cl
HETATM   35  C   UNL     1      40.030 -12.772   1.091  1.00  0.00     0.035 A 
BRANCH  30  36
HETATM   36  O   UNL     1      39.951 -15.599   3.398  1.00  0.00    -0.360 OA
HETATM   37  H   UNL     1      40.734 -16.186   3.425  1.00  0.00     0.217 HD
ENDBRANCH  30  36
ENDBRANCH  28  29
ENDBRANCH   5  28
TORSDOF 7
ENDMDL
MODEL 3
REMARK VINA RESULT:      -8.9      1.810      2.046
REMARK  7 active torsions:
REMARK  status: ('A' for Active; 'I' for Inactive)
REMARK    1  A    between atoms: O_2  and  C_3 
REMARK    2  A    between atoms: N_7  and  C_9 
REMARK    3  A    between atoms: C_9  and  C_10 
REMARK    4  A    between atoms: C_11  and  O_12 
REMARK    5  A    between atoms: C_22  and  N_23 
REMARK       I    between atoms: N_23  and  C_24 
REMARK    6  A    between atoms: C_24  and  C_25 
REMARK    7  A    between atoms: C_25  and  C_26 
ROOT
HETATM    1  C   UNL     1      41.721 -13.311   5.358  1.00  0.00     0.161 C 
HETATM    2  C   UNL     1      42.063 -13.963   3.959  1.00  0.00     0.019 C 
HETATM    3  C   UNL     1      42.983 -13.029   3.138  1.00  0.00     0.045 C 
HETATM    4  C   UNL     1      42.235 -11.836   2.545  1.00  0.00     0.236 C 
HETATM    5  N   UNL     1      41.032 -12.291   1.764  1.00  0.00    -0.067 N 
HETATM    6  H   UNL     1      40.507 -11.439   1.502  1.00  0.00     0.280 HD
HETATM    7  C   UNL     1      40.088 -13.109   2.603  1.00  0.00     0.236 C 
HETATM    8  C   UNL     1      40.810 -14.337   3.134  1.00  0.00     0.045 C 
HETATM    9  C   UNL     1      42.822 -15.209   4.363  1.00  0.00    -0.038 A 
HETATM   10  C   UNL     1      43.126 -15.214   5.726  1.00  0.00    -0.026 A 
HETATM   11  C   UNL     1      42.670 -13.963   6.419  1.00  0.00     0.148 C 
HETATM   12  C   UNL     1      43.234 -16.263   3.552  1.00  0.00     0.009 A 
HETATM   13  C   UNL     1      43.935 -17.327   4.125  1.00  0.00     0.001 A 
HETATM   14  C   UNL     1      44.224 -17.333   5.494  1.00  0.00     0.001 A 
HETATM   15  C   UNL     1      43.822 -16.271   6.303  1.00  0.00     0.010 A 
ENDROOT
BRANCH   1  16
HETATM   16  O   UNL     1      40.331 -13.541   5.662  1.00  0.00    -0.387 OA
HETATM   17  C   UNL     1      39.645 -12.363   6.085  1.00  0.00     0.202 C 
ENDBRANCH   1  16
BRANCH  11  18
HETATM   18  N   UNL     1      43.823 -13.157   6.776  1.00  0.00    -0.350 N 
HETATM   19  C   UNL     1      43.711 -11.815   7.070  1.00  0.00     0.223 C 
HETATM   20  O   UNL     1      42.701 -11.164   6.808  1.00  0.00    -0.273 OA
HETATM   21  H   UNL     1      44.647 -13.647   7.108  1.00  0.00     0.163 HD
BRANCH  19  22
HETATM   22  C   UNL     1      44.938 -11.209   7.729  1.00  0.00     0.148 C 
BRANCH  22  23
HETATM   23  C   UNL     1      44.557 -10.061   8.610  1.00  0.00    -0.009 A 
HETATM   24  S   UNL     1      43.889 -10.338  10.166  1.00  0.00    -0.106 SA
HETATM   25  C   UNL     1      43.673  -8.665  10.442  1.00  0.00     0.050 A 
HETATM   26  C   UNL     1      44.104  -7.906   9.376  1.00  0.00     0.008 A 
HETATM   27  C   UNL     1      44.618  -8.712   8.321  1.00  0.00     0.015 A 
ENDBRANCH  22  23
ENDBRANCH  19  22
ENDBRANCH  11  18
BRANCH   5  28
HETATM   28  C   UNL     1      41.338 -12.909   0.415  1.00  0.00     0.276 C 
BRANCH  28  29
HETATM   29  C   UNL     1      40.160 -12.917  -0.521  1.00  0.00     0.002 A 
HETATM   30  C   UNL     1      39.386 -11.765  -0.707  1.00  0.00     0.073 A 
HETATM   31  C   UNL     1      38.273 -11.767  -1.545  1.00  0.00     0.039 A 
HETATM   32  C   UNL     1      37.928 -12.937  -2.224  1.00  0.00     0.026 A 
HETATM   33  C   UNL     1      38.694 -14.088  -2.057  1.00  0.00     0.034 A 
HETATM   34 CL   UNL     1      38.280 -15.524  -2.906  1.00  0.00    -0.084 Cl
HETATM   35  C   UNL     1      39.802 -14.087  -1.208  1.00  0.00     0.035 A 
BRANCH  30  36
HETATM   36  O   UNL     1      39.770 -10.622  -0.060  1.00  0.00    -0.360 OA
HETATM   37  H   UNL     1      40.353 -10.116  -0.662  1.00  0.00     0.217 HD
ENDBRANCH  30  36
ENDBRANCH  28  29
ENDBRANCH   5  28
TORSDOF 7
ENDMDL
MODEL 4
REMARK VINA RESULT:      -8.7      1.671      2.124
REMARK  7 active torsions:
REMARK  status: ('A' for Active; 'I' for Inactive)
REMARK    1  A    between atoms: O_2  and  C_3 
REMARK    2  A    between atoms: N_7  and  C_9 
REMARK    3  A    between atoms: C_9  and  C_10 
REMARK    4  A    between atoms: C_11  and  O_12 
REMARK    5  A    between atoms: C_22  and  N_23 
REMARK       I    between atoms: N_23  and  C_24 
REMARK    6  A    between atoms: C_24  and  C_25 
REMARK    7  A    between atoms: C_25  and  C_26 
ROOT
HETATM    1  C   UNL     1      41.019 -12.695   4.127  1.00  0.00     0.161 C 
HETATM    2  C   UNL     1      41.277 -13.225   2.661  1.00  0.00     0.019 C 
HETATM    3  C   UNL     1      42.120 -12.205   1.857  1.00  0.00     0.045 C 
HETATM    4  C   UNL     1      41.307 -10.989   1.414  1.00  0.00     0.236 C 
HETATM    5  N   UNL     1      40.064 -11.413   0.680  1.00  0.00    -0.067 N 
HETATM    6  H   UNL     1      39.504 -10.557   0.524  1.00  0.00     0.280 HD
HETATM    7  C   UNL     1      39.197 -12.320   1.512  1.00  0.00     0.236 C 
HETATM    8  C   UNL     1      39.979 -13.566   1.893  1.00  0.00     0.045 C 
HETATM    9  C   UNL     1      42.089 -14.478   2.911  1.00  0.00    -0.038 A 
HETATM   10  C   UNL     1      42.486 -14.582   4.246  1.00  0.00    -0.026 A 
HETATM   11  C   UNL     1      42.052 -13.403   5.066  1.00  0.00     0.148 C 
HETATM   12  C   UNL     1      42.466 -15.454   1.992  1.00  0.00     0.009 A 
HETATM   13  C   UNL     1      43.228 -16.540   2.429  1.00  0.00     0.001 A 
HETATM   14  C   UNL     1      43.609 -16.646   3.771  1.00  0.00     0.001 A 
HETATM   15  C   UNL     1      43.241 -15.663   4.688  1.00  0.00     0.010 A 
ENDROOT
BRANCH   1  16
HETATM   16  O   UNL     1      39.658 -12.985   4.504  1.00  0.00    -0.387 OA
HETATM   17  C   UNL     1      39.093 -12.003   5.372  1.00  0.00     0.202 C 
ENDBRANCH   1  16
BRANCH  11  18
HETATM   18  N   UNL     1      43.210 -12.597   5.409  1.00  0.00    -0.350 N 
HETATM   19  C   UNL     1      43.907 -12.786   6.584  1.00  0.00     0.223 C 
HETATM   20  O   UNL     1      43.461 -13.453   7.515  1.00  0.00    -0.273 OA
HETATM   21  H   UNL     1      43.681 -12.115   4.651  1.00  0.00     0.163 HD
BRANCH  19  22
HETATM   22  C   UNL     1      45.257 -12.094   6.632  1.00  0.00     0.148 C 
BRANCH  22  23
HETATM   23  C   UNL     1      45.170 -10.808   7.394  1.00  0.00    -0.009 A 
HETATM   24  S   UNL     1      43.653 -10.054   7.663  1.00  0.00    -0.106 SA
HETATM   25  C   UNL     1      44.382  -8.723   8.449  1.00  0.00     0.050 A 
HETATM   26  C   UNL     1      45.753  -8.848   8.513  1.00  0.00     0.008 A 
HETATM   27  C   UNL     1      46.207 -10.054   7.907  1.00  0.00     0.015 A 
ENDBRANCH  22  23
ENDBRANCH  19  22
ENDBRANCH  11  18
BRANCH   5  28
HETATM   28  C   UNL     1      40.290 -11.914  -0.731  1.00  0.00     0.276 C 
BRANCH  28  29
HETATM   29  C   UNL     1      39.014 -12.152  -1.493  1.00  0.00     0.002 A 
HETATM   30  C   UNL     1      38.658 -13.441  -1.907  1.00  0.00     0.073 A 
HETATM   31  C   UNL     1      37.497 -13.673  -2.640  1.00  0.00     0.039 A 
HETATM   32  C   UNL     1      36.663 -12.600  -2.960  1.00  0.00     0.026 A 
HETATM   33  C   UNL     1      36.998 -11.313  -2.548  1.00  0.00     0.034 A 
HETATM   34 CL   UNL     1      35.964  -9.994  -2.928  1.00  0.00    -0.084 Cl
HETATM   35  C   UNL     1      38.168 -11.082  -1.822  1.00  0.00     0.035 A 
BRANCH  30  36
HETATM   36  O   UNL     1      39.473 -14.479  -1.545  1.00  0.00    -0.360 OA
HETATM   37  H   UNL     1      40.212 -14.114  -1.017  1.00  0.00     0.217 HD
ENDBRANCH  30  36
ENDBRANCH  28  29
ENDBRANCH   5  28
TORSDOF 7
ENDMDL
MODEL 5
REMARK VINA RESULT:      -8.7      4.481      8.503
REMARK  7 active torsions:
REMARK  status: ('A' for Active; 'I' for Inactive)
REMARK    1  A    between atoms: O_2  and  C_3 
REMARK    2  A    between atoms: N_7  and  C_9 
REMARK    3  A    between atoms: C_9  and  C_10 
REMARK    4  A    between atoms: C_11  and  O_12 
REMARK    5  A    between atoms: C_22  and  N_23 
REMARK       I    between atoms: N_23  and  C_24 
REMARK    6  A    between atoms: C_24  and  C_25 
REMARK    7  A    between atoms: C_25  and  C_26 
ROOT
HETATM    1  C   UNL     1      40.766 -12.722   0.507  1.00  0.00     0.161 C 
HETATM    2  C   UNL     1      40.928 -13.141   2.022  1.00  0.00     0.019 C 
HETATM    3  C   UNL     1      42.416 -13.081   2.444  1.00  0.00     0.045 C 
HETATM    4  C   UNL     1      43.231 -14.252   1.898  1.00  0.00     0.236 C 
HETATM    5  N   UNL     1      42.587 -15.565   2.249  1.00  0.00    -0.067 N 
HETATM    6  H   UNL     1      43.113 -16.299   1.746  1.00  0.00     0.280 HD
HETATM    7  C   UNL     1      41.173 -15.656   1.739  1.00  0.00     0.236 C 
HETATM    8  C   UNL     1      40.341 -14.535   2.340  1.00  0.00     0.045 C 
HETATM    9  C   UNL     1      40.146 -12.061   2.739  1.00  0.00    -0.038 A 
HETATM   10  C   UNL     1      39.781 -11.025   1.878  1.00  0.00    -0.026 A 
HETATM   11  C   UNL     1      40.304 -11.226   0.486  1.00  0.00     0.148 C 
HETATM   12  C   UNL     1      39.802 -12.003   4.087  1.00  0.00     0.009 A 
HETATM   13  C   UNL     1      39.075 -10.906   4.556  1.00  0.00     0.001 A 
HETATM   14  C   UNL     1      38.699  -9.878   3.684  1.00  0.00     0.001 A 
HETATM   15  C   UNL     1      39.054  -9.931   2.337  1.00  0.00     0.010 A 
ENDROOT
BRANCH   1  16
HETATM   16  O   UNL     1      39.809 -13.592  -0.127  1.00  0.00    -0.387 OA
HETATM   17  C   UNL     1      39.245 -13.039  -1.316  1.00  0.00     0.202 C 
ENDBRANCH   1  16
BRANCH  11  18
HETATM   18  N   UNL     1      41.363 -10.269   0.221  1.00  0.00    -0.350 N 
HETATM   19  C   UNL     1      41.584  -9.757  -1.040  1.00  0.00     0.223 C 
HETATM   20  O   UNL     1      41.085 -10.251  -2.049  1.00  0.00    -0.273 OA
HETATM   21  H   UNL     1      41.729  -9.752   1.013  1.00  0.00     0.163 HD
BRANCH  19  22
HETATM   22  C   UNL     1      42.499  -8.546  -1.076  1.00  0.00     0.148 C 
BRANCH  22  23
HETATM   23  C   UNL     1      42.140  -7.641  -2.213  1.00  0.00    -0.009 A 
HETATM   24  S   UNL     1      40.691  -6.724  -2.176  1.00  0.00    -0.106 SA
HETATM   25  C   UNL     1      40.972  -6.096  -3.741  1.00  0.00     0.050 A 
HETATM   26  C   UNL     1      42.147  -6.568  -4.283  1.00  0.00     0.008 A 
HETATM   27  C   UNL     1      42.823  -7.457  -3.399  1.00  0.00     0.015 A 
ENDBRANCH  22  23
ENDBRANCH  19  22
ENDBRANCH  11  18
BRANCH   5  28
HETATM   28  C   UNL     1      42.740 -15.991   3.695  1.00  0.00     0.276 C 
BRANCH  28  29
HETATM   29  C   UNL     1      43.174 -17.422   3.855  1.00  0.00     0.002 A 
HETATM   30  C   UNL     1      43.515 -17.930   5.115  1.00  0.00     0.073 A 
HETATM   31  C   UNL     1      43.950 -19.244   5.274  1.00  0.00     0.039 A 
HETATM   32  C   UNL     1      44.036 -20.077   4.157  1.00  0.00     0.026 A 
HETATM   33  C   UNL     1      43.692 -19.590   2.899  1.00  0.00     0.034 A 
HETATM   34 CL   UNL     1      43.783 -20.620   1.526  1.00  0.00    -0.084 Cl
HETATM   35  C   UNL     1      43.267 -18.269   2.740  1.00  0.00     0.035 A 
BRANCH  30  36
HETATM   36  O   UNL     1      43.383 -17.103   6.197  1.00  0.00    -0.360 OA
HETATM   37  H   UNL     1      44.232 -16.634   6.325  1.00  0.00     0.217 HD
ENDBRANCH  30  36
ENDBRANCH  28  29
ENDBRANCH   5  28
TORSDOF 7
ENDMDL
MODEL 6
REMARK VINA RESULT:      -8.6      3.866      7.527
REMARK  7 active torsions:
REMARK  status: ('A' for Active; 'I' for Inactive)
REMARK    1  A    between atoms: O_2  and  C_3 
REMARK    2  A    between atoms: N_7  and  C_9 
REMARK    3  A    between atoms: C_9  and  C_10 
REMARK    4  A    between atoms: C_11  and  O_12 
REMARK    5  A    between atoms: C_22  and  N_23 
REMARK       I    between atoms: N_23  and  C_24 
REMARK    6  A    between atoms: C_24  and  C_25 
REMARK    7  A    between atoms: C_25  and  C_26 
ROOT
HETATM    1  C   UNL     1      40.929 -12.550   5.160  1.00  0.00     0.161 C 
HETATM    2  C   UNL     1      42.297 -13.233   5.560  1.00  0.00     0.019 C 
HETATM    3  C   UNL     1      43.132 -13.552   4.297  1.00  0.00     0.045 C 
HETATM    4  C   UNL     1      42.602 -14.763   3.531  1.00  0.00     0.236 C 
HETATM    5  N   UNL     1      42.457 -15.953   4.441  1.00  0.00    -0.067 N 
HETATM    6  H   UNL     1      41.979 -16.690   3.894  1.00  0.00     0.280 HD
HETATM    7  C   UNL     1      41.555 -15.664   5.611  1.00  0.00     0.236 C 
HETATM    8  C   UNL     1      42.119 -14.507   6.418  1.00  0.00     0.045 C 
HETATM    9  C   UNL     1      42.976 -12.144   6.364  1.00  0.00    -0.038 A 
HETATM   10  C   UNL     1      42.294 -10.929   6.274  1.00  0.00    -0.026 A 
HETATM   11  C   UNL     1      41.103 -11.007   5.365  1.00  0.00     0.148 C 
HETATM   12  C   UNL     1      44.147 -12.234   7.112  1.00  0.00     0.009 A 
HETATM   13  C   UNL     1      44.614 -11.100   7.782  1.00  0.00     0.001 A 
HETATM   14  C   UNL     1      43.917  -9.889   7.699  1.00  0.00     0.001 A 
HETATM   15  C   UNL     1      42.752  -9.797   6.940  1.00  0.00     0.010 A 
ENDROOT
BRANCH   1  16
HETATM   16  O   UNL     1      39.872 -13.088   5.979  1.00  0.00    -0.387 OA
HETATM   17  C   UNL     1      38.890 -12.117   6.340  1.00  0.00     0.202 C 
ENDBRANCH   1  16
BRANCH  11  18
HETATM   18  N   UNL     1      41.370 -10.261   4.148  1.00  0.00    -0.350 N 
HETATM   19  C   UNL     1      40.354  -9.822   3.325  1.00  0.00     0.223 C 
HETATM   20  O   UNL     1      39.202 -10.238   3.420  1.00  0.00    -0.273 OA
HETATM   21  H   UNL     1      42.271  -9.803   4.073  1.00  0.00     0.163 HD
BRANCH  19  22
HETATM   22  C   UNL     1      40.782  -8.797   2.290  1.00  0.00     0.148 C 
BRANCH  22  23
HETATM   23  C   UNL     1      40.620  -9.339   0.905  1.00  0.00    -0.009 A 
HETATM   24  S   UNL     1      39.308  -8.839  -0.082  1.00  0.00    -0.106 SA
HETATM   25  C   UNL     1      39.769  -9.898  -1.342  1.00  0.00     0.050 A 
HETATM   26  C   UNL     1      40.901 -10.615  -1.026  1.00  0.00     0.008 A 
HETATM   27  C   UNL     1      41.395 -10.289   0.270  1.00  0.00     0.015 A 
ENDBRANCH  22  23
ENDBRANCH  19  22
ENDBRANCH  11  18
BRANCH   5  28
HETATM   28  C   UNL     1      43.756 -16.629   4.827  1.00  0.00     0.276 C 
BRANCH  28  29
HETATM   29  C   UNL     1      43.750 -18.115   4.597  1.00  0.00     0.002 A 
HETATM   30  C   UNL     1      43.737 -19.007   5.676  1.00  0.00     0.073 A 
HETATM   31  C   UNL     1      43.762 -20.386   5.479  1.00  0.00     0.039 A 
HETATM   32  C   UNL     1      43.790 -20.891   4.178  1.00  0.00     0.026 A 
HETATM   33  C   UNL     1      43.793 -20.018   3.094  1.00  0.00     0.034 A 
HETATM   34 CL   UNL     1      43.810 -20.640   1.491  1.00  0.00    -0.084 Cl
HETATM   35  C   UNL     1      43.778 -18.636   3.294  1.00  0.00     0.035 A 
BRANCH  30  36
HETATM   36  O   UNL     1      43.670 -18.485   6.939  1.00  0.00    -0.360 OA
HETATM   37  H   UNL     1      44.047 -19.142   7.559  1.00  0.00     0.217 HD
ENDBRANCH  30  36
ENDBRANCH  28  29
ENDBRANCH   5  28
TORSDOF 7
ENDMDL
MODEL 7
REMARK VINA RESULT:      -8.5      4.518      9.781
REMARK  7 active torsions:
REMARK  status: ('A' for Active; 'I' for Inactive)
REMARK    1  A    between atoms: O_2  and  C_3 
REMARK    2  A    between atoms: N_7  and  C_9 
REMARK    3  A    between atoms: C_9  and  C_10 
REMARK    4  A    between atoms: C_11  and  O_12 
REMARK    5  A    between atoms: C_22  and  N_23 
REMARK       I    between atoms: N_23  and  C_24 
REMARK    6  A    between atoms: C_24  and  C_25 
REMARK    7  A    between atoms: C_25  and  C_26 
ROOT
HETATM    1  C   UNL     1      40.176 -11.266   0.335  1.00  0.00     0.161 C 
HETATM    2  C   UNL     1      40.050 -12.810   0.651  1.00  0.00     0.019 C 
HETATM    3  C   UNL     1      38.979 -13.053   1.743  1.00  0.00     0.045 C 
HETATM    4  C   UNL     1      39.467 -12.674   3.140  1.00  0.00     0.236 C 
HETATM    5  N   UNL     1      40.773 -13.351   3.455  1.00  0.00    -0.067 N 
HETATM    6  H   UNL     1      41.105 -12.956   4.351  1.00  0.00     0.280 HD
HETATM    7  C   UNL     1      41.839 -13.021   2.445  1.00  0.00     0.236 C 
HETATM    8  C   UNL     1      41.388 -13.464   1.063  1.00  0.00     0.045 C 
HETATM    9  C   UNL     1      39.571 -13.369  -0.672  1.00  0.00    -0.038 A 
HETATM   10  C   UNL     1      39.218 -12.358  -1.567  1.00  0.00    -0.026 A 
HETATM   11  C   UNL     1      39.352 -10.989  -0.967  1.00  0.00     0.148 C 
HETATM   12  C   UNL     1      39.441 -14.706  -1.041  1.00  0.00     0.009 A 
HETATM   13  C   UNL     1      38.971 -15.015  -2.320  1.00  0.00     0.001 A 
HETATM   14  C   UNL     1      38.633 -13.996  -3.217  1.00  0.00     0.001 A 
HETATM   15  C   UNL     1      38.752 -12.659  -2.843  1.00  0.00     0.010 A 
ENDROOT
BRANCH   1  16
HETATM   16  O   UNL     1      41.568 -10.927   0.177  1.00  0.00    -0.387 OA
HETATM   17  C   UNL     1      41.774  -9.742  -0.593  1.00  0.00     0.202 C 
ENDBRANCH   1  16
BRANCH  11  18
HETATM   18  N   UNL     1      38.034 -10.426  -0.740  1.00  0.00    -0.350 N 
HETATM   19  C   UNL     1      37.458  -9.539  -1.625  1.00  0.00     0.223 C 
HETATM   20  O   UNL     1      38.103  -8.978  -2.509  1.00  0.00    -0.273 OA
HETATM   21  H   UNL     1      37.422 -10.920  -0.100  1.00  0.00     0.163 HD
BRANCH  19  22
HETATM   22  C   UNL     1      35.974  -9.306  -1.408  1.00  0.00     0.148 C 
BRANCH  22  23
HETATM   23  C   UNL     1      35.164 -10.056  -2.419  1.00  0.00    -0.009 A 
HETATM   24  S   UNL     1      33.470  -9.807  -2.539  1.00  0.00    -0.106 SA
HETATM   25  C   UNL     1      33.317 -11.000  -3.754  1.00  0.00     0.050 A 
HETATM   26  C   UNL     1      34.529 -11.574  -4.069  1.00  0.00     0.008 A 
HETATM   27  C   UNL     1      35.595 -11.026  -3.301  1.00  0.00     0.015 A 
ENDBRANCH  22  23
ENDBRANCH  19  22
ENDBRANCH  11  18
BRANCH   5  28
HETATM   28  C   UNL     1      40.672 -14.829   3.771  1.00  0.00     0.276 C 
BRANCH  28  29
HETATM   29  C   UNL     1      41.895 -15.381   4.450  1.00  0.00     0.002 A 
HETATM   30  C   UNL     1      42.433 -14.752   5.579  1.00  0.00     0.073 A 
HETATM   31  C   UNL     1      43.584 -15.233   6.199  1.00  0.00     0.039 A 
HETATM   32  C   UNL     1      44.209 -16.374   5.692  1.00  0.00     0.026 A 
HETATM   33  C   UNL     1      43.681 -17.017   4.576  1.00  0.00     0.034 A 
HETATM   34 CL   UNL     1      44.441 -18.431   3.961  1.00  0.00    -0.084 Cl
HETATM   35  C   UNL     1      42.534 -16.527   3.950  1.00  0.00     0.035 A 
BRANCH  30  36
HETATM   36  O   UNL     1      41.778 -13.659   6.078  1.00  0.00    -0.360 OA
HETATM   37  H   UNL     1      40.832 -13.894   6.178  1.00  0.00     0.217 HD
ENDBRANCH  30  36
ENDBRANCH  28  29
ENDBRANCH   5  28
TORSDOF 7
ENDMDL
MODEL 8
REMARK VINA RESULT:      -8.3      4.391      6.729
REMARK  7 active torsions:
REMARK  status: ('A' for Active; 'I' for Inactive)
REMARK    1  A    between atoms: O_2  and  C_3 
REMARK    2  A    between atoms: N_7  and  C_9 
REMARK    3  A    between atoms: C_9  and  C_10 
REMARK    4  A    between atoms: C_11  and  O_12 
REMARK    5  A    between atoms: C_22  and  N_23 
REMARK       I    between atoms: N_23  and  C_24 
REMARK    6  A    between atoms: C_24  and  C_25 
REMARK    7  A    between atoms: C_25  and  C_26 
ROOT
HETATM    1  C   UNL     1      41.030 -11.824   5.500  1.00  0.00     0.161 C 
HETATM    2  C   UNL     1      42.403 -12.580   5.701  1.00  0.00     0.019 C 
HETATM    3  C   UNL     1      43.143 -12.727   4.349  1.00  0.00     0.045 C 
HETATM    4  C   UNL     1      42.531 -13.804   3.456  1.00  0.00     0.236 C 
HETATM    5  N   UNL     1      42.416 -15.111   4.192  1.00  0.00    -0.067 N 
HETATM    6  H   UNL     1      41.883 -15.752   3.580  1.00  0.00     0.280 HD
HETATM    7  C   UNL     1      41.602 -14.981   5.451  1.00  0.00     0.236 C 
HETATM    8  C   UNL     1      42.250 -13.963   6.376  1.00  0.00     0.045 C 
HETATM    9  C   UNL     1      43.164 -11.632   6.603  1.00  0.00    -0.038 A 
HETATM   10  C   UNL     1      42.510 -10.406   6.738  1.00  0.00    -0.026 A 
HETATM   11  C   UNL     1      41.259 -10.331   5.913  1.00  0.00     0.148 C 
HETATM   12  C   UNL     1      44.379 -11.850   7.247  1.00  0.00     0.009 A 
HETATM   13  C   UNL     1      44.920 -10.834   8.038  1.00  0.00     0.001 A 
HETATM   14  C   UNL     1      44.252  -9.612   8.181  1.00  0.00     0.001 A 
HETATM   15  C   UNL     1      43.041  -9.391   7.526  1.00  0.00     0.010 A 
ENDROOT
BRANCH   1  16
HETATM   16  O   UNL     1      40.017 -12.458   6.304  1.00  0.00    -0.387 OA
HETATM   17  C   UNL     1      39.007 -11.554   6.753  1.00  0.00     0.202 C 
ENDBRANCH   1  16
BRANCH  11  18
HETATM   18  N   UNL     1      41.463  -9.420   4.800  1.00  0.00    -0.350 N 
HETATM   19  C   UNL     1      40.450  -8.619   4.319  1.00  0.00     0.223 C 
HETATM   20  O   UNL     1      39.270  -8.798   4.615  1.00  0.00    -0.273 OA
HETATM   21  H   UNL     1      42.418  -9.154   4.589  1.00  0.00     0.163 HD
BRANCH  19  22
HETATM   22  C   UNL     1      40.910  -7.512   3.388  1.00  0.00     0.148 C 
BRANCH  22  23
HETATM   23  C   UNL     1      41.363  -6.316   4.165  1.00  0.00    -0.009 A 
HETATM   24  S   UNL     1      40.761  -6.021   5.744  1.00  0.00    -0.106 SA
HETATM   25  C   UNL     1      41.628  -4.553   5.871  1.00  0.00     0.050 A 
HETATM   26  C   UNL     1      42.367  -4.292   4.739  1.00  0.00     0.008 A 
HETATM   27  C   UNL     1      42.218  -5.311   3.756  1.00  0.00     0.015 A 
ENDBRANCH  22  23
ENDBRANCH  19  22
ENDBRANCH  11  18
BRANCH   5  28
HETATM   28  C   UNL     1      43.720 -15.857   4.385  1.00  0.00     0.276 C 
BRANCH  28  29
HETATM   29  C   UNL     1      43.671 -17.281   3.903  1.00  0.00     0.002 A 
HETATM   30  C   UNL     1      43.270 -17.581   2.595  1.00  0.00     0.073 A 
HETATM   31  C   UNL     1      43.189 -18.897   2.144  1.00  0.00     0.039 A 
HETATM   32  C   UNL     1      43.527 -19.939   3.010  1.00  0.00     0.026 A 
HETATM   33  C   UNL     1      43.937 -19.657   4.310  1.00  0.00     0.034 A 
HETATM   34 CL   UNL     1      44.368 -20.940   5.371  1.00  0.00    -0.084 Cl
HETATM   35  C   UNL     1      44.006 -18.338   4.763  1.00  0.00     0.035 A 
BRANCH  30  36
HETATM   36  O   UNL     1      42.984 -16.538   1.757  1.00  0.00    -0.360 OA
HETATM   37  H   UNL     1      42.115 -16.171   2.017  1.00  0.00     0.217 HD
ENDBRANCH  30  36
ENDBRANCH  28  29
ENDBRANCH   5  28
TORSDOF 7
ENDMDL
MODEL 9
REMARK VINA RESULT:      -7.9      4.451      6.480
REMARK  7 active torsions:
REMARK  status: ('A' for Active; 'I' for Inactive)
REMARK    1  A    between atoms: O_2  and  C_3 
REMARK    2  A    between atoms: N_7  and  C_9 
REMARK    3  A    between atoms: C_9  and  C_10 
REMARK    4  A    between atoms: C_11  and  O_12 
REMARK    5  A    between atoms: C_22  and  N_23 
REMARK       I    between atoms: N_23  and  C_24 
REMARK    6  A    between atoms: C_24  and  C_25 
REMARK    7  A    between atoms: C_25  and  C_26 
ROOT
HETATM    1  C   UNL     1      41.250 -10.471   6.030  1.00  0.00     0.161 C 
HETATM    2  C   UNL     1      42.535 -11.283   5.594  1.00  0.00     0.019 C 
HETATM    3  C   UNL     1      43.033 -10.805   4.209  1.00  0.00     0.045 C 
HETATM    4  C   UNL     1      42.163 -11.315   3.062  1.00  0.00     0.236 C 
HETATM    5  N   UNL     1      42.003 -12.809   3.131  1.00  0.00    -0.067 N 
HETATM    6  H   UNL     1      41.308 -13.069   2.411  1.00  0.00     0.280 HD
HETATM    7  C   UNL     1      41.416 -13.256   4.443  1.00  0.00     0.236 C 
HETATM    8  C   UNL     1      42.319 -12.814   5.584  1.00  0.00     0.045 C 
HETATM    9  C   UNL     1      43.535 -10.896   6.663  1.00  0.00    -0.038 A 
HETATM   10  C   UNL     1      43.066  -9.854   7.463  1.00  0.00    -0.026 A 
HETATM   11  C   UNL     1      41.721  -9.355   7.022  1.00  0.00     0.148 C 
HETATM   12  C   UNL     1      44.800 -11.435   6.888  1.00  0.00     0.009 A 
HETATM   13  C   UNL     1      45.577 -10.929   7.933  1.00  0.00     0.001 A 
HETATM   14  C   UNL     1      45.094  -9.893   8.741  1.00  0.00     0.001 A 
HETATM   15  C   UNL     1      43.833  -9.347   8.507  1.00  0.00     0.010 A 
ENDROOT
BRANCH   1  16
HETATM   16  O   UNL     1      40.303 -11.371   6.638  1.00  0.00    -0.387 OA
HETATM   17  C   UNL     1      39.093 -10.728   7.039  1.00  0.00     0.202 C 
ENDBRANCH   1  16
BRANCH  11  18
HETATM   18  N   UNL     1      41.861  -8.037   6.428  1.00  0.00    -0.350 N 
HETATM   19  C   UNL     1      41.189  -6.940   6.923  1.00  0.00     0.223 C 
HETATM   20  O   UNL     1      40.254  -7.041   7.715  1.00  0.00    -0.273 OA
HETATM   21  H   UNL     1      42.681  -7.872   5.856  1.00  0.00     0.163 HD
BRANCH  19  22
HETATM   22  C   UNL     1      41.693  -5.606   6.402  1.00  0.00     0.148 C 
BRANCH  22  23
HETATM   23  C   UNL     1      41.437  -5.477   4.933  1.00  0.00    -0.009 A 
HETATM   24  S   UNL     1      39.900  -5.867   4.277  1.00  0.00    -0.106 SA
HETATM   25  C   UNL     1      40.434  -5.564   2.681  1.00  0.00     0.050 A 
HETATM   26  C   UNL     1      41.752  -5.167   2.644  1.00  0.00     0.008 A 
HETATM   27  C   UNL     1      42.330  -5.113   3.945  1.00  0.00     0.015 A 
ENDBRANCH  22  23
ENDBRANCH  19  22
ENDBRANCH  11  18
BRANCH   5  28
HETATM   28  C   UNL     1      43.220 -13.606   2.707  1.00  0.00     0.276 C 
BRANCH  28  29
HETATM   29  C   UNL     1      42.993 -15.093   2.713  1.00  0.00     0.002 A 
HETATM   30  C   UNL     1      42.211 -15.702   1.724  1.00  0.00     0.073 A 
HETATM   31  C   UNL     1      41.966 -17.073   1.734  1.00  0.00     0.039 A 
HETATM   32  C   UNL     1      42.521 -17.861   2.744  1.00  0.00     0.026 A 
HETATM   33  C   UNL     1      43.309 -17.272   3.730  1.00  0.00     0.034 A 
HETATM   34 CL   UNL     1      44.006 -18.244   4.965  1.00  0.00    -0.084 Cl
HETATM   35  C   UNL     1      43.544 -15.896   3.724  1.00  0.00     0.035 A 
BRANCH  30  36
HETATM   36  O   UNL     1      41.713 -14.912   0.723  1.00  0.00    -0.360 OA
HETATM   37  H   UNL     1      40.886 -15.322   0.398  1.00  0.00     0.217 HD
ENDBRANCH  30  36
ENDBRANCH  28  29
ENDBRANCH   5  28
TORSDOF 7
ENDMDL
MODEL 10
REMARK VINA RESULT:      -7.9     16.858     19.646
REMARK  7 active torsions:
REMARK  status: ('A' for Active; 'I' for Inactive)
REMARK    1  A    between atoms: O_2  and  C_3 
REMARK    2  A    between atoms: N_7  and  C_9 
REMARK    3  A    between atoms: C_9  and  C_10 
REMARK    4  A    between atoms: C_11  and  O_12 
REMARK    5  A    between atoms: C_22  and  N_23 
REMARK       I    between atoms: N_23  and  C_24 
REMARK    6  A    between atoms: C_24  and  C_25 
REMARK    7  A    between atoms: C_25  and  C_26 
ROOT
HETATM    1  C   UNL     1      47.982 -29.605   0.215  1.00  0.00     0.161 C 
HETATM    2  C   UNL     1      47.403 -30.020   1.626  1.00  0.00     0.019 C 
HETATM    3  C   UNL     1      46.677 -31.384   1.533  1.00  0.00     0.045 C 
HETATM    4  C   UNL     1      45.310 -31.279   0.858  1.00  0.00     0.236 C 
HETATM    5  N   UNL     1      44.466 -30.222   1.517  1.00  0.00    -0.067 N 
HETATM    6  H   UNL     1      43.616 -30.116   0.937  1.00  0.00     0.280 HD
HETATM    7  C   UNL     1      45.136 -28.874   1.506  1.00  0.00     0.236 C 
HETATM    8  C   UNL     1      46.464 -28.958   2.241  1.00  0.00     0.045 C 
HETATM    9  C   UNL     1      48.659 -30.163   2.458  1.00  0.00    -0.038 A 
HETATM   10  C   UNL     1      49.813 -30.104   1.674  1.00  0.00    -0.026 A 
HETATM   11  C   UNL     1      49.504 -29.971   0.212  1.00  0.00     0.148 C 
HETATM   12  C   UNL     1      48.759 -30.354   3.834  1.00  0.00     0.009 A 
HETATM   13  C   UNL     1      50.025 -30.468   4.414  1.00  0.00     0.001 A 
HETATM   14  C   UNL     1      51.178 -30.394   3.623  1.00  0.00     0.001 A 
HETATM   15  C   UNL     1      51.076 -30.213   2.245  1.00  0.00     0.010 A 
ENDROOT
BRANCH   1  16
HETATM   16  O   UNL     1      47.763 -28.196   0.008  1.00  0.00    -0.387 OA
HETATM   17  C   UNL     1      47.332 -27.881  -1.315  1.00  0.00     0.202 C 
ENDBRANCH   1  16
BRANCH  11  18
HETATM   18  N   UNL     1      49.827 -31.212  -0.469  1.00  0.00    -0.350 N 
HETATM   19  C   UNL     1      50.890 -31.309  -1.341  1.00  0.00     0.223 C 
HETATM   20  O   UNL     1      51.467 -30.322  -1.791  1.00  0.00    -0.273 OA
HETATM   21  H   UNL     1      49.464 -32.069  -0.066  1.00  0.00     0.163 HD
BRANCH  19  22
HETATM   22  C   UNL     1      51.278 -32.732  -1.705  1.00  0.00     0.148 C 
BRANCH  22  23
HETATM   23  C   UNL     1      52.741 -32.824  -2.008  1.00  0.00    -0.009 A 
HETATM   24  S   UNL     1      53.297 -32.839  -3.630  1.00  0.00    -0.106 SA
HETATM   25  C   UNL     1      54.922 -33.040  -3.138  1.00  0.00     0.050 A 
HETATM   26  C   UNL     1      55.044 -33.088  -1.767  1.00  0.00     0.008 A 
HETATM   27  C   UNL     1      53.785 -32.960  -1.115  1.00  0.00     0.015 A 
ENDBRANCH  22  23
ENDBRANCH  19  22
ENDBRANCH  11  18
BRANCH   5  28
HETATM   28  C   UNL     1      43.892 -30.605   2.865  1.00  0.00     0.276 C 
BRANCH  28  29
HETATM   29  C   UNL     1      42.613 -31.391   2.771  1.00  0.00     0.002 A 
HETATM   30  C   UNL     1      41.532 -30.910   2.022  1.00  0.00     0.073 A 
HETATM   31  C   UNL     1      40.330 -31.611   1.951  1.00  0.00     0.039 A 
HETATM   32  C   UNL     1      40.203 -32.825   2.630  1.00  0.00     0.026 A 
HETATM   33  C   UNL     1      41.273 -33.321   3.371  1.00  0.00     0.034 A 
HETATM   34 CL   UNL     1      41.123 -34.823   4.194  1.00  0.00    -0.084 Cl
HETATM   35  C   UNL     1      42.473 -32.611   3.449  1.00  0.00     0.035 A 
BRANCH  30  36
HETATM   36  O   UNL     1      41.697 -29.739   1.335  1.00  0.00    -0.360 OA
HETATM   37  H   UNL     1      41.470 -29.001   1.937  1.00  0.00     0.217 HD
ENDBRANCH  30  36
ENDBRANCH  28  29
ENDBRANCH   5  28
TORSDOF 7
ENDMDL
