MODEL 1
REMARK VINA RESULT:      -8.1      0.000      0.000
REMARK  5 active torsions:
REMARK  status: ('A' for Active; 'I' for Inactive)
REMARK    1  A    between atoms: O_2  and  C_3 
REMARK    2  A    between atoms: C_6  and  C_7 
REMARK    3  A    between atoms: C_12  and  C_13 
REMARK    4  A    between atoms: N_14  and  N_15 
REMARK       I    between atoms: N_15  and  C_16 
REMARK    5  A    between atoms: C_16  and  C_17 
ROOT
HETATM    1  C   UNL     1      40.535 -12.804   4.901  1.00  0.00     0.154 C 
HETATM    2  N   UNL     1      39.527 -13.106   4.144  1.00  0.00    -0.183 NA
ENDROOT
BRANCH   1   3
HETATM    3  C   UNL     1      41.859 -12.389   4.493  1.00  0.00     0.031 A 
HETATM    4  C   UNL     1      42.933 -13.065   3.827  1.00  0.00     0.100 A 
HETATM    5  N   UNL     1      43.965 -12.223   3.633  1.00  0.00    -0.174 NA
HETATM    6  N   UNL     1      43.609 -11.089   4.242  1.00  0.00    -0.288 N 
HETATM    7  H   UNL     1      44.270 -10.318   4.248  1.00  0.00     0.188 HD
HETATM    8  C   UNL     1      42.362 -11.134   4.778  1.00  0.00     0.124 A 
BRANCH   4   9
HETATM    9  C   UNL     1      43.036 -14.452   3.356  1.00  0.00    -0.005 A 
HETATM   10  C   UNL     1      42.885 -15.540   4.221  1.00  0.00     0.016 A 
HETATM   11  C   UNL     1      42.950 -16.850   3.732  1.00  0.00     0.037 A 
HETATM   12  C   UNL     1      43.179 -17.099   2.378  1.00  0.00     0.068 A 
HETATM   13  C   UNL     1      43.360 -16.023   1.512  1.00  0.00     0.037 A 
HETATM   14  C   UNL     1      43.292 -14.712   1.999  1.00  0.00     0.016 A 
BRANCH  12  15
HETATM   15  O   UNL     1      43.213 -18.421   2.035  1.00  0.00    -0.356 OA
HETATM   16  C   UNL     1      43.884 -19.300   2.929  1.00  0.00     0.210 C 
ENDBRANCH  12  15
ENDBRANCH   4   9
ENDBRANCH   1   3
BRANCH   2  17
HETATM   17  N   UNL     1      39.609 -12.980   2.789  1.00  0.00    -0.243 N 
HETATM   18  C   UNL     1      39.767 -14.122   2.013  1.00  0.00     0.271 C 
HETATM   19  O   UNL     1      39.774 -15.262   2.473  1.00  0.00    -0.266 OA
HETATM   20  H   UNL     1      39.580 -12.057   2.384  1.00  0.00     0.192 HD
BRANCH  18  21
HETATM   21  C   UNL     1      39.952 -13.935   0.537  1.00  0.00     0.036 A 
HETATM   22  C   UNL     1      40.519 -12.718   0.114  1.00  0.00     0.057 A 
HETATM   23  C   UNL     1      40.682 -12.504  -1.238  1.00  0.00     0.106 A 
HETATM   24  C   UNL     1      40.311 -13.441  -2.169  1.00  0.00     0.105 A 
HETATM   25  O   UNL     1      41.206 -11.386  -1.808  1.00  0.00    -0.323 OA
HETATM   26  O   UNL     1      40.551 -13.033  -3.444  1.00  0.00    -0.323 OA
HETATM   27  C   UNL     1      39.759 -14.647  -1.799  1.00  0.00     0.041 A 
HETATM   28  C   UNL     1      41.116 -11.725  -3.207  1.00  0.00     0.352 A 
HETATM   29  C   UNL     1      39.581 -14.896  -0.431  1.00  0.00     0.020 A 
ENDBRANCH  18  21
ENDBRANCH   2  17
TORSDOF 5
ENDMDL
MODEL 2
REMARK VINA RESULT:      -8.0      3.054      6.846
REMARK  5 active torsions:
REMARK  status: ('A' for Active; 'I' for Inactive)
REMARK    1  A    between atoms: O_2  and  C_3 
REMARK    2  A    between atoms: C_6  and  C_7 
REMARK    3  A    between atoms: C_12  and  C_13 
REMARK    4  A    between atoms: N_14  and  N_15 
REMARK       I    between atoms: N_15  and  C_16 
REMARK    5  A    between atoms: C_16  and  C_17 
ROOT
HETATM    1  C   UNL     1      41.750 -12.136   2.832  1.00  0.00     0.154 C 
HETATM    2  N   UNL     1      42.691 -12.828   2.269  1.00  0.00    -0.183 NA
ENDROOT
BRANCH   1   3
HETATM    3  C   UNL     1      41.000 -12.463   4.024  1.00  0.00     0.031 A 
HETATM    4  C   UNL     1      41.297 -12.367   5.423  1.00  0.00     0.100 A 
HETATM    5  N   UNL     1      40.239 -12.765   6.153  1.00  0.00    -0.174 NA
HETATM    6  N   UNL     1      39.343 -13.197   5.261  1.00  0.00    -0.288 N 
HETATM    7  H   UNL     1      38.468 -13.581   5.606  1.00  0.00     0.188 HD
HETATM    8  C   UNL     1      39.747 -13.044   3.975  1.00  0.00     0.124 A 
BRANCH   4   9
HETATM    9  C   UNL     1      42.515 -11.913   6.107  1.00  0.00    -0.005 A 
HETATM   10  C   UNL     1      42.584 -10.672   6.747  1.00  0.00     0.016 A 
HETATM   11  C   UNL     1      43.747 -10.287   7.424  1.00  0.00     0.037 A 
HETATM   12  C   UNL     1      44.862 -11.124   7.465  1.00  0.00     0.068 A 
HETATM   13  C   UNL     1      44.815 -12.350   6.807  1.00  0.00     0.037 A 
HETATM   14  C   UNL     1      43.651 -12.739   6.132  1.00  0.00     0.016 A 
BRANCH  12  15
HETATM   15  O   UNL     1      45.926 -10.628   8.165  1.00  0.00    -0.356 OA
HETATM   16  C   UNL     1      46.114  -9.219   8.138  1.00  0.00     0.210 C 
ENDBRANCH  12  15
ENDBRANCH   4   9
ENDBRANCH   1   3
BRANCH   2  17
HETATM   17  N   UNL     1      43.143 -13.983   2.835  1.00  0.00    -0.243 N 
HETATM   18  C   UNL     1      42.748 -15.199   2.293  1.00  0.00     0.271 C 
HETATM   19  O   UNL     1      42.057 -15.302   1.281  1.00  0.00    -0.266 OA
HETATM   20  H   UNL     1      43.732 -13.926   3.652  1.00  0.00     0.192 HD
BRANCH  18  21
HETATM   21  C   UNL     1      43.184 -16.446   3.002  1.00  0.00     0.036 A 
HETATM   22  C   UNL     1      43.097 -17.653   2.283  1.00  0.00     0.057 A 
HETATM   23  C   UNL     1      43.469 -18.822   2.913  1.00  0.00     0.106 A 
HETATM   24  C   UNL     1      43.919 -18.834   4.209  1.00  0.00     0.105 A 
HETATM   25  O   UNL     1      43.440 -20.065   2.362  1.00  0.00    -0.323 OA
HETATM   26  O   UNL     1      44.228 -20.085   4.642  1.00  0.00    -0.323 OA
HETATM   27  C   UNL     1      44.025 -17.676   4.946  1.00  0.00     0.041 A 
HETATM   28  C   UNL     1      43.918 -20.862   3.465  1.00  0.00     0.352 A 
HETATM   29  C   UNL     1      43.656 -16.470   4.336  1.00  0.00     0.020 A 
ENDBRANCH  18  21
ENDBRANCH   2  17
TORSDOF 5
ENDMDL
MODEL 3
REMARK VINA RESULT:      -7.8      1.835      2.686
REMARK  5 active torsions:
REMARK  status: ('A' for Active; 'I' for Inactive)
REMARK    1  A    between atoms: O_2  and  C_3 
REMARK    2  A    between atoms: C_6  and  C_7 
REMARK    3  A    between atoms: C_12  and  C_13 
REMARK    4  A    between atoms: N_14  and  N_15 
REMARK       I    between atoms: N_15  and  C_16 
REMARK    5  A    between atoms: C_16  and  C_17 
ROOT
HETATM    1  C   UNL     1      42.734 -13.300   5.131  1.00  0.00     0.154 C 
HETATM    2  N   UNL     1      42.825 -12.624   4.028  1.00  0.00    -0.183 NA
ENDROOT
BRANCH   1   3
HETATM    3  C   UNL     1      41.680 -14.202   5.535  1.00  0.00     0.031 A 
HETATM    4  C   UNL     1      41.443 -15.597   5.302  1.00  0.00     0.100 A 
HETATM    5  N   UNL     1      40.323 -15.992   5.934  1.00  0.00    -0.174 NA
HETATM    6  N   UNL     1      39.809 -14.878   6.462  1.00  0.00    -0.288 N 
HETATM    7  H   UNL     1      38.927 -14.946   6.961  1.00  0.00     0.188 HD
HETATM    8  C   UNL     1      40.575 -13.779   6.249  1.00  0.00     0.124 A 
BRANCH   4   9
HETATM    9  C   UNL     1      42.217 -16.576   4.527  1.00  0.00    -0.005 A 
HETATM   10  C   UNL     1      43.303 -17.263   5.078  1.00  0.00     0.016 A 
HETATM   11  C   UNL     1      43.994 -18.218   4.325  1.00  0.00     0.037 A 
HETATM   12  C   UNL     1      43.625 -18.496   3.008  1.00  0.00     0.068 A 
HETATM   13  C   UNL     1      42.563 -17.797   2.439  1.00  0.00     0.037 A 
HETATM   14  C   UNL     1      41.868 -16.843   3.193  1.00  0.00     0.016 A 
BRANCH  12  15
HETATM   15  O   UNL     1      44.379 -19.454   2.390  1.00  0.00    -0.356 OA
HETATM   16  C   UNL     1      43.679 -20.544   1.803  1.00  0.00     0.210 C 
ENDBRANCH  12  15
ENDBRANCH   4   9
ENDBRANCH   1   3
BRANCH   2  17
HETATM   17  N   UNL     1      41.895 -12.771   3.041  1.00  0.00    -0.243 N 
HETATM   18  C   UNL     1      42.214 -13.527   1.921  1.00  0.00     0.271 C 
HETATM   19  O   UNL     1      43.274 -14.136   1.788  1.00  0.00    -0.266 OA
HETATM   20  H   UNL     1      41.008 -12.301   3.136  1.00  0.00     0.192 HD
BRANCH  18  21
HETATM   21  C   UNL     1      41.205 -13.583   0.814  1.00  0.00     0.036 A 
HETATM   22  C   UNL     1      40.861 -12.363   0.200  1.00  0.00     0.057 A 
HETATM   23  C   UNL     1      39.919 -12.376  -0.806  1.00  0.00     0.106 A 
HETATM   24  C   UNL     1      39.317 -13.538  -1.219  1.00  0.00     0.105 A 
HETATM   25  O   UNL     1      39.476 -11.289  -1.493  1.00  0.00    -0.323 OA
HETATM   26  O   UNL     1      38.416 -13.332  -2.216  1.00  0.00    -0.323 OA
HETATM   27  C   UNL     1      39.627 -14.752  -0.651  1.00  0.00     0.041 A 
HETATM   28  C   UNL     1      38.519 -11.901  -2.382  1.00  0.00     0.352 A 
HETATM   29  C   UNL     1      40.582 -14.775   0.375  1.00  0.00     0.020 A 
ENDBRANCH  18  21
ENDBRANCH   2  17
TORSDOF 5
ENDMDL
MODEL 4
REMARK VINA RESULT:      -7.6      4.043      6.741
REMARK  5 active torsions:
REMARK  status: ('A' for Active; 'I' for Inactive)
REMARK    1  A    between atoms: O_2  and  C_3 
REMARK    2  A    between atoms: C_6  and  C_7 
REMARK    3  A    between atoms: C_12  and  C_13 
REMARK    4  A    between atoms: N_14  and  N_15 
REMARK       I    between atoms: N_15  and  C_16 
REMARK    5  A    between atoms: C_16  and  C_17 
ROOT
HETATM    1  C   UNL     1      40.666 -14.647   4.388  1.00  0.00     0.154 C 
HETATM    2  N   UNL     1      40.728 -13.975   5.495  1.00  0.00    -0.183 NA
ENDROOT
BRANCH   1   3
HETATM    3  C   UNL     1      41.517 -14.525   3.225  1.00  0.00     0.031 A 
HETATM    4  C   UNL     1      42.573 -15.337   2.698  1.00  0.00     0.100 A 
HETATM    5  N   UNL     1      43.038 -14.810   1.550  1.00  0.00    -0.174 NA
HETATM    6  N   UNL     1      42.380 -13.657   1.404  1.00  0.00    -0.288 N 
HETATM    7  H   UNL     1      42.607 -13.071   0.606  1.00  0.00     0.188 HD
HETATM    8  C   UNL     1      41.463 -13.434   2.379  1.00  0.00     0.124 A 
BRANCH   4   9
HETATM    9  C   UNL     1      43.161 -16.582   3.209  1.00  0.00    -0.005 A 
HETATM   10  C   UNL     1      43.626 -16.695   4.523  1.00  0.00     0.016 A 
HETATM   11  C   UNL     1      44.144 -17.908   4.990  1.00  0.00     0.037 A 
HETATM   12  C   UNL     1      44.221 -19.023   4.155  1.00  0.00     0.068 A 
HETATM   13  C   UNL     1      43.788 -18.914   2.836  1.00  0.00     0.037 A 
HETATM   14  C   UNL     1      43.265 -17.702   2.368  1.00  0.00     0.016 A 
BRANCH  12  15
HETATM   15  O   UNL     1      44.741 -20.144   4.739  1.00  0.00    -0.356 OA
HETATM   16  C   UNL     1      43.880 -20.878   5.601  1.00  0.00     0.210 C 
ENDBRANCH  12  15
ENDBRANCH   4   9
ENDBRANCH   1   3
BRANCH   2  17
HETATM   17  N   UNL     1      41.726 -13.070   5.707  1.00  0.00    -0.243 N 
HETATM   18  C   UNL     1      42.751 -13.391   6.588  1.00  0.00     0.271 C 
HETATM   19  O   UNL     1      42.853 -14.481   7.148  1.00  0.00    -0.266 OA
HETATM   20  H   UNL     1      41.680 -12.178   5.240  1.00  0.00     0.192 HD
BRANCH  18  21
HETATM   21  C   UNL     1      43.776 -12.333   6.870  1.00  0.00     0.036 A 
HETATM   22  C   UNL     1      43.391 -11.285   7.727  1.00  0.00     0.057 A 
HETATM   23  C   UNL     1      44.302 -10.283   7.990  1.00  0.00     0.106 A 
HETATM   24  C   UNL     1      45.560 -10.288   7.443  1.00  0.00     0.105 A 
HETATM   25  O   UNL     1      44.087  -9.203   8.788  1.00  0.00    -0.323 OA
HETATM   26  O   UNL     1      46.298  -9.211   7.823  1.00  0.00    -0.323 OA
HETATM   27  C   UNL     1      45.979 -11.296   6.605  1.00  0.00     0.041 A 
HETATM   28  C   UNL     1      45.354  -8.524   8.674  1.00  0.00     0.352 A 
HETATM   29  C   UNL     1      45.078 -12.330   6.318  1.00  0.00     0.020 A 
ENDBRANCH  18  21
ENDBRANCH   2  17
TORSDOF 5
ENDMDL
MODEL 5
REMARK VINA RESULT:      -7.5      4.531      7.976
REMARK  5 active torsions:
REMARK  status: ('A' for Active; 'I' for Inactive)
REMARK    1  A    between atoms: O_2  and  C_3 
REMARK    2  A    between atoms: C_6  and  C_7 
REMARK    3  A    between atoms: C_12  and  C_13 
REMARK    4  A    between atoms: N_14  and  N_15 
REMARK       I    between atoms: N_15  and  C_16 
REMARK    5  A    between atoms: C_16  and  C_17 
ROOT
HETATM    1  C   UNL     1      43.096 -12.765   4.137  1.00  0.00     0.154 C 
HETATM    2  N   UNL     1      43.810 -11.724   4.435  1.00  0.00    -0.183 NA
ENDROOT
BRANCH   1   3
HETATM    3  C   UNL     1      42.178 -13.486   4.990  1.00  0.00     0.031 A 
HETATM    4  C   UNL     1      41.921 -14.881   5.192  1.00  0.00     0.100 A 
HETATM    5  N   UNL     1      40.982 -15.051   6.140  1.00  0.00    -0.174 NA
HETATM    6  N   UNL     1      40.579 -13.817   6.456  1.00  0.00    -0.288 N 
HETATM    7  H   UNL     1      39.834 -13.714   7.140  1.00  0.00     0.188 HD
HETATM    8  C   UNL     1      41.256 -12.844   5.795  1.00  0.00     0.124 A 
BRANCH   4   9
HETATM    9  C   UNL     1      42.517 -16.060   4.550  1.00  0.00    -0.005 A 
HETATM   10  C   UNL     1      42.136 -16.477   3.271  1.00  0.00     0.016 A 
HETATM   11  C   UNL     1      42.753 -17.581   2.671  1.00  0.00     0.037 A 
HETATM   12  C   UNL     1      43.748 -18.296   3.339  1.00  0.00     0.068 A 
HETATM   13  C   UNL     1      44.115 -17.907   4.625  1.00  0.00     0.037 A 
HETATM   14  C   UNL     1      43.502 -16.800   5.225  1.00  0.00     0.016 A 
BRANCH  12  15
HETATM   15  O   UNL     1      44.270 -19.346   2.638  1.00  0.00    -0.356 OA
HETATM   16  C   UNL     1      43.345 -20.193   1.967  1.00  0.00     0.210 C 
ENDBRANCH  12  15
ENDBRANCH   4   9
ENDBRANCH   1   3
BRANCH   2  17
HETATM   17  N   UNL     1      43.696 -11.125   5.654  1.00  0.00    -0.243 N 
HETATM   18  C   UNL     1      44.804 -11.077   6.489  1.00  0.00     0.271 C 
HETATM   19  O   UNL     1      45.917 -11.491   6.169  1.00  0.00    -0.266 OA
HETATM   20  H   UNL     1      42.800 -10.755   5.931  1.00  0.00     0.192 HD
BRANCH  18  21
HETATM   21  C   UNL     1      44.614 -10.499   7.859  1.00  0.00     0.036 A 
HETATM   22  C   UNL     1      43.297 -10.175   8.238  1.00  0.00     0.057 A 
HETATM   23  C   UNL     1      43.089  -9.620   9.483  1.00  0.00     0.106 A 
HETATM   24  C   UNL     1      44.125  -9.380  10.350  1.00  0.00     0.105 A 
HETATM   25  O   UNL     1      41.886  -9.248   9.996  1.00  0.00    -0.323 OA
HETATM   26  O   UNL     1      43.707  -8.825  11.520  1.00  0.00    -0.323 OA
HETATM   27  C   UNL     1      45.426  -9.687  10.023  1.00  0.00     0.041 A 
HETATM   28  C   UNL     1      42.285  -8.740  11.285  1.00  0.00     0.352 A 
HETATM   29  C   UNL     1      45.672 -10.254   8.765  1.00  0.00     0.020 A 
ENDBRANCH  18  21
ENDBRANCH   2  17
TORSDOF 5
ENDMDL
MODEL 6
REMARK VINA RESULT:      -7.4      3.534      6.477
REMARK  5 active torsions:
REMARK  status: ('A' for Active; 'I' for Inactive)
REMARK    1  A    between atoms: O_2  and  C_3 
REMARK    2  A    between atoms: C_6  and  C_7 
REMARK    3  A    between atoms: C_12  and  C_13 
REMARK    4  A    between atoms: N_14  and  N_15 
REMARK       I    between atoms: N_15  and  C_16 
REMARK    5  A    between atoms: C_16  and  C_17 
ROOT
HETATM    1  C   UNL     1      39.723 -11.957   4.411  1.00  0.00     0.154 C 
HETATM    2  N   UNL     1      39.508 -13.121   4.940  1.00  0.00    -0.183 NA
ENDROOT
BRANCH   1   3
HETATM    3  C   UNL     1      40.838 -11.549   3.586  1.00  0.00     0.031 A 
HETATM    4  C   UNL     1      42.211 -11.256   3.875  1.00  0.00     0.100 A 
HETATM    5  N   UNL     1      42.872 -10.955   2.742  1.00  0.00    -0.174 NA
HETATM    6  N   UNL     1      41.940 -10.953   1.784  1.00  0.00    -0.288 N 
HETATM    7  H   UNL     1      42.222 -10.710   0.839  1.00  0.00     0.188 HD
HETATM    8  C   UNL     1      40.706 -11.295   2.234  1.00  0.00     0.124 A 
BRANCH   4   9
HETATM    9  C   UNL     1      42.934 -11.253   5.153  1.00  0.00    -0.005 A 
HETATM   10  C   UNL     1      44.085 -12.023   5.353  1.00  0.00     0.016 A 
HETATM   11  C   UNL     1      44.773 -11.966   6.570  1.00  0.00     0.037 A 
HETATM   12  C   UNL     1      44.322 -11.154   7.611  1.00  0.00     0.068 A 
HETATM   13  C   UNL     1      43.161 -10.406   7.433  1.00  0.00     0.037 A 
HETATM   14  C   UNL     1      42.473 -10.458   6.214  1.00  0.00     0.016 A 
BRANCH  12  15
HETATM   15  O   UNL     1      45.090 -11.189   8.741  1.00  0.00    -0.356 OA
HETATM   16  C   UNL     1      45.349  -9.945   9.380  1.00  0.00     0.210 C 
ENDBRANCH  12  15
ENDBRANCH   4   9
ENDBRANCH   1   3
BRANCH   2  17
HETATM   17  N   UNL     1      40.343 -14.168   4.687  1.00  0.00    -0.243 N 
HETATM   18  C   UNL     1      41.311 -14.501   5.626  1.00  0.00     0.271 C 
HETATM   19  O   UNL     1      41.423 -13.944   6.717  1.00  0.00    -0.266 OA
HETATM   20  H   UNL     1      40.256 -14.659   3.810  1.00  0.00     0.192 HD
BRANCH  18  21
HETATM   21  C   UNL     1      42.273 -15.594   5.269  1.00  0.00     0.036 A 
HETATM   22  C   UNL     1      42.041 -16.281   4.063  1.00  0.00     0.057 A 
HETATM   23  C   UNL     1      42.893 -17.307   3.716  1.00  0.00     0.106 A 
HETATM   24  C   UNL     1      43.953 -17.667   4.510  1.00  0.00     0.105 A 
HETATM   25  O   UNL     1      42.804 -18.069   2.593  1.00  0.00    -0.323 OA
HETATM   26  O   UNL     1      44.665 -18.703   3.991  1.00  0.00    -0.323 OA
HETATM   27  C   UNL     1      44.221 -17.018   5.694  1.00  0.00     0.041 A 
HETATM   28  C   UNL     1      43.927 -18.956   2.776  1.00  0.00     0.352 A 
HETATM   29  C   UNL     1      43.373 -15.970   6.076  1.00  0.00     0.020 A 
ENDBRANCH  18  21
ENDBRANCH   2  17
TORSDOF 5
ENDMDL
MODEL 7
REMARK VINA RESULT:      -7.4      2.142      6.041
REMARK  5 active torsions:
REMARK  status: ('A' for Active; 'I' for Inactive)
REMARK    1  A    between atoms: O_2  and  C_3 
REMARK    2  A    between atoms: C_6  and  C_7 
REMARK    3  A    between atoms: C_12  and  C_13 
REMARK    4  A    between atoms: N_14  and  N_15 
REMARK       I    between atoms: N_15  and  C_16 
REMARK    5  A    between atoms: C_16  and  C_17 
ROOT
HETATM    1  C   UNL     1      39.630 -11.860   4.416  1.00  0.00     0.154 C 
HETATM    2  N   UNL     1      39.462 -13.015   4.981  1.00  0.00    -0.183 NA
ENDROOT
BRANCH   1   3
HETATM    3  C   UNL     1      40.758 -11.412   3.630  1.00  0.00     0.031 A 
HETATM    4  C   UNL     1      41.190 -11.693   2.293  1.00  0.00     0.100 A 
HETATM    5  N   UNL     1      42.299 -10.988   2.003  1.00  0.00    -0.174 NA
HETATM    6  N   UNL     1      42.622 -10.364   3.139  1.00  0.00    -0.288 N 
HETATM    7  H   UNL     1      43.464  -9.796   3.153  1.00  0.00     0.188 HD
HETATM    8  C   UNL     1      41.739 -10.587   4.145  1.00  0.00     0.124 A 
BRANCH   4   9
HETATM    9  C   UNL     1      40.612 -12.578   1.273  1.00  0.00    -0.005 A 
HETATM   10  C   UNL     1      39.765 -12.097   0.270  1.00  0.00     0.016 A 
HETATM   11  C   UNL     1      39.263 -12.960  -0.710  1.00  0.00     0.037 A 
HETATM   12  C   UNL     1      39.586 -14.318  -0.702  1.00  0.00     0.068 A 
HETATM   13  C   UNL     1      40.405 -14.814   0.309  1.00  0.00     0.037 A 
HETATM   14  C   UNL     1      40.911 -13.950   1.289  1.00  0.00     0.016 A 
BRANCH  12  15
HETATM   15  O   UNL     1      39.034 -15.045  -1.718  1.00  0.00    -0.356 OA
HETATM   16  C   UNL     1      38.663 -14.332  -2.891  1.00  0.00     0.210 C 
ENDBRANCH  12  15
ENDBRANCH   4   9
ENDBRANCH   1   3
BRANCH   2  17
HETATM   17  N   UNL     1      40.373 -14.015   4.812  1.00  0.00    -0.243 N 
HETATM   18  C   UNL     1      40.518 -14.971   5.809  1.00  0.00     0.271 C 
HETATM   19  O   UNL     1      39.821 -15.012   6.821  1.00  0.00    -0.266 OA
HETATM   20  H   UNL     1      40.941 -14.019   3.979  1.00  0.00     0.192 HD
BRANCH  18  21
HETATM   21  C   UNL     1      41.597 -15.996   5.632  1.00  0.00     0.036 A 
HETATM   22  C   UNL     1      41.895 -16.389   4.314  1.00  0.00     0.057 A 
HETATM   23  C   UNL     1      42.867 -17.347   4.117  1.00  0.00     0.106 A 
HETATM   24  C   UNL     1      43.544 -17.917   5.165  1.00  0.00     0.105 A 
HETATM   25  O   UNL     1      43.268 -17.837   2.913  1.00  0.00    -0.323 OA
HETATM   26  O   UNL     1      44.455 -18.840   4.757  1.00  0.00    -0.323 OA
HETATM   27  C   UNL     1      43.289 -17.558   6.469  1.00  0.00     0.041 A 
HETATM   28  C   UNL     1      44.271 -18.787   3.326  1.00  0.00     0.352 A 
HETATM   29  C   UNL     1      42.307 -16.586   6.704  1.00  0.00     0.020 A 
ENDBRANCH  18  21
ENDBRANCH   2  17
TORSDOF 5
ENDMDL
MODEL 8
REMARK VINA RESULT:      -7.3      4.749      8.309
REMARK  5 active torsions:
REMARK  status: ('A' for Active; 'I' for Inactive)
REMARK    1  A    between atoms: O_2  and  C_3 
REMARK    2  A    between atoms: C_6  and  C_7 
REMARK    3  A    between atoms: C_12  and  C_13 
REMARK    4  A    between atoms: N_14  and  N_15 
REMARK       I    between atoms: N_15  and  C_16 
REMARK    5  A    between atoms: C_16  and  C_17 
ROOT
HETATM    1  C   UNL     1      42.776 -10.925   6.483  1.00  0.00     0.154 C 
HETATM    2  N   UNL     1      42.096 -11.961   6.103  1.00  0.00    -0.183 NA
ENDROOT
BRANCH   1   3
HETATM    3  C   UNL     1      44.164 -10.873   6.887  1.00  0.00     0.031 A 
HETATM    4  C   UNL     1      44.818 -10.425   8.081  1.00  0.00     0.100 A 
HETATM    5  N   UNL     1      46.145 -10.624   7.988  1.00  0.00    -0.174 NA
HETATM    6  N   UNL     1      46.344 -11.081   6.749  1.00  0.00    -0.288 N 
HETATM    7  H   UNL     1      47.297 -11.265   6.451  1.00  0.00     0.188 HD
HETATM    8  C   UNL     1      45.194 -11.243   6.045  1.00  0.00     0.124 A 
BRANCH   4   9
HETATM    9  C   UNL     1      44.262  -9.832   9.304  1.00  0.00    -0.005 A 
HETATM   10  C   UNL     1      43.950  -8.472   9.390  1.00  0.00     0.016 A 
HETATM   11  C   UNL     1      43.384  -7.946  10.557  1.00  0.00     0.037 A 
HETATM   12  C   UNL     1      43.132  -8.761  11.661  1.00  0.00     0.068 A 
HETATM   13  C   UNL     1      43.467 -10.111  11.598  1.00  0.00     0.037 A 
HETATM   14  C   UNL     1      44.029 -10.640  10.429  1.00  0.00     0.016 A 
BRANCH  12  15
HETATM   15  O   UNL     1      42.573  -8.122  12.732  1.00  0.00    -0.356 OA
HETATM   16  C   UNL     1      42.265  -8.920  13.868  1.00  0.00     0.210 C 
ENDBRANCH  12  15
ENDBRANCH   4   9
ENDBRANCH   1   3
BRANCH   2  17
HETATM   17  N   UNL     1      42.693 -13.179   5.971  1.00  0.00    -0.243 N 
HETATM   18  C   UNL     1      42.423 -13.944   4.844  1.00  0.00     0.271 C 
HETATM   19  O   UNL     1      41.718 -13.561   3.912  1.00  0.00    -0.266 OA
HETATM   20  H   UNL     1      43.296 -13.507   6.710  1.00  0.00     0.192 HD
BRANCH  18  21
HETATM   21  C   UNL     1      43.020 -15.318   4.781  1.00  0.00     0.036 A 
HETATM   22  C   UNL     1      42.868 -16.027   3.575  1.00  0.00     0.057 A 
HETATM   23  C   UNL     1      43.386 -17.301   3.491  1.00  0.00     0.106 A 
HETATM   24  C   UNL     1      44.040 -17.887   4.545  1.00  0.00     0.105 A 
HETATM   25  O   UNL     1      43.320 -18.116   2.404  1.00  0.00    -0.323 OA
HETATM   26  O   UNL     1      44.468 -19.146   4.259  1.00  0.00    -0.323 OA
HETATM   27  C   UNL     1      44.217 -17.229   5.741  1.00  0.00     0.041 A 
HETATM   28  C   UNL     1      44.003 -19.286   2.899  1.00  0.00     0.352 A 
HETATM   29  C   UNL     1      43.703 -15.930   5.859  1.00  0.00     0.020 A 
ENDBRANCH  18  21
ENDBRANCH   2  17
TORSDOF 5
ENDMDL
MODEL 9
REMARK VINA RESULT:      -7.2      2.267      3.345
REMARK  5 active torsions:
REMARK  status: ('A' for Active; 'I' for Inactive)
REMARK    1  A    between atoms: O_2  and  C_3 
REMARK    2  A    between atoms: C_6  and  C_7 
REMARK    3  A    between atoms: C_12  and  C_13 
REMARK    4  A    between atoms: N_14  and  N_15 
REMARK       I    between atoms: N_15  and  C_16 
REMARK    5  A    between atoms: C_16  and  C_17 
ROOT
HETATM    1  C   UNL     1      39.881 -15.684   1.561  1.00  0.00     0.154 C 
HETATM    2  N   UNL     1      39.873 -15.350   0.308  1.00  0.00    -0.183 NA
ENDROOT
BRANCH   1   3
HETATM    3  C   UNL     1      40.373 -14.914   2.682  1.00  0.00     0.031 A 
HETATM    4  C   UNL     1      41.393 -15.155   3.660  1.00  0.00     0.100 A 
HETATM    5  N   UNL     1      41.504 -14.099   4.487  1.00  0.00    -0.174 NA
HETATM    6  N   UNL     1      40.528 -13.264   4.120  1.00  0.00    -0.288 N 
HETATM    7  H   UNL     1      40.408 -12.404   4.647  1.00  0.00     0.188 HD
HETATM    8  C   UNL     1      39.818 -13.703   3.050  1.00  0.00     0.124 A 
BRANCH   4   9
HETATM    9  C   UNL     1      42.271 -16.316   3.852  1.00  0.00    -0.005 A 
HETATM   10  C   UNL     1      42.662 -16.745   5.125  1.00  0.00     0.016 A 
HETATM   11  C   UNL     1      43.467 -17.880   5.275  1.00  0.00     0.037 A 
HETATM   12  C   UNL     1      43.906 -18.598   4.163  1.00  0.00     0.068 A 
HETATM   13  C   UNL     1      43.547 -18.164   2.889  1.00  0.00     0.037 A 
HETATM   14  C   UNL     1      42.738 -17.031   2.737  1.00  0.00     0.016 A 
BRANCH  12  15
HETATM   15  O   UNL     1      44.680 -19.687   4.451  1.00  0.00    -0.356 OA
HETATM   16  C   UNL     1      44.150 -20.623   5.382  1.00  0.00     0.210 C 
ENDBRANCH  12  15
ENDBRANCH   4   9
ENDBRANCH   1   3
BRANCH   2  17
HETATM   17  N   UNL     1      40.297 -14.117  -0.089  1.00  0.00    -0.243 N 
HETATM   18  C   UNL     1      39.617 -13.467  -1.111  1.00  0.00     0.271 C 
HETATM   19  O   UNL     1      38.603 -13.912  -1.646  1.00  0.00    -0.266 OA
HETATM   20  H   UNL     1      41.112 -13.719   0.351  1.00  0.00     0.192 HD
BRANCH  18  21
HETATM   21  C   UNL     1      40.172 -12.158  -1.587  1.00  0.00     0.036 A 
HETATM   22  C   UNL     1      41.000 -11.453  -0.694  1.00  0.00     0.057 A 
HETATM   23  C   UNL     1      41.509 -10.235  -1.091  1.00  0.00     0.106 A 
HETATM   24  C   UNL     1      41.230  -9.701  -2.325  1.00  0.00     0.105 A 
HETATM   25  O   UNL     1      42.317  -9.430  -0.349  1.00  0.00    -0.323 OA
HETATM   26  O   UNL     1      41.823  -8.493  -2.517  1.00  0.00    -0.323 OA
HETATM   27  C   UNL     1      40.429 -10.360  -3.231  1.00  0.00     0.041 A 
HETATM   28  C   UNL     1      42.508  -8.326  -1.256  1.00  0.00     0.352 A 
HETATM   29  C   UNL     1      39.897 -11.601  -2.858  1.00  0.00     0.020 A 
ENDBRANCH  18  21
ENDBRANCH   2  17
TORSDOF 5
ENDMDL
MODEL 10
REMARK VINA RESULT:      -6.9      5.715      9.183
REMARK  5 active torsions:
REMARK  status: ('A' for Active; 'I' for Inactive)
REMARK    1  A    between atoms: O_2  and  C_3 
REMARK    2  A    between atoms: C_6  and  C_7 
REMARK    3  A    between atoms: C_12  and  C_13 
REMARK    4  A    between atoms: N_14  and  N_15 
REMARK       I    between atoms: N_15  and  C_16 
REMARK    5  A    between atoms: C_16  and  C_17 
ROOT
HETATM    1  C   UNL     1      44.366 -12.056   6.607  1.00  0.00     0.154 C 
HETATM    2  N   UNL     1      44.878 -11.512   7.668  1.00  0.00    -0.183 NA
ENDROOT
BRANCH   1   3
HETATM    3  C   UNL     1      42.980 -12.386   6.360  1.00  0.00     0.031 A 
HETATM    4  C   UNL     1      42.323 -13.587   5.933  1.00  0.00     0.100 A 
HETATM    5  N   UNL     1      40.991 -13.399   5.889  1.00  0.00    -0.174 NA
HETATM    6  N   UNL     1      40.812 -12.106   6.173  1.00  0.00    -0.288 N 
HETATM    7  H   UNL     1      39.865 -11.738   6.158  1.00  0.00     0.188 HD
HETATM    8  C   UNL     1      41.967 -11.452   6.457  1.00  0.00     0.124 A 
BRANCH   4   9
HETATM    9  C   UNL     1      42.878 -14.899   5.575  1.00  0.00    -0.005 A 
HETATM   10  C   UNL     1      42.481 -15.578   4.419  1.00  0.00     0.016 A 
HETATM   11  C   UNL     1      43.059 -16.809   4.086  1.00  0.00     0.037 A 
HETATM   12  C   UNL     1      44.030 -17.389   4.903  1.00  0.00     0.068 A 
HETATM   13  C   UNL     1      44.411 -16.735   6.072  1.00  0.00     0.037 A 
HETATM   14  C   UNL     1      43.837 -15.501   6.405  1.00  0.00     0.016 A 
BRANCH  12  15
HETATM   15  O   UNL     1      44.514 -18.586   4.459  1.00  0.00    -0.356 OA
HETATM   16  C   UNL     1      44.203 -18.948   3.119  1.00  0.00     0.210 C 
ENDBRANCH  12  15
ENDBRANCH   4   9
ENDBRANCH   1   3
BRANCH   2  17
HETATM   17  N   UNL     1      44.082 -11.106   8.697  1.00  0.00    -0.243 N 
HETATM   18  C   UNL     1      44.197  -9.803   9.165  1.00  0.00     0.271 C 
HETATM   19  O   UNL     1      44.936  -8.960   8.659  1.00  0.00    -0.266 OA
HETATM   20  H   UNL     1      43.448 -11.771   9.113  1.00  0.00     0.192 HD
BRANCH  18  21
HETATM   21  C   UNL     1      43.377  -9.423  10.361  1.00  0.00     0.036 A 
HETATM   22  C   UNL     1      41.990  -9.645  10.281  1.00  0.00     0.057 A 
HETATM   23  C   UNL     1      41.203  -9.286  11.355  1.00  0.00     0.106 A 
HETATM   24  C   UNL     1      41.738  -8.724  12.487  1.00  0.00     0.105 A 
HETATM   25  O   UNL     1      39.853  -9.429  11.435  1.00  0.00    -0.323 OA
HETATM   26  O   UNL     1      40.793  -8.440  13.424  1.00  0.00    -0.323 OA
HETATM   27  C   UNL     1      43.089  -8.495  12.610  1.00  0.00     0.041 A 
HETATM   28  C   UNL     1      39.599  -8.886  12.746  1.00  0.00     0.352 A 
HETATM   29  C   UNL     1      43.917  -8.850  11.536  1.00  0.00     0.020 A 
ENDBRANCH  18  21
ENDBRANCH   2  17
TORSDOF 5
ENDMDL
