MODEL 1
REMARK VINA RESULT:     -11.0      0.000      0.000
REMARK  8 active torsions:
REMARK  status: ('A' for Active; 'I' for Inactive)
REMARK    1  A    between atoms: C_3  and  N_4 
REMARK       I    between atoms: N_4  and  C_5 
REMARK    2  A    between atoms: C_5  and  C_6 
REMARK    3  A    between atoms: C_6  and  N_7 
REMARK    4  A    between atoms: N_11  and  C_12 
REMARK    5  A    between atoms: C_14  and  N_15 
REMARK    6  A    between atoms: N_15  and  C_16 
REMARK    7  A    between atoms: C_23  and  N_24 
REMARK    8  A    between atoms: N_24  and  C_25 
ROOT
HETATM    1  C   UNL     1      41.257 -14.656   4.443  1.00  0.00     0.756 A 
HETATM    2  N   UNL     1      42.272 -15.463   4.168  1.00  0.00     0.131 NA
HETATM    3  C   UNL     1      42.332 -15.950   2.934  1.00  0.00     0.758 A 
HETATM    4  N   UNL     1      41.496 -15.593   1.974  1.00  0.00     0.131 NA
HETATM    5  C   UNL     1      40.539 -14.739   2.303  1.00  0.00     0.758 A 
HETATM    6  N   UNL     1      40.386 -14.250   3.530  1.00  0.00     0.131 NA
ENDROOT
BRANCH   1   7
HETATM    7  N   UNL     1      41.116 -14.211   5.762  1.00  0.00    -0.210 N 
HETATM    8  C   UNL     1      40.758 -12.792   5.928  1.00  0.00     0.169 C 
HETATM    9  C   UNL     1      42.015 -11.894   5.859  1.00  0.00     0.256 C 
HETATM   10  N   UNL     1      43.047 -12.389   6.895  1.00  0.00    -0.060 N 
HETATM   11  H   UNL     1      42.560 -12.382   7.799  1.00  0.00     0.280 HD
HETATM   12  C   UNL     1      43.415 -13.854   6.622  1.00  0.00     0.256 C 
HETATM   13  C   UNL     1      42.133 -14.717   6.695  1.00  0.00     0.169 C 
BRANCH  10  14
HETATM   14  C   UNL     1      44.257 -11.475   7.059  1.00  0.00     0.337 C 
BRANCH  14  15
HETATM   15  C   UNL     1      44.467 -10.831   8.438  1.00  0.00     0.248 C 
HETATM   16  N   UNL     1      43.332 -10.182   8.893  1.00  0.00    -0.325 N 
HETATM   17  H   UNL     1      42.573 -10.085   8.226  1.00  0.00     0.169 HD
HETATM   18  O   UNL     1      45.561 -10.889   8.981  1.00  0.00    -0.271 OA
BRANCH  16  19
HETATM   19  C   UNL     1      43.138  -9.409  10.070  1.00  0.00     0.042 A 
HETATM   20  C   UNL     1      43.297  -9.816  11.407  1.00  0.00    -0.035 A 
HETATM   21  C   UNL     1      43.585 -11.216  11.873  1.00  0.00     0.050 C 
HETATM   22  C   UNL     1      43.144  -8.855  12.435  1.00  0.00     0.011 A 
HETATM   23  C   UNL     1      42.779  -7.539  12.161  1.00  0.00     0.024 A 
HETATM   24  C   UNL     1      42.555  -7.163  10.850  1.00  0.00     0.036 A 
HETATM   25  C   UNL     1      42.727  -8.083   9.816  1.00  0.00     0.053 A 
HETATM   26 CL   UNL     1      42.076  -5.551  10.485  1.00  0.00    -0.084 Cl
ENDBRANCH  16  19
ENDBRANCH  14  15
ENDBRANCH  10  14
ENDBRANCH   1   7
BRANCH   3  27
HETATM   27  N   UNL     1      43.380 -16.832   2.679  1.00  0.00    -0.187 N 
HETATM   28  H   UNL     1      44.225 -16.323   2.465  1.00  0.00     0.184 HD
BRANCH  27  29
HETATM   29  C   UNL     1      43.588 -18.166   3.062  1.00  0.00     0.049 A 
HETATM   30  C   UNL     1      43.280 -19.183   2.142  1.00  0.00     0.030 A 
HETATM   31  C   UNL     1      43.433 -20.532   2.474  1.00  0.00     0.002 A 
HETATM   32  C   UNL     1      43.893 -20.889   3.738  1.00  0.00     0.000 A 
HETATM   33  C   UNL     1      44.183 -19.897   4.670  1.00  0.00     0.002 A 
HETATM   34  C   UNL     1      44.019 -18.549   4.337  1.00  0.00     0.030 A 
ENDBRANCH  27  29
ENDBRANCH   3  27
BRANCH   5  35
HETATM   35  N   UNL     1      39.726 -14.358   1.240  1.00  0.00    -0.187 N 
HETATM   36  H   UNL     1      38.760 -14.375   1.546  1.00  0.00     0.184 HD
BRANCH  35  37
HETATM   37  C   UNL     1      39.950 -13.879  -0.053  1.00  0.00     0.049 A 
HETATM   38  C   UNL     1      40.659 -12.709  -0.341  1.00  0.00     0.030 A 
HETATM   39  C   UNL     1      40.875 -12.301  -1.662  1.00  0.00     0.002 A 
HETATM   40  C   UNL     1      40.391 -13.066  -2.720  1.00  0.00     0.000 A 
HETATM   41  C   UNL     1      39.692 -14.238  -2.457  1.00  0.00     0.002 A 
HETATM   42  C   UNL     1      39.478 -14.640  -1.136  1.00  0.00     0.030 A 
ENDBRANCH  35  37
ENDBRANCH   5  35
TORSDOF 8
ENDMDL
MODEL 2
REMARK VINA RESULT:     -10.9      0.110      5.122
REMARK  8 active torsions:
REMARK  status: ('A' for Active; 'I' for Inactive)
REMARK    1  A    between atoms: C_3  and  N_4 
REMARK       I    between atoms: N_4  and  C_5 
REMARK    2  A    between atoms: C_5  and  C_6 
REMARK    3  A    between atoms: C_6  and  N_7 
REMARK    4  A    between atoms: N_11  and  C_12 
REMARK    5  A    between atoms: C_14  and  N_15 
REMARK    6  A    between atoms: N_15  and  C_16 
REMARK    7  A    between atoms: C_23  and  N_24 
REMARK    8  A    between atoms: N_24  and  C_25 
ROOT
HETATM    1  C   UNL     1      41.192 -14.593   4.440  1.00  0.00     0.756 A 
HETATM    2  N   UNL     1      40.362 -14.187   3.490  1.00  0.00     0.131 NA
HETATM    3  C   UNL     1      40.600 -14.626   2.259  1.00  0.00     0.758 A 
HETATM    4  N   UNL     1      41.549 -15.502   1.975  1.00  0.00     0.131 NA
HETATM    5  C   UNL     1      42.305 -15.910   2.981  1.00  0.00     0.758 A 
HETATM    6  N   UNL     1      42.159 -15.475   4.229  1.00  0.00     0.131 NA
ENDROOT
BRANCH   1   7
HETATM    7  N   UNL     1      41.023 -14.065   5.725  1.00  0.00    -0.210 N 
HETATM    8  C   UNL     1      40.784 -12.614   5.799  1.00  0.00     0.169 C 
HETATM    9  C   UNL     1      42.117 -11.832   5.755  1.00  0.00     0.256 C 
HETATM   10  N   UNL     1      43.046 -12.354   6.870  1.00  0.00    -0.060 N 
HETATM   11  H   UNL     1      42.516 -12.255   7.744  1.00  0.00     0.280 HD
HETATM   12  C   UNL     1      43.298 -13.857   6.693  1.00  0.00     0.256 C 
HETATM   13  C   UNL     1      41.943 -14.603   6.738  1.00  0.00     0.169 C 
BRANCH  10  14
HETATM   14  C   UNL     1      44.322 -11.538   7.054  1.00  0.00     0.337 C 
BRANCH  14  15
HETATM   15  C   UNL     1      44.526 -10.856   8.416  1.00  0.00     0.248 C 
HETATM   16  N   UNL     1      43.382 -10.215   8.859  1.00  0.00    -0.325 N 
HETATM   17  H   UNL     1      42.618 -10.149   8.194  1.00  0.00     0.169 HD
HETATM   18  O   UNL     1      45.623 -10.880   8.955  1.00  0.00    -0.271 OA
BRANCH  16  19
HETATM   19  C   UNL     1      43.179  -9.416  10.017  1.00  0.00     0.042 A 
HETATM   20  C   UNL     1      43.313  -9.796  11.365  1.00  0.00    -0.035 A 
HETATM   21  C   UNL     1      43.578 -11.189  11.863  1.00  0.00     0.050 C 
HETATM   22  C   UNL     1      43.155  -8.813  12.370  1.00  0.00     0.011 A 
HETATM   23  C   UNL     1      42.810  -7.499  12.064  1.00  0.00     0.024 A 
HETATM   24  C   UNL     1      42.610  -7.147  10.741  1.00  0.00     0.036 A 
HETATM   25  C   UNL     1      42.788  -8.091   9.730  1.00  0.00     0.053 A 
HETATM   26 CL   UNL     1      42.155  -5.539  10.336  1.00  0.00    -0.084 Cl
ENDBRANCH  16  19
ENDBRANCH  14  15
ENDBRANCH  10  14
ENDBRANCH   1   7
BRANCH   3  27
HETATM   27  N   UNL     1      39.744 -14.151   1.269  1.00  0.00    -0.187 N 
HETATM   28  H   UNL     1      38.945 -13.693   1.683  1.00  0.00     0.184 HD
BRANCH  27  29
HETATM   29  C   UNL     1      39.969 -13.820  -0.077  1.00  0.00     0.049 A 
HETATM   30  C   UNL     1      40.678 -12.642  -0.367  1.00  0.00     0.030 A 
HETATM   31  C   UNL     1      40.906 -12.239  -1.686  1.00  0.00     0.002 A 
HETATM   32  C   UNL     1      40.423 -13.007  -2.741  1.00  0.00     0.000 A 
HETATM   33  C   UNL     1      39.701 -14.167  -2.474  1.00  0.00     0.002 A 
HETATM   34  C   UNL     1      39.466 -14.560  -1.153  1.00  0.00     0.030 A 
ENDBRANCH  27  29
ENDBRANCH   3  27
BRANCH   5  35
HETATM   35  N   UNL     1      43.248 -16.873   2.632  1.00  0.00    -0.187 N 
HETATM   36  H   UNL     1      43.918 -16.458   1.995  1.00  0.00     0.184 HD
BRANCH  35  37
HETATM   37  C   UNL     1      43.516 -18.184   3.033  1.00  0.00     0.049 A 
HETATM   38  C   UNL     1      43.980 -18.532   4.305  1.00  0.00     0.030 A 
HETATM   39  C   UNL     1      44.198 -19.870   4.653  1.00  0.00     0.002 A 
HETATM   40  C   UNL     1      43.945 -20.884   3.734  1.00  0.00     0.000 A 
HETATM   41  C   UNL     1      43.474 -20.562   2.466  1.00  0.00     0.002 A 
HETATM   42  C   UNL     1      43.259 -19.224   2.124  1.00  0.00     0.030 A 
ENDBRANCH  35  37
ENDBRANCH   5  35
TORSDOF 8
ENDMDL
MODEL 3
REMARK VINA RESULT:     -10.7      1.406      5.330
REMARK  8 active torsions:
REMARK  status: ('A' for Active; 'I' for Inactive)
REMARK    1  A    between atoms: C_3  and  N_4 
REMARK       I    between atoms: N_4  and  C_5 
REMARK    2  A    between atoms: C_5  and  C_6 
REMARK    3  A    between atoms: C_6  and  N_7 
REMARK    4  A    between atoms: N_11  and  C_12 
REMARK    5  A    between atoms: C_14  and  N_15 
REMARK    6  A    between atoms: N_15  and  C_16 
REMARK    7  A    between atoms: C_23  and  N_24 
REMARK    8  A    between atoms: N_24  and  C_25 
ROOT
HETATM    1  C   UNL     1      41.131 -14.639   4.492  1.00  0.00     0.756 A 
HETATM    2  N   UNL     1      40.302 -14.283   3.521  1.00  0.00     0.131 NA
HETATM    3  C   UNL     1      40.578 -14.733   2.302  1.00  0.00     0.758 A 
HETATM    4  N   UNL     1      41.566 -15.575   2.050  1.00  0.00     0.131 NA
HETATM    5  C   UNL     1      42.320 -15.935   3.076  1.00  0.00     0.758 A 
HETATM    6  N   UNL     1      42.135 -15.484   4.313  1.00  0.00     0.131 NA
ENDROOT
BRANCH   1   7
HETATM    7  N   UNL     1      40.918 -14.096   5.764  1.00  0.00    -0.210 N 
HETATM    8  C   UNL     1      39.920 -13.017   5.846  1.00  0.00     0.169 C 
HETATM    9  C   UNL     1      40.548 -11.654   5.472  1.00  0.00     0.256 C 
HETATM   10  N   UNL     1      41.786 -11.408   6.359  1.00  0.00    -0.060 N 
HETATM   11  H   UNL     1      41.453 -11.479   7.328  1.00  0.00     0.280 HD
HETATM   12  C   UNL     1      42.806 -12.540   6.176  1.00  0.00     0.256 C 
HETATM   13  C   UNL     1      42.140 -13.884   6.555  1.00  0.00     0.169 C 
BRANCH  10  14
HETATM   14  C   UNL     1      42.388 -10.013   6.220  1.00  0.00     0.337 C 
BRANCH  14  15
HETATM   15  C   UNL     1      42.523  -9.177   7.502  1.00  0.00     0.248 C 
HETATM   16  N   UNL     1      42.516  -9.961   8.643  1.00  0.00    -0.325 N 
HETATM   17  H   UNL     1      42.285 -10.941   8.513  1.00  0.00     0.169 HD
HETATM   18  O   UNL     1      42.572  -7.958   7.436  1.00  0.00    -0.271 OA
BRANCH  16  19
HETATM   19  C   UNL     1      42.542  -9.575  10.011  1.00  0.00     0.042 A 
HETATM   20  C   UNL     1      43.668  -9.337  10.820  1.00  0.00    -0.035 A 
HETATM   21  C   UNL     1      45.100  -9.575  10.428  1.00  0.00     0.050 C 
HETATM   22  C   UNL     1      43.472  -8.866  12.140  1.00  0.00     0.011 A 
HETATM   23  C   UNL     1      42.198  -8.694  12.676  1.00  0.00     0.024 A 
HETATM   24  C   UNL     1      41.095  -8.996  11.899  1.00  0.00     0.036 A 
HETATM   25  C   UNL     1      41.262  -9.435  10.585  1.00  0.00     0.053 A 
HETATM   26 CL   UNL     1      39.511  -8.820  12.544  1.00  0.00    -0.084 Cl
ENDBRANCH  16  19
ENDBRANCH  14  15
ENDBRANCH  10  14
ENDBRANCH   1   7
BRANCH   3  27
HETATM   27  N   UNL     1      39.721 -14.310   1.290  1.00  0.00    -0.187 N 
HETATM   28  H   UNL     1      38.865 -13.946   1.681  1.00  0.00     0.184 HD
BRANCH  27  29
HETATM   29  C   UNL     1      39.968 -13.914  -0.034  1.00  0.00     0.049 A 
HETATM   30  C   UNL     1      40.679 -12.723  -0.256  1.00  0.00     0.030 A 
HETATM   31  C   UNL     1      40.928 -12.256  -1.549  1.00  0.00     0.002 A 
HETATM   32  C   UNL     1      40.464 -12.972  -2.648  1.00  0.00     0.000 A 
HETATM   33  C   UNL     1      39.740 -14.144  -2.450  1.00  0.00     0.002 A 
HETATM   34  C   UNL     1      39.483 -14.601  -1.153  1.00  0.00     0.030 A 
ENDBRANCH  27  29
ENDBRANCH   3  27
BRANCH   5  35
HETATM   35  N   UNL     1      43.307 -16.865   2.760  1.00  0.00    -0.187 N 
HETATM   36  H   UNL     1      44.032 -16.402   2.227  1.00  0.00     0.184 HD
BRANCH  35  37
HETATM   37  C   UNL     1      43.549 -18.199   3.094  1.00  0.00     0.049 A 
HETATM   38  C   UNL     1      44.006 -18.621   4.346  1.00  0.00     0.030 A 
HETATM   39  C   UNL     1      44.199 -19.978   4.626  1.00  0.00     0.002 A 
HETATM   40  C   UNL     1      43.926 -20.940   3.657  1.00  0.00     0.000 A 
HETATM   41  C   UNL     1      43.461 -20.545   2.408  1.00  0.00     0.002 A 
HETATM   42  C   UNL     1      43.271 -19.188   2.134  1.00  0.00     0.030 A 
ENDBRANCH  35  37
ENDBRANCH   5  35
TORSDOF 8
ENDMDL
MODEL 4
REMARK VINA RESULT:     -10.0      1.642      5.495
REMARK  8 active torsions:
REMARK  status: ('A' for Active; 'I' for Inactive)
REMARK    1  A    between atoms: C_3  and  N_4 
REMARK       I    between atoms: N_4  and  C_5 
REMARK    2  A    between atoms: C_5  and  C_6 
REMARK    3  A    between atoms: C_6  and  N_7 
REMARK    4  A    between atoms: N_11  and  C_12 
REMARK    5  A    between atoms: C_14  and  N_15 
REMARK    6  A    between atoms: N_15  and  C_16 
REMARK    7  A    between atoms: C_23  and  N_24 
REMARK    8  A    between atoms: N_24  and  C_25 
ROOT
HETATM    1  C   UNL     1      41.192 -12.634   3.030  1.00  0.00     0.756 A 
HETATM    2  N   UNL     1      41.021 -12.398   1.737  1.00  0.00     0.131 NA
HETATM    3  C   UNL     1      41.101 -13.443   0.922  1.00  0.00     0.758 A 
HETATM    4  N   UNL     1      41.246 -14.685   1.352  1.00  0.00     0.131 NA
HETATM    5  C   UNL     1      41.353 -14.856   2.659  1.00  0.00     0.758 A 
HETATM    6  N   UNL     1      41.334 -13.852   3.532  1.00  0.00     0.131 NA
ENDROOT
BRANCH   1   7
HETATM    7  N   UNL     1      41.212 -11.536   3.897  1.00  0.00    -0.210 N 
HETATM    8  C   UNL     1      42.440 -10.724   3.880  1.00  0.00     0.169 C 
HETATM    9  C   UNL     1      43.525 -11.344   4.791  1.00  0.00     0.256 C 
HETATM   10  N   UNL     1      42.944 -11.540   6.206  1.00  0.00    -0.060 N 
HETATM   11  H   UNL     1      42.609 -10.616   6.501  1.00  0.00     0.280 HD
HETATM   12  C   UNL     1      41.705 -12.444   6.153  1.00  0.00     0.256 C 
HETATM   13  C   UNL     1      40.647 -11.794   5.230  1.00  0.00     0.169 C 
BRANCH  10  14
HETATM   14  C   UNL     1      43.970 -11.972   7.250  1.00  0.00     0.337 C 
BRANCH  14  15
HETATM   15  C   UNL     1      44.216 -11.016   8.427  1.00  0.00     0.248 C 
HETATM   16  N   UNL     1      43.089 -10.278   8.749  1.00  0.00    -0.325 N 
HETATM   17  H   UNL     1      42.310 -10.345   8.103  1.00  0.00     0.169 HD
HETATM   18  O   UNL     1      45.327 -10.939   8.933  1.00  0.00    -0.271 OA
BRANCH  16  19
HETATM   19  C   UNL     1      42.924  -9.245   9.711  1.00  0.00     0.042 A 
HETATM   20  C   UNL     1      42.864  -7.857   9.487  1.00  0.00    -0.035 A 
HETATM   21  C   UNL     1      43.096  -7.167   8.172  1.00  0.00     0.050 C 
HETATM   22  C   UNL     1      42.599  -7.001  10.583  1.00  0.00     0.011 A 
HETATM   23  C   UNL     1      42.461  -7.489  11.880  1.00  0.00     0.024 A 
HETATM   24  C   UNL     1      42.592  -8.848  12.104  1.00  0.00     0.036 A 
HETATM   25  C   UNL     1      42.824  -9.715  11.037  1.00  0.00     0.053 A 
HETATM   26 CL   UNL     1      42.454  -9.476  13.699  1.00  0.00    -0.084 Cl
ENDBRANCH  16  19
ENDBRANCH  14  15
ENDBRANCH  10  14
ENDBRANCH   1   7
BRANCH   3  27
HETATM   27  N   UNL     1      40.964 -13.167  -0.436  1.00  0.00    -0.187 N 
HETATM   28  H   UNL     1      41.869 -13.118  -0.879  1.00  0.00     0.184 HD
BRANCH  27  29
HETATM   29  C   UNL     1      39.894 -13.364  -1.323  1.00  0.00     0.049 A 
HETATM   30  C   UNL     1      38.706 -12.645  -1.111  1.00  0.00     0.030 A 
HETATM   31  C   UNL     1      37.594 -12.821  -1.939  1.00  0.00     0.002 A 
HETATM   32  C   UNL     1      37.648 -13.728  -2.993  1.00  0.00     0.000 A 
HETATM   33  C   UNL     1      38.809 -14.465  -3.207  1.00  0.00     0.002 A 
HETATM   34  C   UNL     1      39.916 -14.293  -2.370  1.00  0.00     0.030 A 
ENDBRANCH  27  29
ENDBRANCH   3  27
BRANCH   5  35
HETATM   35  N   UNL     1      41.446 -16.187   3.055  1.00  0.00    -0.187 N 
HETATM   36  H   UNL     1      40.535 -16.619   2.961  1.00  0.00     0.184 HD
BRANCH  35  37
HETATM   37  C   UNL     1      42.491 -17.035   3.430  1.00  0.00     0.049 A 
HETATM   38  C   UNL     1      43.092 -17.025   4.692  1.00  0.00     0.030 A 
HETATM   39  C   UNL     1      44.115 -17.924   5.013  1.00  0.00     0.002 A 
HETATM   40  C   UNL     1      44.547 -18.859   4.076  1.00  0.00     0.000 A 
HETATM   41  C   UNL     1      43.956 -18.894   2.818  1.00  0.00     0.002 A 
HETATM   42  C   UNL     1      42.936 -17.993   2.503  1.00  0.00     0.030 A 
ENDBRANCH  35  37
ENDBRANCH   5  35
TORSDOF 8
ENDMDL
MODEL 5
REMARK VINA RESULT:     -10.0      1.328      1.910
REMARK  8 active torsions:
REMARK  status: ('A' for Active; 'I' for Inactive)
REMARK    1  A    between atoms: C_3  and  N_4 
REMARK       I    between atoms: N_4  and  C_5 
REMARK    2  A    between atoms: C_5  and  C_6 
REMARK    3  A    between atoms: C_6  and  N_7 
REMARK    4  A    between atoms: N_11  and  C_12 
REMARK    5  A    between atoms: C_14  and  N_15 
REMARK    6  A    between atoms: N_15  and  C_16 
REMARK    7  A    between atoms: C_23  and  N_24 
REMARK    8  A    between atoms: N_24  and  C_25 
ROOT
HETATM    1  C   UNL     1      40.550 -12.669   3.480  1.00  0.00     0.756 A 
HETATM    2  N   UNL     1      40.775 -13.947   3.752  1.00  0.00     0.131 NA
HETATM    3  C   UNL     1      40.704 -14.797   2.735  1.00  0.00     0.758 A 
HETATM    4  N   UNL     1      40.516 -14.413   1.484  1.00  0.00     0.131 NA
HETATM    5  C   UNL     1      40.354 -13.116   1.275  1.00  0.00     0.758 A 
HETATM    6  N   UNL     1      40.362 -12.212   2.251  1.00  0.00     0.131 NA
ENDROOT
BRANCH   1   7
HETATM    7  N   UNL     1      40.520 -11.769   4.552  1.00  0.00    -0.210 N 
HETATM    8  C   UNL     1      41.412 -10.603   4.438  1.00  0.00     0.169 C 
HETATM    9  C   UNL     1      42.845 -10.958   4.898  1.00  0.00     0.256 C 
HETATM   10  N   UNL     1      42.787 -11.545   6.324  1.00  0.00    -0.060 N 
HETATM   11  H   UNL     1      42.312 -10.839   6.897  1.00  0.00     0.280 HD
HETATM   12  C   UNL     1      41.890 -12.789   6.351  1.00  0.00     0.256 C 
HETATM   13  C   UNL     1      40.469 -12.395   5.881  1.00  0.00     0.169 C 
BRANCH  10  14
HETATM   14  C   UNL     1      44.154 -11.763   6.966  1.00  0.00     0.337 C 
BRANCH  14  15
HETATM   15  C   UNL     1      44.450 -10.991   8.262  1.00  0.00     0.248 C 
HETATM   16  N   UNL     1      43.326 -10.352   8.760  1.00  0.00    -0.325 N 
HETATM   17  H   UNL     1      42.509 -10.348   8.159  1.00  0.00     0.169 HD
HETATM   18  O   UNL     1      45.588 -10.952   8.706  1.00  0.00    -0.271 OA
BRANCH  16  19
HETATM   19  C   UNL     1      43.196  -9.486   9.879  1.00  0.00     0.042 A 
HETATM   20  C   UNL     1      43.411  -9.789  11.237  1.00  0.00    -0.035 A 
HETATM   21  C   UNL     1      43.702 -11.153  11.798  1.00  0.00     0.050 C 
HETATM   22  C   UNL     1      43.317  -8.749  12.191  1.00  0.00     0.011 A 
HETATM   23  C   UNL     1      42.956  -7.453  11.831  1.00  0.00     0.024 A 
HETATM   24  C   UNL     1      42.678  -7.177  10.505  1.00  0.00     0.036 A 
HETATM   25  C   UNL     1      42.791  -8.178   9.541  1.00  0.00     0.053 A 
HETATM   26 CL   UNL     1      42.203  -5.591  10.035  1.00  0.00    -0.084 Cl
ENDBRANCH  16  19
ENDBRANCH  14  15
ENDBRANCH  10  14
ENDBRANCH   1   7
BRANCH   3  27
HETATM   27  N   UNL     1      40.899 -16.140   3.050  1.00  0.00    -0.187 N 
HETATM   28  H   UNL     1      40.170 -16.707   2.644  1.00  0.00     0.184 HD
BRANCH  27  29
HETATM   29  C   UNL     1      42.053 -16.852   3.416  1.00  0.00     0.049 A 
HETATM   30  C   UNL     1      42.647 -17.699   2.466  1.00  0.00     0.030 A 
HETATM   31  C   UNL     1      43.777 -18.459   2.778  1.00  0.00     0.002 A 
HETATM   32  C   UNL     1      44.330 -18.392   4.053  1.00  0.00     0.000 A 
HETATM   33  C   UNL     1      43.744 -17.574   5.015  1.00  0.00     0.002 A 
HETATM   34  C   UNL     1      42.607 -16.823   4.701  1.00  0.00     0.030 A 
ENDBRANCH  27  29
ENDBRANCH   3  27
BRANCH   5  35
HETATM   35  N   UNL     1      40.217 -12.767  -0.065  1.00  0.00    -0.187 N 
HETATM   36  H   UNL     1      40.908 -12.062  -0.291  1.00  0.00     0.184 HD
BRANCH  35  37
HETATM   37  C   UNL     1      39.445 -13.232  -1.133  1.00  0.00     0.049 A 
HETATM   38  C   UNL     1      39.792 -14.327  -1.929  1.00  0.00     0.030 A 
HETATM   39  C   UNL     1      38.957 -14.761  -2.965  1.00  0.00     0.002 A 
HETATM   40  C   UNL     1      37.753 -14.109  -3.215  1.00  0.00     0.000 A 
HETATM   41  C   UNL     1      37.383 -13.024  -2.429  1.00  0.00     0.002 A 
HETATM   42  C   UNL     1      38.221 -12.595  -1.397  1.00  0.00     0.030 A 
ENDBRANCH  35  37
ENDBRANCH   5  35
TORSDOF 8
ENDMDL
MODEL 6
REMARK VINA RESULT:      -9.7      3.436      5.983
REMARK  8 active torsions:
REMARK  status: ('A' for Active; 'I' for Inactive)
REMARK    1  A    between atoms: C_3  and  N_4 
REMARK       I    between atoms: N_4  and  C_5 
REMARK    2  A    between atoms: C_5  and  C_6 
REMARK    3  A    between atoms: C_6  and  N_7 
REMARK    4  A    between atoms: N_11  and  C_12 
REMARK    5  A    between atoms: C_14  and  N_15 
REMARK    6  A    between atoms: N_15  and  C_16 
REMARK    7  A    between atoms: C_23  and  N_24 
REMARK    8  A    between atoms: N_24  and  C_25 
ROOT
HETATM    1  C   UNL     1      41.092 -12.511   5.477  1.00  0.00     0.756 A 
HETATM    2  N   UNL     1      40.954 -13.813   5.269  1.00  0.00     0.131 NA
HETATM    3  C   UNL     1      41.986 -14.583   5.592  1.00  0.00     0.758 A 
HETATM    4  N   UNL     1      43.074 -14.122   6.184  1.00  0.00     0.131 NA
HETATM    5  C   UNL     1      43.123 -12.820   6.414  1.00  0.00     0.758 A 
HETATM    6  N   UNL     1      42.151 -11.980   6.072  1.00  0.00     0.131 NA
ENDROOT
BRANCH   1   7
HETATM    7  N   UNL     1      40.058 -11.668   5.052  1.00  0.00    -0.210 N 
HETATM    8  C   UNL     1      40.472 -10.464   4.313  1.00  0.00     0.169 C 
HETATM    9  C   UNL     1      40.871  -9.329   5.285  1.00  0.00     0.256 C 
HETATM   10  N   UNL     1      39.708  -9.073   6.266  1.00  0.00    -0.060 N 
HETATM   11  H   UNL     1      38.889  -8.873   5.681  1.00  0.00     0.280 HD
HETATM   12  C   UNL     1      39.374 -10.355   7.042  1.00  0.00     0.256 C 
HETATM   13  C   UNL     1      38.985 -11.464   6.037  1.00  0.00     0.169 C 
BRANCH  10  14
HETATM   14  C   UNL     1      39.900  -7.851   7.159  1.00  0.00     0.337 C 
BRANCH  14  15
HETATM   15  C   UNL     1      39.580  -8.018   8.653  1.00  0.00     0.248 C 
HETATM   16  N   UNL     1      40.697  -8.371   9.393  1.00  0.00    -0.325 N 
HETATM   17  H   UNL     1      41.528  -8.612   8.862  1.00  0.00     0.169 HD
HETATM   18  O   UNL     1      38.433  -7.886   9.053  1.00  0.00    -0.271 OA
BRANCH  16  19
HETATM   19  C   UNL     1      40.808  -8.689  10.773  1.00  0.00     0.042 A 
HETATM   20  C   UNL     1      41.585  -8.040  11.750  1.00  0.00    -0.035 A 
HETATM   21  C   UNL     1      42.573  -6.936  11.497  1.00  0.00     0.050 C 
HETATM   22  C   UNL     1      41.479  -8.461  13.097  1.00  0.00     0.011 A 
HETATM   23  C   UNL     1      40.678  -9.539  13.468  1.00  0.00     0.024 A 
HETATM   24  C   UNL     1      39.971 -10.218  12.493  1.00  0.00     0.036 A 
HETATM   25  C   UNL     1      40.036  -9.804  11.162  1.00  0.00     0.053 A 
HETATM   26 CL   UNL     1      38.995 -11.569  12.918  1.00  0.00    -0.084 Cl
ENDBRANCH  16  19
ENDBRANCH  14  15
ENDBRANCH  10  14
ENDBRANCH   1   7
BRANCH   3  27
HETATM   27  N   UNL     1      41.837 -15.942   5.324  1.00  0.00    -0.187 N 
HETATM   28  H   UNL     1      40.873 -16.220   5.436  1.00  0.00     0.184 HD
BRANCH  27  29
HETATM   29  C   UNL     1      42.613 -16.831   4.563  1.00  0.00     0.049 A 
HETATM   30  C   UNL     1      42.311 -16.986   3.200  1.00  0.00     0.030 A 
HETATM   31  C   UNL     1      43.025 -17.879   2.396  1.00  0.00     0.002 A 
HETATM   32  C   UNL     1      44.051 -18.642   2.946  1.00  0.00     0.000 A 
HETATM   33  C   UNL     1      44.351 -18.518   4.299  1.00  0.00     0.002 A 
HETATM   34  C   UNL     1      43.628 -17.630   5.101  1.00  0.00     0.030 A 
ENDBRANCH  27  29
ENDBRANCH   3  27
BRANCH   5  35
HETATM   35  N   UNL     1      44.267 -12.403   7.089  1.00  0.00    -0.187 N 
HETATM   36  H   UNL     1      44.983 -13.112   6.987  1.00  0.00     0.184 HD
BRANCH  35  37
HETATM   37  C   UNL     1      44.653 -11.233   7.749  1.00  0.00     0.049 A 
HETATM   38  C   UNL     1      43.970 -10.691   8.841  1.00  0.00     0.030 A 
HETATM   39  C   UNL     1      44.429  -9.531   9.477  1.00  0.00     0.002 A 
HETATM   40  C   UNL     1      45.588  -8.900   9.033  1.00  0.00     0.000 A 
HETATM   41  C   UNL     1      46.288  -9.428   7.954  1.00  0.00     0.002 A 
HETATM   42  C   UNL     1      45.825 -10.585   7.323  1.00  0.00     0.030 A 
ENDBRANCH  35  37
ENDBRANCH   5  35
TORSDOF 8
ENDMDL
MODEL 7
REMARK VINA RESULT:      -9.5      4.036      9.638
REMARK  8 active torsions:
REMARK  status: ('A' for Active; 'I' for Inactive)
REMARK    1  A    between atoms: C_3  and  N_4 
REMARK       I    between atoms: N_4  and  C_5 
REMARK    2  A    between atoms: C_5  and  C_6 
REMARK    3  A    between atoms: C_6  and  N_7 
REMARK    4  A    between atoms: N_11  and  C_12 
REMARK    5  A    between atoms: C_14  and  N_15 
REMARK    6  A    between atoms: N_15  and  C_16 
REMARK    7  A    between atoms: C_23  and  N_24 
REMARK    8  A    between atoms: N_24  and  C_25 
ROOT
HETATM    1  C   UNL     1      41.277 -14.551   4.331  1.00  0.00     0.756 A 
HETATM    2  N   UNL     1      41.569 -13.681   5.288  1.00  0.00     0.131 NA
HETATM    3  C   UNL     1      42.602 -13.975   6.069  1.00  0.00     0.758 A 
HETATM    4  N   UNL     1      43.383 -15.024   5.871  1.00  0.00     0.131 NA
HETATM    5  C   UNL     1      43.068 -15.821   4.863  1.00  0.00     0.758 A 
HETATM    6  N   UNL     1      42.018 -15.618   4.071  1.00  0.00     0.131 NA
ENDROOT
BRANCH   1   7
HETATM    7  N   UNL     1      40.133 -14.314   3.560  1.00  0.00    -0.210 N 
HETATM    8  C   UNL     1      39.931 -15.215   2.413  1.00  0.00     0.169 C 
HETATM    9  C   UNL     1      40.743 -14.737   1.187  1.00  0.00     0.256 C 
HETATM   10  N   UNL     1      40.378 -13.269   0.881  1.00  0.00    -0.060 N 
HETATM   11  H   UNL     1      39.360 -13.255   0.757  1.00  0.00     0.280 HD
HETATM   12  C   UNL     1      40.672 -12.383   2.099  1.00  0.00     0.256 C 
HETATM   13  C   UNL     1      39.847 -12.895   3.304  1.00  0.00     0.169 C 
BRANCH  10  14
HETATM   14  C   UNL     1      40.971 -12.736  -0.420  1.00  0.00     0.337 C 
BRANCH  14  15
HETATM   15  C   UNL     1      40.390 -11.422  -0.967  1.00  0.00     0.248 C 
HETATM   16  N   UNL     1      41.159 -10.894  -1.991  1.00  0.00    -0.325 N 
HETATM   17  H   UNL     1      42.056 -11.340  -2.153  1.00  0.00     0.169 HD
HETATM   18  O   UNL     1      39.386 -10.939  -0.463  1.00  0.00    -0.271 OA
BRANCH  16  19
HETATM   19  C   UNL     1      41.009  -9.673  -2.701  1.00  0.00     0.042 A 
HETATM   20  C   UNL     1      41.711  -8.469  -2.507  1.00  0.00    -0.035 A 
HETATM   21  C   UNL     1      42.689  -8.189  -1.401  1.00  0.00     0.050 C 
HETATM   22  C   UNL     1      41.473  -7.390  -3.392  1.00  0.00     0.011 A 
HETATM   23  C   UNL     1      40.520  -7.469  -4.405  1.00  0.00     0.024 A 
HETATM   24  C   UNL     1      39.784  -8.630  -4.546  1.00  0.00     0.036 A 
HETATM   25  C   UNL     1      40.020  -9.718  -3.705  1.00  0.00     0.053 A 
HETATM   26 CL   UNL     1      38.581  -8.745  -5.771  1.00  0.00    -0.084 Cl
ENDBRANCH  16  19
ENDBRANCH  14  15
ENDBRANCH  10  14
ENDBRANCH   1   7
BRANCH   3  27
HETATM   27  N   UNL     1      42.864 -13.071   7.096  1.00  0.00    -0.187 N 
HETATM   28  H   UNL     1      42.410 -13.365   7.949  1.00  0.00     0.184 HD
BRANCH  27  29
HETATM   29  C   UNL     1      43.905 -12.148   7.281  1.00  0.00     0.049 A 
HETATM   30  C   UNL     1      44.897 -12.049   6.292  1.00  0.00     0.030 A 
HETATM   31  C   UNL     1      45.977 -11.174   6.432  1.00  0.00     0.002 A 
HETATM   32  C   UNL     1      46.088 -10.384   7.573  1.00  0.00     0.000 A 
HETATM   33  C   UNL     1      45.127 -10.482   8.574  1.00  0.00     0.002 A 
HETATM   34  C   UNL     1      44.053 -11.367   8.433  1.00  0.00     0.030 A 
ENDBRANCH  27  29
ENDBRANCH   3  27
BRANCH   5  35
HETATM   35  N   UNL     1      43.957 -16.874   4.669  1.00  0.00    -0.187 N 
HETATM   36  H   UNL     1      44.847 -16.630   5.086  1.00  0.00     0.184 HD
BRANCH  35  37
HETATM   37  C   UNL     1      43.858 -18.166   4.148  1.00  0.00     0.049 A 
HETATM   38  C   UNL     1      43.605 -18.449   2.803  1.00  0.00     0.030 A 
HETATM   39  C   UNL     1      43.550 -19.769   2.340  1.00  0.00     0.002 A 
HETATM   40  C   UNL     1      43.757 -20.830   3.217  1.00  0.00     0.000 A 
HETATM   41  C   UNL     1      44.019 -20.571   4.558  1.00  0.00     0.002 A 
HETATM   42  C   UNL     1      44.072 -19.252   5.015  1.00  0.00     0.030 A 
ENDBRANCH  35  37
ENDBRANCH   5  35
TORSDOF 8
ENDMDL
MODEL 8
REMARK VINA RESULT:      -9.4      4.026      9.564
REMARK  8 active torsions:
REMARK  status: ('A' for Active; 'I' for Inactive)
REMARK    1  A    between atoms: C_3  and  N_4 
REMARK       I    between atoms: N_4  and  C_5 
REMARK    2  A    between atoms: C_5  and  C_6 
REMARK    3  A    between atoms: C_6  and  N_7 
REMARK    4  A    between atoms: N_11  and  C_12 
REMARK    5  A    between atoms: C_14  and  N_15 
REMARK    6  A    between atoms: N_15  and  C_16 
REMARK    7  A    between atoms: C_23  and  N_24 
REMARK    8  A    between atoms: N_24  and  C_25 
ROOT
HETATM    1  C   UNL     1      41.899 -12.798   4.626  1.00  0.00     0.756 A 
HETATM    2  N   UNL     1      41.719 -14.111   4.656  1.00  0.00     0.131 NA
HETATM    3  C   UNL     1      42.587 -14.819   5.370  1.00  0.00     0.758 A 
HETATM    4  N   UNL     1      43.537 -14.267   6.105  1.00  0.00     0.131 NA
HETATM    5  C   UNL     1      43.626 -12.947   6.074  1.00  0.00     0.758 A 
HETATM    6  N   UNL     1      42.825 -12.177   5.342  1.00  0.00     0.131 NA
ENDROOT
BRANCH   1   7
HETATM    7  N   UNL     1      41.059 -12.042   3.800  1.00  0.00    -0.210 N 
HETATM    8  C   UNL     1      39.680 -12.539   3.656  1.00  0.00     0.169 C 
HETATM    9  C   UNL     1      39.600 -13.639   2.572  1.00  0.00     0.256 C 
HETATM   10  N   UNL     1      40.193 -13.094   1.256  1.00  0.00    -0.060 N 
HETATM   11  H   UNL     1      39.665 -12.240   1.044  1.00  0.00     0.280 HD
HETATM   12  C   UNL     1      41.648 -12.653   1.469  1.00  0.00     0.256 C 
HETATM   13  C   UNL     1      41.686 -11.558   2.562  1.00  0.00     0.169 C 
BRANCH  10  14
HETATM   14  C   UNL     1      40.005 -14.017   0.056  1.00  0.00     0.337 C 
BRANCH  14  15
HETATM   15  C   UNL     1      39.629 -13.359  -1.282  1.00  0.00     0.248 C 
HETATM   16  N   UNL     1      39.109 -12.087  -1.113  1.00  0.00    -0.325 N 
HETATM   17  H   UNL     1      38.908 -11.807  -0.158  1.00  0.00     0.169 HD
HETATM   18  O   UNL     1      39.758 -13.978  -2.327  1.00  0.00    -0.271 OA
BRANCH  16  19
HETATM   19  C   UNL     1      38.578 -11.187  -2.077  1.00  0.00     0.042 A 
HETATM   20  C   UNL     1      39.286 -10.378  -2.985  1.00  0.00    -0.035 A 
HETATM   21  C   UNL     1      40.778 -10.202  -3.030  1.00  0.00     0.050 C 
HETATM   22  C   UNL     1      38.558  -9.619  -3.932  1.00  0.00     0.011 A 
HETATM   23  C   UNL     1      37.165  -9.603  -3.946  1.00  0.00     0.024 A 
HETATM   24  C   UNL     1      36.475 -10.346  -3.005  1.00  0.00     0.036 A 
HETATM   25  C   UNL     1      37.169 -11.125  -2.080  1.00  0.00     0.053 A 
HETATM   26 CL   UNL     1      34.756 -10.323  -2.982  1.00  0.00    -0.084 Cl
ENDBRANCH  16  19
ENDBRANCH  14  15
ENDBRANCH  10  14
ENDBRANCH   1   7
BRANCH   3  27
HETATM   27  N   UNL     1      42.406 -16.199   5.351  1.00  0.00    -0.187 N 
HETATM   28  H   UNL     1      41.515 -16.444   5.758  1.00  0.00     0.184 HD
BRANCH  27  29
HETATM   29  C   UNL     1      42.972 -17.202   4.547  1.00  0.00     0.049 A 
HETATM   30  C   UNL     1      42.604 -17.262   3.193  1.00  0.00     0.030 A 
HETATM   31  C   UNL     1      43.106 -18.255   2.348  1.00  0.00     0.002 A 
HETATM   32  C   UNL     1      43.983 -19.214   2.847  1.00  0.00     0.000 A 
HETATM   33  C   UNL     1      44.344 -19.184   4.191  1.00  0.00     0.002 A 
HETATM   34  C   UNL     1      43.831 -18.194   5.035  1.00  0.00     0.030 A 
ENDBRANCH  27  29
ENDBRANCH   3  27
BRANCH   5  35
HETATM   35  N   UNL     1      44.607 -12.421   6.910  1.00  0.00    -0.187 N 
HETATM   36  H   UNL     1      45.358 -13.095   6.995  1.00  0.00     0.184 HD
BRANCH  35  37
HETATM   37  C   UNL     1      44.815 -11.189   7.535  1.00  0.00     0.049 A 
HETATM   38  C   UNL     1      43.878 -10.563   8.361  1.00  0.00     0.030 A 
HETATM   39  C   UNL     1      44.163  -9.342   8.982  1.00  0.00     0.002 A 
HETATM   40  C   UNL     1      45.399  -8.731   8.793  1.00  0.00     0.000 A 
HETATM   41  C   UNL     1      46.350  -9.340   7.983  1.00  0.00     0.002 A 
HETATM   42  C   UNL     1      46.060 -10.559   7.365  1.00  0.00     0.030 A 
ENDBRANCH  35  37
ENDBRANCH   5  35
TORSDOF 8
ENDMDL
MODEL 9
REMARK VINA RESULT:      -9.3      3.602      9.241
REMARK  8 active torsions:
REMARK  status: ('A' for Active; 'I' for Inactive)
REMARK    1  A    between atoms: C_3  and  N_4 
REMARK       I    between atoms: N_4  and  C_5 
REMARK    2  A    between atoms: C_5  and  C_6 
REMARK    3  A    between atoms: C_6  and  N_7 
REMARK    4  A    between atoms: N_11  and  C_12 
REMARK    5  A    between atoms: C_14  and  N_15 
REMARK    6  A    between atoms: N_15  and  C_16 
REMARK    7  A    between atoms: C_23  and  N_24 
REMARK    8  A    between atoms: N_24  and  C_25 
ROOT
HETATM    1  C   UNL     1      41.066 -11.604   5.688  1.00  0.00     0.756 A 
HETATM    2  N   UNL     1      42.253 -11.461   6.260  1.00  0.00     0.131 NA
HETATM    3  C   UNL     1      42.970 -12.565   6.438  1.00  0.00     0.758 A 
HETATM    4  N   UNL     1      42.592 -13.751   5.992  1.00  0.00     0.131 NA
HETATM    5  C   UNL     1      41.420 -13.814   5.380  1.00  0.00     0.758 A 
HETATM    6  N   UNL     1      40.626 -12.760   5.211  1.00  0.00     0.131 NA
ENDROOT
BRANCH   1   7
HETATM    7  N   UNL     1      40.251 -10.471   5.581  1.00  0.00    -0.210 N 
HETATM    8  C   UNL     1      39.040 -10.624   4.759  1.00  0.00     0.169 C 
HETATM    9  C   UNL     1      39.360 -10.420   3.261  1.00  0.00     0.256 C 
HETATM   10  N   UNL     1      40.055  -9.056   3.074  1.00  0.00    -0.060 N 
HETATM   11  H   UNL     1      39.417  -8.360   3.478  1.00  0.00     0.280 HD
HETATM   12  C   UNL     1      41.339  -8.993   3.912  1.00  0.00     0.256 C 
HETATM   13  C   UNL     1      40.978  -9.206   5.401  1.00  0.00     0.169 C 
BRANCH  10  14
HETATM   14  C   UNL     1      40.256  -8.650   1.617  1.00  0.00     0.337 C 
BRANCH  14  15
HETATM   15  C   UNL     1      40.857  -9.703   0.673  1.00  0.00     0.248 C 
HETATM   16  N   UNL     1      39.886 -10.368  -0.058  1.00  0.00    -0.325 N 
HETATM   17  H   UNL     1      38.924 -10.192   0.211  1.00  0.00     0.169 HD
HETATM   18  O   UNL     1      42.062  -9.905   0.668  1.00  0.00    -0.271 OA
BRANCH  16  19
HETATM   19  C   UNL     1      40.019 -11.449  -0.971  1.00  0.00     0.042 A 
HETATM   20  C   UNL     1      40.364 -11.392  -2.333  1.00  0.00    -0.035 A 
HETATM   21  C   UNL     1      40.541 -10.139  -3.145  1.00  0.00     0.050 C 
HETATM   22  C   UNL     1      40.535 -12.604  -3.045  1.00  0.00     0.011 A 
HETATM   23  C   UNL     1      40.307 -13.842  -2.450  1.00  0.00     0.024 A 
HETATM   24  C   UNL     1      39.899 -13.889  -1.130  1.00  0.00     0.036 A 
HETATM   25  C   UNL     1      39.752 -12.711  -0.399  1.00  0.00     0.053 A 
HETATM   26 CL   UNL     1      39.583 -15.404  -0.378  1.00  0.00    -0.084 Cl
ENDBRANCH  16  19
ENDBRANCH  14  15
ENDBRANCH  10  14
ENDBRANCH   1   7
BRANCH   3  27
HETATM   27  N   UNL     1      44.194 -12.398   7.081  1.00  0.00    -0.187 N 
HETATM   28  H   UNL     1      44.870 -13.059   6.729  1.00  0.00     0.184 HD
BRANCH  27  29
HETATM   29  C   UNL     1      44.752 -11.297   7.748  1.00  0.00     0.049 A 
HETATM   30  C   UNL     1      44.174 -10.883   8.960  1.00  0.00     0.030 A 
HETATM   31  C   UNL     1      44.663  -9.774   9.656  1.00  0.00     0.002 A 
HETATM   32  C   UNL     1      45.738  -9.052   9.146  1.00  0.00     0.000 A 
HETATM   33  C   UNL     1      46.311  -9.433   7.937  1.00  0.00     0.002 A 
HETATM   34  C   UNL     1      45.812 -10.538   7.239  1.00  0.00     0.030 A 
ENDBRANCH  27  29
ENDBRANCH   3  27
BRANCH   5  35
HETATM   35  N   UNL     1      41.103 -15.075   4.884  1.00  0.00    -0.187 N 
HETATM   36  H   UNL     1      40.113 -15.240   5.024  1.00  0.00     0.184 HD
BRANCH  35  37
HETATM   37  C   UNL     1      41.794 -16.060   4.175  1.00  0.00     0.049 A 
HETATM   38  C   UNL     1      41.536 -16.391   2.842  1.00  0.00     0.030 A 
HETATM   39  C   UNL     1      42.289 -17.368   2.181  1.00  0.00     0.002 A 
HETATM   40  C   UNL     1      43.322 -18.025   2.843  1.00  0.00     0.000 A 
HETATM   41  C   UNL     1      43.603 -17.706   4.167  1.00  0.00     0.002 A 
HETATM   42  C   UNL     1      42.847 -16.729   4.822  1.00  0.00     0.030 A 
ENDBRANCH  35  37
ENDBRANCH   5  35
TORSDOF 8
ENDMDL
MODEL 10
REMARK VINA RESULT:      -9.2      4.133      9.703
REMARK  8 active torsions:
REMARK  status: ('A' for Active; 'I' for Inactive)
REMARK    1  A    between atoms: C_3  and  N_4 
REMARK       I    between atoms: N_4  and  C_5 
REMARK    2  A    between atoms: C_5  and  C_6 
REMARK    3  A    between atoms: C_6  and  N_7 
REMARK    4  A    between atoms: N_11  and  C_12 
REMARK    5  A    between atoms: C_14  and  N_15 
REMARK    6  A    between atoms: N_15  and  C_16 
REMARK    7  A    between atoms: C_23  and  N_24 
REMARK    8  A    between atoms: N_24  and  C_25 
ROOT
HETATM    1  C   UNL     1      41.078 -14.694   3.983  1.00  0.00     0.756 A 
HETATM    2  N   UNL     1      41.320 -13.678   4.799  1.00  0.00     0.131 NA
HETATM    3  C   UNL     1      42.353 -13.806   5.624  1.00  0.00     0.758 A 
HETATM    4  N   UNL     1      43.178 -14.838   5.594  1.00  0.00     0.131 NA
HETATM    5  C   UNL     1      42.911 -15.791   4.716  1.00  0.00     0.758 A 
HETATM    6  N   UNL     1      41.866 -15.756   3.894  1.00  0.00     0.131 NA
ENDROOT
BRANCH   1   7
HETATM    7  N   UNL     1      39.937 -14.626   3.175  1.00  0.00    -0.210 N 
HETATM    8  C   UNL     1      39.927 -15.510   1.998  1.00  0.00     0.169 C 
HETATM    9  C   UNL     1      40.687 -14.866   0.816  1.00  0.00     0.256 C 
HETATM   10  N   UNL     1      40.094 -13.470   0.535  1.00  0.00    -0.060 N 
HETATM   11  H   UNL     1      39.092 -13.620   0.373  1.00  0.00     0.280 HD
HETATM   12  C   UNL     1      40.195 -12.586   1.786  1.00  0.00     0.256 C 
HETATM   13  C   UNL     1      39.427 -13.266   2.945  1.00  0.00     0.169 C 
BRANCH  10  14
HETATM   14  C   UNL     1      40.632 -12.804  -0.728  1.00  0.00     0.337 C 
BRANCH  14  15
HETATM   15  C   UNL     1      40.044 -11.435  -1.103  1.00  0.00     0.248 C 
HETATM   16  N   UNL     1      38.708 -11.517  -1.459  1.00  0.00    -0.325 N 
HETATM   17  H   UNL     1      38.330 -12.452  -1.567  1.00  0.00     0.169 HD
HETATM   18  O   UNL     1      40.757 -10.443  -1.111  1.00  0.00    -0.271 OA
BRANCH  16  19
HETATM   19  C   UNL     1      37.832 -10.505  -1.936  1.00  0.00     0.042 A 
HETATM   20  C   UNL     1      36.839  -9.812  -1.219  1.00  0.00    -0.035 A 
HETATM   21  C   UNL     1      36.411 -10.100   0.193  1.00  0.00     0.050 C 
HETATM   22  C   UNL     1      36.135  -8.767  -1.864  1.00  0.00     0.011 A 
HETATM   23  C   UNL     1      36.354  -8.453  -3.204  1.00  0.00     0.024 A 
HETATM   24  C   UNL     1      37.281  -9.185  -3.923  1.00  0.00     0.036 A 
HETATM   25  C   UNL     1      38.009 -10.200  -3.302  1.00  0.00     0.053 A 
HETATM   26 CL   UNL     1      37.552  -8.837  -5.586  1.00  0.00    -0.084 Cl
ENDBRANCH  16  19
ENDBRANCH  14  15
ENDBRANCH  10  14
ENDBRANCH   1   7
BRANCH   3  27
HETATM   27  N   UNL     1      42.562 -12.746   6.504  1.00  0.00    -0.187 N 
HETATM   28  H   UNL     1      41.848 -12.734   7.217  1.00  0.00     0.184 HD
BRANCH  27  29
HETATM   29  C   UNL     1      43.719 -12.020   6.828  1.00  0.00     0.049 A 
HETATM   30  C   UNL     1      44.743 -11.927   5.871  1.00  0.00     0.030 A 
HETATM   31  C   UNL     1      45.932 -11.247   6.144  1.00  0.00     0.002 A 
HETATM   32  C   UNL     1      46.123 -10.651   7.388  1.00  0.00     0.000 A 
HETATM   33  C   UNL     1      45.129 -10.750   8.357  1.00  0.00     0.002 A 
HETATM   34  C   UNL     1      43.945 -11.441   8.082  1.00  0.00     0.030 A 
ENDBRANCH  27  29
ENDBRANCH   3  27
BRANCH   5  35
HETATM   35  N   UNL     1      43.845 -16.823   4.693  1.00  0.00    -0.187 N 
HETATM   36  H   UNL     1      44.678 -16.520   5.181  1.00  0.00     0.184 HD
BRANCH  35  37
HETATM   37  C   UNL     1      43.838 -18.151   4.259  1.00  0.00     0.049 A 
HETATM   38  C   UNL     1      43.693 -18.537   2.924  1.00  0.00     0.030 A 
HETATM   39  C   UNL     1      43.726 -19.886   2.553  1.00  0.00     0.002 A 
HETATM   40  C   UNL     1      43.916 -20.873   3.515  1.00  0.00     0.000 A 
HETATM   41  C   UNL     1      44.072 -20.513   4.849  1.00  0.00     0.002 A 
HETATM   42  C   UNL     1      44.037 -19.164   5.213  1.00  0.00     0.030 A 
ENDBRANCH  35  37
ENDBRANCH   5  35
TORSDOF 8
ENDMDL
