MODEL 1
REMARK VINA RESULT:      -9.1      0.000      0.000
REMARK  5 active torsions:
REMARK  status: ('A' for Active; 'I' for Inactive)
REMARK    1  A    between atoms: C_12  and  C_13 
REMARK    2  A    between atoms: C_13  and  N_14 
REMARK    3  A    between atoms: N_14  and  C_15 
REMARK    4  A    between atoms: C_17  and  O_18 
REMARK    5  A    between atoms: C_19  and  O_20 
ROOT
HETATM    1  C   UNL     1      43.719 -20.458   1.896  1.00  0.00     0.048 C 
HETATM    2  C   UNL     1      43.618 -19.163   2.646  1.00  0.00    -0.059 A 
HETATM    3  C   UNL     1      43.798 -19.119   4.030  1.00  0.00     0.037 A 
HETATM    4  C   UNL     1      43.675 -17.906   4.709  1.00  0.00     0.046 A 
HETATM    5  C   UNL     1      43.363 -16.716   4.030  1.00  0.00    -0.003 A 
HETATM    6  C   UNL     1      43.184 -16.751   2.635  1.00  0.00    -0.049 A 
HETATM    7  C   UNL     1      42.852 -15.519   1.837  1.00  0.00     0.049 C 
HETATM    8  C   UNL     1      43.308 -17.980   1.961  1.00  0.00     0.014 A 
HETATM    9  N   UNL     1      43.868 -17.881   6.096  1.00  0.00    -0.322 N 
HETATM   10  C   UNL     1      43.779 -16.752   6.861  1.00  0.00     0.253 A 
HETATM   11  O   UNL     1      43.986 -16.787   8.070  1.00  0.00    -0.268 OA
HETATM   12  C   UNL     1      43.423 -15.488   6.160  1.00  0.00     0.024 A 
HETATM   13  C   UNL     1      43.227 -15.491   4.829  1.00  0.00     0.028 A 
HETATM   14  H   UNL     1      44.105 -18.730   6.591  1.00  0.00     0.169 HD
ENDROOT
BRANCH  12  15
HETATM   15  C   UNL     1      43.235 -14.270   7.017  1.00  0.00     0.136 C 
BRANCH  15  16
HETATM   16  N   UNL     1      43.492 -13.081   6.207  1.00  0.00    -0.288 NA
HETATM   17  H   UNL     1      43.999 -13.319   5.356  1.00  0.00     0.128 HD
BRANCH  16  18
HETATM   18  C   UNL     1      44.058 -11.947   6.812  1.00  0.00     0.011 A 
HETATM   19  C   UNL     1      45.456 -11.803   6.762  1.00  0.00     0.062 A 
HETATM   20  C   UNL     1      46.069 -10.667   7.284  1.00  0.00     0.100 A 
HETATM   21  C   UNL     1      45.303  -9.649   7.839  1.00  0.00     0.098 A 
HETATM   22  C   UNL     1      43.923  -9.745   7.865  1.00  0.00     0.041 A 
HETATM   23  C   UNL     1      43.304 -10.884   7.336  1.00  0.00     0.026 A 
BRANCH  20  24
HETATM   24  O   UNL     1      47.427 -10.502   7.266  1.00  0.00    -0.358 OA
HETATM   25  H   UNL     1      47.627  -9.734   6.703  1.00  0.00     0.218 HD
ENDBRANCH  20  24
BRANCH  21  26
HETATM   26  O   UNL     1      45.907  -8.538   8.350  1.00  0.00    -0.358 OA
HETATM   27  H   UNL     1      46.110  -7.990   7.566  1.00  0.00     0.218 HD
ENDBRANCH  21  26
ENDBRANCH  16  18
ENDBRANCH  15  16
ENDBRANCH  12  15
TORSDOF 5
ENDMDL
MODEL 2
REMARK VINA RESULT:      -8.6      5.793      8.338
REMARK  5 active torsions:
REMARK  status: ('A' for Active; 'I' for Inactive)
REMARK    1  A    between atoms: C_12  and  C_13 
REMARK    2  A    between atoms: C_13  and  N_14 
REMARK    3  A    between atoms: N_14  and  C_15 
REMARK    4  A    between atoms: C_17  and  O_18 
REMARK    5  A    between atoms: C_19  and  O_20 
ROOT
HETATM    1  C   UNL     1      44.254 -16.793   7.484  1.00  0.00     0.048 C 
HETATM    2  C   UNL     1      43.618 -16.755   6.126  1.00  0.00    -0.059 A 
HETATM    3  C   UNL     1      42.637 -15.809   5.820  1.00  0.00     0.037 A 
HETATM    4  C   UNL     1      42.042 -15.808   4.558  1.00  0.00     0.046 A 
HETATM    5  C   UNL     1      42.402 -16.749   3.579  1.00  0.00    -0.003 A 
HETATM    6  C   UNL     1      43.392 -17.704   3.878  1.00  0.00    -0.049 A 
HETATM    7  C   UNL     1      43.834 -18.741   2.882  1.00  0.00     0.049 C 
HETATM    8  C   UNL     1      43.984 -17.696   5.155  1.00  0.00     0.014 A 
HETATM    9  N   UNL     1      41.066 -14.846   4.267  1.00  0.00    -0.322 N 
HETATM   10  C   UNL     1      40.423 -14.748   3.064  1.00  0.00     0.253 A 
HETATM   11  O   UNL     1      39.597 -13.865   2.858  1.00  0.00    -0.268 OA
HETATM   12  C   UNL     1      40.774 -15.755   2.026  1.00  0.00     0.024 A 
HETATM   13  C   UNL     1      41.705 -16.691   2.287  1.00  0.00     0.028 A 
HETATM   14  H   UNL     1      40.810 -14.157   4.960  1.00  0.00     0.169 HD
ENDROOT
BRANCH  12  15
HETATM   15  C   UNL     1      39.999 -15.699   0.741  1.00  0.00     0.136 C 
BRANCH  15  16
HETATM   16  N   UNL     1      40.479 -14.567  -0.048  1.00  0.00    -0.288 NA
HETATM   17  H   UNL     1      40.981 -13.899   0.535  1.00  0.00     0.128 HD
BRANCH  16  18
HETATM   18  C   UNL     1      39.587 -13.899  -0.902  1.00  0.00     0.011 A 
HETATM   19  C   UNL     1      39.277 -14.502  -2.133  1.00  0.00     0.062 A 
HETATM   20  C   UNL     1      38.347 -13.921  -2.992  1.00  0.00     0.100 A 
HETATM   21  C   UNL     1      37.695 -12.749  -2.630  1.00  0.00     0.098 A 
HETATM   22  C   UNL     1      37.949 -12.155  -1.407  1.00  0.00     0.041 A 
HETATM   23  C   UNL     1      38.880 -12.740  -0.539  1.00  0.00     0.026 A 
BRANCH  20  24
HETATM   24  O   UNL     1      38.035 -14.474  -4.204  1.00  0.00    -0.358 OA
HETATM   25  H   UNL     1      38.820 -14.402  -4.776  1.00  0.00     0.218 HD
ENDBRANCH  20  24
BRANCH  21  26
HETATM   26  O   UNL     1      36.785 -12.183  -3.474  1.00  0.00    -0.358 OA
HETATM   27  H   UNL     1      36.481 -12.923  -4.035  1.00  0.00     0.218 HD
ENDBRANCH  21  26
ENDBRANCH  16  18
ENDBRANCH  15  16
ENDBRANCH  12  15
TORSDOF 5
ENDMDL
MODEL 3
REMARK VINA RESULT:      -8.6      1.952      2.685
REMARK  5 active torsions:
REMARK  status: ('A' for Active; 'I' for Inactive)
REMARK    1  A    between atoms: C_12  and  C_13 
REMARK    2  A    between atoms: C_13  and  N_14 
REMARK    3  A    between atoms: N_14  and  C_15 
REMARK    4  A    between atoms: C_17  and  O_18 
REMARK    5  A    between atoms: C_19  and  O_20 
ROOT
HETATM    1  C   UNL     1      43.802 -19.963   2.184  1.00  0.00     0.048 C 
HETATM    2  C   UNL     1      43.578 -18.696   2.955  1.00  0.00    -0.059 A 
HETATM    3  C   UNL     1      43.221 -17.513   2.303  1.00  0.00     0.037 A 
HETATM    4  C   UNL     1      43.042 -16.341   3.038  1.00  0.00     0.046 A 
HETATM    5  C   UNL     1      43.221 -16.317   4.432  1.00  0.00    -0.003 A 
HETATM    6  C   UNL     1      43.577 -17.505   5.097  1.00  0.00    -0.049 A 
HETATM    7  C   UNL     1      43.783 -17.561   6.586  1.00  0.00     0.049 C 
HETATM    8  C   UNL     1      43.757 -18.681   4.344  1.00  0.00     0.014 A 
HETATM    9  N   UNL     1      42.676 -15.167   2.368  1.00  0.00    -0.322 N 
HETATM   10  C   UNL     1      42.467 -13.966   2.986  1.00  0.00     0.253 A 
HETATM   11  O   UNL     1      42.119 -12.977   2.349  1.00  0.00    -0.268 OA
HETATM   12  C   UNL     1      42.679 -13.918   4.459  1.00  0.00     0.024 A 
HETATM   13  C   UNL     1      43.037 -15.033   5.121  1.00  0.00     0.028 A 
HETATM   14  H   UNL     1      42.532 -15.177   1.367  1.00  0.00     0.169 HD
ENDROOT
BRANCH  12  15
HETATM   15  C   UNL     1      42.539 -12.577   5.119  1.00  0.00     0.136 C 
BRANCH  15  16
HETATM   16  N   UNL     1      42.996 -12.684   6.503  1.00  0.00    -0.288 NA
HETATM   17  H   UNL     1      42.224 -12.911   7.128  1.00  0.00     0.128 HD
BRANCH  16  18
HETATM   18  C   UNL     1      43.782 -11.656   7.048  1.00  0.00     0.011 A 
HETATM   19  C   UNL     1      45.174 -11.723   6.861  1.00  0.00     0.062 A 
HETATM   20  C   UNL     1      45.998 -10.698   7.319  1.00  0.00     0.100 A 
HETATM   21  C   UNL     1      45.452  -9.585   7.945  1.00  0.00     0.098 A 
HETATM   22  C   UNL     1      44.083  -9.473   8.107  1.00  0.00     0.041 A 
HETATM   23  C   UNL     1      43.251 -10.500   7.642  1.00  0.00     0.026 A 
BRANCH  20  24
HETATM   24  O   UNL     1      47.358 -10.739   7.168  1.00  0.00    -0.358 OA
HETATM   25  H   UNL     1      47.720 -11.303   7.874  1.00  0.00     0.218 HD
ENDBRANCH  20  24
BRANCH  21  26
HETATM   26  O   UNL     1      46.264  -8.584   8.394  1.00  0.00    -0.358 OA
HETATM   27  H   UNL     1      45.647  -7.889   8.697  1.00  0.00     0.218 HD
ENDBRANCH  21  26
ENDBRANCH  16  18
ENDBRANCH  15  16
ENDBRANCH  12  15
TORSDOF 5
ENDMDL
MODEL 4
REMARK VINA RESULT:      -8.2      4.902      8.454
REMARK  5 active torsions:
REMARK  status: ('A' for Active; 'I' for Inactive)
REMARK    1  A    between atoms: C_12  and  C_13 
REMARK    2  A    between atoms: C_13  and  N_14 
REMARK    3  A    between atoms: N_14  and  C_15 
REMARK    4  A    between atoms: C_17  and  O_18 
REMARK    5  A    between atoms: C_19  and  O_20 
ROOT
HETATM    1  C   UNL     1      39.868 -10.067  -2.774  1.00  0.00     0.048 C 
HETATM    2  C   UNL     1      39.947 -11.349  -1.999  1.00  0.00    -0.059 A 
HETATM    3  C   UNL     1      40.592 -11.402  -0.762  1.00  0.00     0.037 A 
HETATM    4  C   UNL     1      40.676 -12.611  -0.071  1.00  0.00     0.046 A 
HETATM    5  C   UNL     1      40.127 -13.793  -0.597  1.00  0.00    -0.003 A 
HETATM    6  C   UNL     1      39.471 -13.749  -1.842  1.00  0.00    -0.049 A 
HETATM    7  C   UNL     1      38.856 -14.969  -2.469  1.00  0.00     0.049 C 
HETATM    8  C   UNL     1      39.396 -12.523  -2.530  1.00  0.00     0.014 A 
HETATM    9  N   UNL     1      41.319 -12.641   1.172  1.00  0.00    -0.322 N 
HETATM   10  C   UNL     1      41.453 -13.766   1.938  1.00  0.00     0.253 A 
HETATM   11  O   UNL     1      42.003 -13.725   3.034  1.00  0.00    -0.268 OA
HETATM   12  C   UNL     1      40.901 -15.031   1.382  1.00  0.00     0.024 A 
HETATM   13  C   UNL     1      40.284 -15.026   0.186  1.00  0.00     0.028 A 
HETATM   14  H   UNL     1      41.706 -11.794   1.565  1.00  0.00     0.169 HD
ENDROOT
BRANCH  12  15
HETATM   15  C   UNL     1      41.132 -16.280   2.183  1.00  0.00     0.136 C 
BRANCH  15  16
HETATM   16  N   UNL     1      42.551 -16.623   2.120  1.00  0.00    -0.288 NA
HETATM   17  H   UNL     1      42.861 -16.726   1.154  1.00  0.00     0.128 HD
BRANCH  16  18
HETATM   18  C   UNL     1      43.037 -17.681   2.905  1.00  0.00     0.011 A 
HETATM   19  C   UNL     1      43.222 -18.929   2.285  1.00  0.00     0.062 A 
HETATM   20  C   UNL     1      43.765 -19.997   2.994  1.00  0.00     0.100 A 
HETATM   21  C   UNL     1      44.154 -19.835   4.318  1.00  0.00     0.098 A 
HETATM   22  C   UNL     1      44.023 -18.607   4.941  1.00  0.00     0.041 A 
HETATM   23  C   UNL     1      43.482 -17.529   4.229  1.00  0.00     0.026 A 
BRANCH  20  24
HETATM   24  O   UNL     1      43.942 -21.230   2.426  1.00  0.00    -0.358 OA
HETATM   25  H   UNL     1      44.712 -21.646   2.852  1.00  0.00     0.218 HD
ENDBRANCH  20  24
BRANCH  21  26
HETATM   26  O   UNL     1      44.686 -20.884   5.010  1.00  0.00    -0.358 OA
HETATM   27  H   UNL     1      45.353 -20.476   5.596  1.00  0.00     0.218 HD
ENDBRANCH  21  26
ENDBRANCH  16  18
ENDBRANCH  15  16
ENDBRANCH  12  15
TORSDOF 5
ENDMDL
MODEL 5
REMARK VINA RESULT:      -7.9      3.981      8.324
REMARK  5 active torsions:
REMARK  status: ('A' for Active; 'I' for Inactive)
REMARK    1  A    between atoms: C_12  and  C_13 
REMARK    2  A    between atoms: C_13  and  N_14 
REMARK    3  A    between atoms: N_14  and  C_15 
REMARK    4  A    between atoms: C_17  and  O_18 
REMARK    5  A    between atoms: C_19  and  O_20 
ROOT
HETATM    1  C   UNL     1      39.937  -9.780   7.274  1.00  0.00     0.048 C 
HETATM    2  C   UNL     1      40.609 -10.812   6.418  1.00  0.00    -0.059 A 
HETATM    3  C   UNL     1      39.862 -11.668   5.606  1.00  0.00     0.037 A 
HETATM    4  C   UNL     1      40.508 -12.638   4.837  1.00  0.00     0.046 A 
HETATM    5  C   UNL     1      41.905 -12.781   4.864  1.00  0.00    -0.003 A 
HETATM    6  C   UNL     1      42.666 -11.919   5.677  1.00  0.00    -0.049 A 
HETATM    7  C   UNL     1      44.166 -12.008   5.757  1.00  0.00     0.049 C 
HETATM    8  C   UNL     1      42.004 -10.948   6.450  1.00  0.00     0.014 A 
HETATM    9  N   UNL     1      39.742 -13.481   4.023  1.00  0.00    -0.322 N 
HETATM   10  C   UNL     1      40.268 -14.459   3.225  1.00  0.00     0.253 A 
HETATM   11  O   UNL     1      39.548 -15.149   2.511  1.00  0.00    -0.268 OA
HETATM   12  C   UNL     1      41.744 -14.641   3.263  1.00  0.00     0.024 A 
HETATM   13  C   UNL     1      42.498 -13.845   4.043  1.00  0.00     0.028 A 
HETATM   14  H   UNL     1      38.737 -13.377   3.987  1.00  0.00     0.169 HD
ENDROOT
BRANCH  12  15
HETATM   15  C   UNL     1      42.307 -15.775   2.457  1.00  0.00     0.136 C 
BRANCH  15  16
HETATM   16  N   UNL     1      43.481 -16.305   3.146  1.00  0.00    -0.288 NA
HETATM   17  H   UNL     1      44.342 -15.947   2.734  1.00  0.00     0.128 HD
BRANCH  16  18
HETATM   18  C   UNL     1      43.583 -17.688   3.366  1.00  0.00     0.011 A 
HETATM   19  C   UNL     1      43.369 -18.545   2.273  1.00  0.00     0.062 A 
HETATM   20  C   UNL     1      43.522 -19.922   2.413  1.00  0.00     0.100 A 
HETATM   21  C   UNL     1      43.914 -20.464   3.631  1.00  0.00     0.098 A 
HETATM   22  C   UNL     1      44.170 -19.642   4.713  1.00  0.00     0.041 A 
HETATM   23  C   UNL     1      44.022 -18.256   4.573  1.00  0.00     0.026 A 
BRANCH  20  24
HETATM   24  O   UNL     1      43.306 -20.786   1.373  1.00  0.00    -0.358 OA
HETATM   25  H   UNL     1      43.820 -21.594   1.546  1.00  0.00     0.218 HD
ENDBRANCH  20  24
BRANCH  21  26
HETATM   26  O   UNL     1      44.062 -21.814   3.765  1.00  0.00    -0.358 OA
HETATM   27  H   UNL     1      44.611 -22.074   2.999  1.00  0.00     0.218 HD
ENDBRANCH  21  26
ENDBRANCH  16  18
ENDBRANCH  15  16
ENDBRANCH  12  15
TORSDOF 5
ENDMDL
MODEL 6
REMARK VINA RESULT:      -7.8      5.511      9.168
REMARK  5 active torsions:
REMARK  status: ('A' for Active; 'I' for Inactive)
REMARK    1  A    between atoms: C_12  and  C_13 
REMARK    2  A    between atoms: C_13  and  N_14 
REMARK    3  A    between atoms: N_14  and  C_15 
REMARK    4  A    between atoms: C_17  and  O_18 
REMARK    5  A    between atoms: C_19  and  O_20 
ROOT
HETATM    1  C   UNL     1      45.267 -11.214   7.621  1.00  0.00     0.048 C 
HETATM    2  C   UNL     1      44.385 -11.845   6.585  1.00  0.00    -0.059 A 
HETATM    3  C   UNL     1      44.034 -11.153   5.423  1.00  0.00     0.037 A 
HETATM    4  C   UNL     1      43.192 -11.750   4.485  1.00  0.00     0.046 A 
HETATM    5  C   UNL     1      42.677 -13.042   4.683  1.00  0.00    -0.003 A 
HETATM    6  C   UNL     1      43.028 -13.749   5.849  1.00  0.00    -0.049 A 
HETATM    7  C   UNL     1      42.520 -15.136   6.131  1.00  0.00     0.049 C 
HETATM    8  C   UNL     1      43.876 -13.134   6.789  1.00  0.00     0.014 A 
HETATM    9  N   UNL     1      42.859 -11.044   3.323  1.00  0.00    -0.322 N 
HETATM   10  C   UNL     1      42.050 -11.533   2.335  1.00  0.00     0.253 A 
HETATM   11  O   UNL     1      41.816 -10.877   1.325  1.00  0.00    -0.268 OA
HETATM   12  C   UNL     1      41.474 -12.889   2.543  1.00  0.00     0.024 A 
HETATM   13  C   UNL     1      41.777 -13.583   3.655  1.00  0.00     0.028 A 
HETATM   14  H   UNL     1      43.235 -10.119   3.165  1.00  0.00     0.169 HD
ENDROOT
BRANCH  12  15
HETATM   15  C   UNL     1      40.514 -13.384   1.500  1.00  0.00     0.136 C 
BRANCH  15  16
HETATM   16  N   UNL     1      41.192 -13.397   0.206  1.00  0.00    -0.288 NA
HETATM   17  H   UNL     1      41.768 -12.565   0.085  1.00  0.00     0.128 HD
BRANCH  16  18
HETATM   18  C   UNL     1      40.446 -13.649  -0.957  1.00  0.00     0.011 A 
HETATM   19  C   UNL     1      39.753 -14.869  -1.043  1.00  0.00     0.062 A 
HETATM   20  C   UNL     1      38.943 -15.146  -2.141  1.00  0.00     0.100 A 
HETATM   21  C   UNL     1      38.789 -14.208  -3.154  1.00  0.00     0.098 A 
HETATM   22  C   UNL     1      39.425 -12.983  -3.077  1.00  0.00     0.041 A 
HETATM   23  C   UNL     1      40.237 -12.699  -1.971  1.00  0.00     0.026 A 
BRANCH  20  24
HETATM   24  O   UNL     1      38.268 -16.331  -2.264  1.00  0.00    -0.358 OA
HETATM   25  H   UNL     1      38.019 -16.437  -3.198  1.00  0.00     0.218 HD
ENDBRANCH  20  24
BRANCH  21  26
HETATM   26  O   UNL     1      37.994 -14.484  -4.228  1.00  0.00    -0.358 OA
HETATM   27  H   UNL     1      37.779 -15.433  -4.133  1.00  0.00     0.218 HD
ENDBRANCH  21  26
ENDBRANCH  16  18
ENDBRANCH  15  16
ENDBRANCH  12  15
TORSDOF 5
ENDMDL
MODEL 7
REMARK VINA RESULT:      -7.8      5.292      8.212
REMARK  5 active torsions:
REMARK  status: ('A' for Active; 'I' for Inactive)
REMARK    1  A    between atoms: C_12  and  C_13 
REMARK    2  A    between atoms: C_13  and  N_14 
REMARK    3  A    between atoms: N_14  and  C_15 
REMARK    4  A    between atoms: C_17  and  O_18 
REMARK    5  A    between atoms: C_19  and  O_20 
ROOT
HETATM    1  C   UNL     1      37.576  -9.971   1.507  1.00  0.00     0.048 C 
HETATM    2  C   UNL     1      38.426 -11.188   1.289  1.00  0.00    -0.059 A 
HETATM    3  C   UNL     1      38.621 -12.120   2.311  1.00  0.00     0.037 A 
HETATM    4  C   UNL     1      39.436 -13.231   2.093  1.00  0.00     0.046 A 
HETATM    5  C   UNL     1      40.079 -13.436   0.861  1.00  0.00    -0.003 A 
HETATM    6  C   UNL     1      39.885 -12.504  -0.176  1.00  0.00    -0.049 A 
HETATM    7  C   UNL     1      40.536 -12.655  -1.524  1.00  0.00     0.049 C 
HETATM    8  C   UNL     1      39.063 -11.386   0.056  1.00  0.00     0.014 A 
HETATM    9  N   UNL     1      39.612 -14.158   3.127  1.00  0.00    -0.322 N 
HETATM   10  C   UNL     1      40.381 -15.284   3.023  1.00  0.00     0.253 A 
HETATM   11  O   UNL     1      40.475 -16.076   3.956  1.00  0.00    -0.268 OA
HETATM   12  C   UNL     1      41.090 -15.501   1.733  1.00  0.00     0.024 A 
HETATM   13  C   UNL     1      40.939 -14.619   0.728  1.00  0.00     0.028 A 
HETATM   14  H   UNL     1      39.144 -14.026   4.013  1.00  0.00     0.169 HD
ENDROOT
BRANCH  12  15
HETATM   15  C   UNL     1      42.005 -16.689   1.656  1.00  0.00     0.136 C 
BRANCH  15  16
HETATM   16  N   UNL     1      42.964 -16.616   2.756  1.00  0.00    -0.288 NA
HETATM   17  H   UNL     1      43.807 -16.117   2.476  1.00  0.00     0.128 HD
BRANCH  16  18
HETATM   18  C   UNL     1      43.298 -17.787   3.454  1.00  0.00     0.011 A 
HETATM   19  C   UNL     1      43.486 -18.965   2.711  1.00  0.00     0.062 A 
HETATM   20  C   UNL     1      43.885 -20.142   3.340  1.00  0.00     0.100 A 
HETATM   21  C   UNL     1      44.126 -20.160   4.707  1.00  0.00     0.098 A 
HETATM   22  C   UNL     1      43.990 -19.006   5.458  1.00  0.00     0.041 A 
HETATM   23  C   UNL     1      43.594 -17.820   4.827  1.00  0.00     0.026 A 
BRANCH  20  24
HETATM   24  O   UNL     1      44.060 -21.310   2.648  1.00  0.00    -0.358 OA
HETATM   25  H   UNL     1      44.722 -21.842   3.124  1.00  0.00     0.218 HD
ENDBRANCH  20  24
BRANCH  21  26
HETATM   26  O   UNL     1      44.516 -21.316   5.320  1.00  0.00    -0.358 OA
HETATM   27  H   UNL     1      44.831 -21.883   4.588  1.00  0.00     0.218 HD
ENDBRANCH  21  26
ENDBRANCH  16  18
ENDBRANCH  15  16
ENDBRANCH  12  15
TORSDOF 5
ENDMDL
MODEL 8
REMARK VINA RESULT:      -7.7      4.034      4.674
REMARK  5 active torsions:
REMARK  status: ('A' for Active; 'I' for Inactive)
REMARK    1  A    between atoms: C_12  and  C_13 
REMARK    2  A    between atoms: C_13  and  N_14 
REMARK    3  A    between atoms: N_14  and  C_15 
REMARK    4  A    between atoms: C_17  and  O_18 
REMARK    5  A    between atoms: C_19  and  O_20 
ROOT
HETATM    1  C   UNL     1      43.919 -20.478   2.108  1.00  0.00     0.048 C 
HETATM    2  C   UNL     1      43.616 -19.147   2.730  1.00  0.00    -0.059 A 
HETATM    3  C   UNL     1      43.089 -18.102   1.968  1.00  0.00     0.037 A 
HETATM    4  C   UNL     1      42.839 -16.865   2.563  1.00  0.00     0.046 A 
HETATM    5  C   UNL     1      43.114 -16.638   3.922  1.00  0.00    -0.003 A 
HETATM    6  C   UNL     1      43.642 -17.686   4.698  1.00  0.00    -0.049 A 
HETATM    7  C   UNL     1      43.959 -17.522   6.159  1.00  0.00     0.049 C 
HETATM    8  C   UNL     1      43.892 -18.929   4.087  1.00  0.00     0.014 A 
HETATM    9  N   UNL     1      42.302 -15.832   1.784  1.00  0.00    -0.322 N 
HETATM   10  C   UNL     1      42.011 -14.585   2.262  1.00  0.00     0.253 A 
HETATM   11  O   UNL     1      41.515 -13.728   1.537  1.00  0.00    -0.268 OA
HETATM   12  C   UNL     1      42.322 -14.320   3.693  1.00  0.00     0.024 A 
HETATM   13  C   UNL     1      42.844 -15.297   4.458  1.00  0.00     0.028 A 
HETATM   14  H   UNL     1      42.089 -15.990   0.808  1.00  0.00     0.169 HD
ENDROOT
BRANCH  12  15
HETATM   15  C   UNL     1      42.088 -12.923   4.189  1.00  0.00     0.136 C 
BRANCH  15  16
HETATM   16  N   UNL     1      40.656 -12.638   4.133  1.00  0.00    -0.288 NA
HETATM   17  H   UNL     1      40.329 -12.586   3.169  1.00  0.00     0.128 HD
BRANCH  16  18
HETATM   18  C   UNL     1      40.138 -11.570   4.883  1.00  0.00     0.011 A 
HETATM   19  C   UNL     1      39.676 -11.841   6.182  1.00  0.00     0.062 A 
HETATM   20  C   UNL     1      39.215 -10.812   6.999  1.00  0.00     0.100 A 
HETATM   21  C   UNL     1      39.230  -9.498   6.547  1.00  0.00     0.098 A 
HETATM   22  C   UNL     1      39.718  -9.196   5.288  1.00  0.00     0.041 A 
HETATM   23  C   UNL     1      40.187 -10.229   4.467  1.00  0.00     0.026 A 
BRANCH  20  24
HETATM   24  O   UNL     1      38.743 -11.044   8.262  1.00  0.00    -0.358 OA
HETATM   25  H   UNL     1      38.974 -10.276   8.813  1.00  0.00     0.218 HD
ENDBRANCH  20  24
BRANCH  21  26
HETATM   26  O   UNL     1      38.777  -8.492   7.350  1.00  0.00    -0.358 OA
HETATM   27  H   UNL     1      38.955  -8.808   8.257  1.00  0.00     0.218 HD
ENDBRANCH  21  26
ENDBRANCH  16  18
ENDBRANCH  15  16
ENDBRANCH  12  15
TORSDOF 5
ENDMDL
MODEL 9
REMARK VINA RESULT:      -7.7      4.982      7.052
REMARK  5 active torsions:
REMARK  status: ('A' for Active; 'I' for Inactive)
REMARK    1  A    between atoms: C_12  and  C_13 
REMARK    2  A    between atoms: C_13  and  N_14 
REMARK    3  A    between atoms: N_14  and  C_15 
REMARK    4  A    between atoms: C_17  and  O_18 
REMARK    5  A    between atoms: C_19  and  O_20 
ROOT
HETATM    1  C   UNL     1      43.535 -18.658   6.201  1.00  0.00     0.048 C 
HETATM    2  C   UNL     1      43.010 -17.543   5.346  1.00  0.00    -0.059 A 
HETATM    3  C   UNL     1      42.113 -16.605   5.862  1.00  0.00     0.037 A 
HETATM    4  C   UNL     1      41.618 -15.591   5.041  1.00  0.00     0.046 A 
HETATM    5  C   UNL     1      41.998 -15.492   3.692  1.00  0.00    -0.003 A 
HETATM    6  C   UNL     1      42.904 -16.431   3.165  1.00  0.00    -0.049 A 
HETATM    7  C   UNL     1      43.361 -16.389   1.732  1.00  0.00     0.049 C 
HETATM    8  C   UNL     1      43.394 -17.451   4.002  1.00  0.00     0.014 A 
HETATM    9  N   UNL     1      40.726 -14.655   5.579  1.00  0.00    -0.322 N 
HETATM   10  C   UNL     1      40.185 -13.618   4.870  1.00  0.00     0.253 A 
HETATM   11  O   UNL     1      39.430 -12.812   5.404  1.00  0.00    -0.268 OA
HETATM   12  C   UNL     1      40.556 -13.516   3.433  1.00  0.00     0.024 A 
HETATM   13  C   UNL     1      41.407 -14.408   2.895  1.00  0.00     0.028 A 
HETATM   14  H   UNL     1      40.457 -14.710   6.551  1.00  0.00     0.169 HD
ENDROOT
BRANCH  12  15
HETATM   15  C   UNL     1      39.888 -12.432   2.637  1.00  0.00     0.136 C 
BRANCH  15  16
HETATM   16  N   UNL     1      39.121 -13.048   1.557  1.00  0.00    -0.288 NA
HETATM   17  H   UNL     1      38.826 -13.990   1.806  1.00  0.00     0.128 HD
BRANCH  16  18
HETATM   18  C   UNL     1      39.635 -13.026   0.250  1.00  0.00     0.011 A 
HETATM   19  C   UNL     1      40.317 -11.870  -0.169  1.00  0.00     0.062 A 
HETATM   20  C   UNL     1      40.908 -11.816  -1.429  1.00  0.00     0.100 A 
HETATM   21  C   UNL     1      40.853 -12.914  -2.277  1.00  0.00     0.098 A 
HETATM   22  C   UNL     1      40.225 -14.079  -1.876  1.00  0.00     0.041 A 
HETATM   23  C   UNL     1      39.633 -14.138  -0.607  1.00  0.00     0.026 A 
BRANCH  20  24
HETATM   24  O   UNL     1      41.565 -10.701  -1.874  1.00  0.00    -0.358 OA
HETATM   25  H   UNL     1      41.029  -9.924  -1.637  1.00  0.00     0.218 HD
ENDBRANCH  20  24
BRANCH  21  26
HETATM   26  O   UNL     1      41.433 -12.857  -3.512  1.00  0.00    -0.358 OA
HETATM   27  H   UNL     1      40.767 -13.249  -4.111  1.00  0.00     0.218 HD
ENDBRANCH  21  26
ENDBRANCH  16  18
ENDBRANCH  15  16
ENDBRANCH  12  15
TORSDOF 5
ENDMDL
MODEL 10
REMARK VINA RESULT:      -7.7      2.850      7.981
REMARK  5 active torsions:
REMARK  status: ('A' for Active; 'I' for Inactive)
REMARK    1  A    between atoms: C_12  and  C_13 
REMARK    2  A    between atoms: C_13  and  N_14 
REMARK    3  A    between atoms: N_14  and  C_15 
REMARK    4  A    between atoms: C_17  and  O_18 
REMARK    5  A    between atoms: C_19  and  O_20 
ROOT
HETATM    1  C   UNL     1      45.088  -9.906   8.119  1.00  0.00     0.048 C 
HETATM    2  C   UNL     1      44.379 -10.881   7.227  1.00  0.00    -0.059 A 
HETATM    3  C   UNL     1      44.102 -12.179   7.660  1.00  0.00     0.037 A 
HETATM    4  C   UNL     1      43.463 -13.077   6.803  1.00  0.00     0.046 A 
HETATM    5  C   UNL     1      43.095 -12.707   5.499  1.00  0.00    -0.003 A 
HETATM    6  C   UNL     1      43.367 -11.399   5.055  1.00  0.00    -0.049 A 
HETATM    7  C   UNL     1      43.001 -10.927   3.675  1.00  0.00     0.049 C 
HETATM    8  C   UNL     1      44.014 -10.504   5.928  1.00  0.00     0.014 A 
HETATM    9  N   UNL     1      43.186 -14.372   7.259  1.00  0.00    -0.322 N 
HETATM   10  C   UNL     1      42.560 -15.329   6.510  1.00  0.00     0.253 A 
HETATM   11  O   UNL     1      42.319 -16.439   6.974  1.00  0.00    -0.268 OA
HETATM   12  C   UNL     1      42.188 -14.961   5.117  1.00  0.00     0.024 A 
HETATM   13  C   UNL     1      42.451 -13.724   4.657  1.00  0.00     0.028 A 
HETATM   14  H   UNL     1      43.436 -14.643   8.200  1.00  0.00     0.169 HD
ENDROOT
BRANCH  12  15
HETATM   15  C   UNL     1      41.586 -16.044   4.270  1.00  0.00     0.136 C 
BRANCH  15  16
HETATM   16  N   UNL     1      42.607 -16.546   3.353  1.00  0.00    -0.288 NA
HETATM   17  H   UNL     1      42.386 -16.303   2.388  1.00  0.00     0.128 HD
BRANCH  16  18
HETATM   18  C   UNL     1      43.007 -17.889   3.439  1.00  0.00     0.011 A 
HETATM   19  C   UNL     1      42.910 -18.680   2.282  1.00  0.00     0.062 A 
HETATM   20  C   UNL     1      43.355 -20.000   2.287  1.00  0.00     0.100 A 
HETATM   21  C   UNL     1      43.924 -20.543   3.432  1.00  0.00     0.098 A 
HETATM   22  C   UNL     1      44.070 -19.776   4.574  1.00  0.00     0.041 A 
HETATM   23  C   UNL     1      43.628 -18.446   4.569  1.00  0.00     0.026 A 
BRANCH  20  24
HETATM   24  O   UNL     1      43.259 -20.802   1.183  1.00  0.00    -0.358 OA
HETATM   25  H   UNL     1      43.676 -20.335   0.438  1.00  0.00     0.218 HD
ENDBRANCH  20  24
BRANCH  21  26
HETATM   26  O   UNL     1      44.358 -21.837   3.434  1.00  0.00    -0.358 OA
HETATM   27  H   UNL     1      43.537 -22.367   3.438  1.00  0.00     0.218 HD
ENDBRANCH  21  26
ENDBRANCH  16  18
ENDBRANCH  15  16
ENDBRANCH  12  15
TORSDOF 5
ENDMDL
