MODEL 1
REMARK VINA RESULT:      -8.4      0.000      0.000
REMARK  6 active torsions:
REMARK  status: ('A' for Active; 'I' for Inactive)
REMARK    1  A    between atoms: C_2  and  S_3 
REMARK    2  A    between atoms: C_2  and  C_11 
REMARK    3  A    between atoms: S_3  and  C_4 
REMARK    4  A    between atoms: C_4  and  C_5 
REMARK       I    between atoms: C_11  and  N_12 
REMARK    5  A    between atoms: N_12  and  C_13 
REMARK    6  A    between atoms: C_15  and  C_16 
ROOT
HETATM    1  C   UNL     1      41.078 -14.839   4.471  1.00  0.00     0.235 C 
HETATM    2  N   UNL     1      40.197 -14.995   3.410  1.00  0.00    -0.326 N 
HETATM    3  O   UNL     1      41.730 -13.826   4.711  1.00  0.00    -0.272 OA
HETATM    4  H   UNL     1      39.868 -15.944   3.258  1.00  0.00     0.169 HD
ENDROOT
BRANCH   2   5
HETATM    5  C   UNL     1      39.819 -14.031   2.451  1.00  0.00     0.035 A 
HETATM    6  C   UNL     1      40.277 -14.024   1.130  1.00  0.00     0.042 A 
HETATM    7  C   UNL     1      39.875 -13.026   0.225  1.00  0.00    -0.021 A 
HETATM    8  C   UNL     1      39.010 -12.020   0.669  1.00  0.00     0.012 A 
HETATM    9  C   UNL     1      38.550 -12.014   1.986  1.00  0.00     0.003 A 
HETATM   10  C   UNL     1      38.954 -13.016   2.873  1.00  0.00     0.029 A 
BRANCH   7  11
HETATM   11  C   UNL     1      40.351 -13.027  -1.150  1.00  0.00     0.010 A 
HETATM   12  C   UNL     1      40.073 -13.898  -2.229  1.00  0.00     0.152 A 
HETATM   13  N   UNL     1      40.726 -13.566  -3.346  1.00  0.00    -0.187 NA
HETATM   14  N   UNL     1      41.427 -12.478  -2.987  1.00  0.00    -0.289 N 
HETATM   15  H   UNL     1      42.016 -12.032  -3.683  1.00  0.00     0.188 HD
HETATM   16  C   UNL     1      41.240 -12.118  -1.684  1.00  0.00     0.123 A 
ENDBRANCH   7  11
ENDBRANCH   2   5
BRANCH   1  17
HETATM   17  C   UNL     1      41.097 -16.052   5.424  1.00  0.00     0.135 C 
HETATM   18  C   UNL     1      40.213 -15.794   6.641  1.00  0.00     0.031 C 
BRANCH  17  19
HETATM   19  S   UNL     1      42.831 -16.450   5.906  1.00  0.00    -0.150 SA
BRANCH  19  20
HETATM   20  C   UNL     1      43.551 -16.751   4.260  1.00  0.00     0.113 C 
BRANCH  20  21
HETATM   21  C   UNL     1      43.654 -18.223   3.950  1.00  0.00    -0.049 A 
HETATM   22  C   UNL     1      43.414 -18.692   2.650  1.00  0.00     0.008 A 
HETATM   23  C   UNL     1      43.529 -20.051   2.352  1.00  0.00     0.001 A 
HETATM   24  C   UNL     1      43.881 -20.955   3.351  1.00  0.00     0.000 A 
HETATM   25  C   UNL     1      44.110 -20.503   4.650  1.00  0.00     0.001 A 
HETATM   26  C   UNL     1      43.995 -19.144   4.950  1.00  0.00     0.008 A 
ENDBRANCH  20  21
ENDBRANCH  19  20
ENDBRANCH  17  19
ENDBRANCH   1  17
TORSDOF 6
ENDMDL
MODEL 2
REMARK VINA RESULT:      -8.1      2.947      7.928
REMARK  6 active torsions:
REMARK  status: ('A' for Active; 'I' for Inactive)
REMARK    1  A    between atoms: C_2  and  S_3 
REMARK    2  A    between atoms: C_2  and  C_11 
REMARK    3  A    between atoms: S_3  and  C_4 
REMARK    4  A    between atoms: C_4  and  C_5 
REMARK       I    between atoms: C_11  and  N_12 
REMARK    5  A    between atoms: N_12  and  C_13 
REMARK    6  A    between atoms: C_15  and  C_16 
ROOT
HETATM    1  C   UNL     1      41.020 -14.444   3.044  1.00  0.00     0.235 C 
HETATM    2  N   UNL     1      42.320 -14.478   3.530  1.00  0.00    -0.326 N 
HETATM    3  O   UNL     1      40.224 -15.379   3.078  1.00  0.00    -0.272 OA
HETATM    4  H   UNL     1      42.896 -13.682   3.277  1.00  0.00     0.169 HD
ENDROOT
BRANCH   2   5
HETATM    5  C   UNL     1      42.963 -15.537   4.207  1.00  0.00     0.035 A 
HETATM    6  C   UNL     1      43.081 -16.832   3.694  1.00  0.00     0.042 A 
HETATM    7  C   UNL     1      43.720 -17.849   4.425  1.00  0.00    -0.021 A 
HETATM    8  C   UNL     1      44.232 -17.550   5.693  1.00  0.00     0.012 A 
HETATM    9  C   UNL     1      44.115 -16.263   6.216  1.00  0.00     0.003 A 
HETATM   10  C   UNL     1      43.483 -15.261   5.476  1.00  0.00     0.029 A 
BRANCH   7  11
HETATM   11  C   UNL     1      43.844 -19.194   3.884  1.00  0.00     0.010 A 
HETATM   12  C   UNL     1      43.695 -19.682   2.565  1.00  0.00     0.152 A 
HETATM   13  N   UNL     1      43.880 -21.003   2.476  1.00  0.00    -0.187 NA
HETATM   14  N   UNL     1      44.150 -21.366   3.740  1.00  0.00    -0.289 N 
HETATM   15  H   UNL     1      44.332 -22.346   3.932  1.00  0.00     0.188 HD
HETATM   16  C   UNL     1      44.137 -20.323   4.620  1.00  0.00     0.123 A 
ENDBRANCH   7  11
ENDBRANCH   2   5
BRANCH   1  17
HETATM   17  C   UNL     1      40.603 -13.050   2.533  1.00  0.00     0.135 C 
HETATM   18  C   UNL     1      39.135 -12.777   2.851  1.00  0.00     0.031 C 
BRANCH  17  19
HETATM   19  S   UNL     1      40.953 -12.907   0.729  1.00  0.00    -0.150 SA
BRANCH  19  20
HETATM   20  C   UNL     1      39.332 -12.320   0.143  1.00  0.00     0.113 C 
BRANCH  20  21
HETATM   21  C   UNL     1      38.849 -13.100  -1.054  1.00  0.00    -0.049 A 
HETATM   22  C   UNL     1      37.739 -12.657  -1.788  1.00  0.00     0.008 A 
HETATM   23  C   UNL     1      37.301 -13.362  -2.910  1.00  0.00     0.001 A 
HETATM   24  C   UNL     1      37.965 -14.521  -3.307  1.00  0.00     0.000 A 
HETATM   25  C   UNL     1      39.062 -14.979  -2.579  1.00  0.00     0.001 A 
HETATM   26  C   UNL     1      39.501 -14.274  -1.456  1.00  0.00     0.008 A 
ENDBRANCH  20  21
ENDBRANCH  19  20
ENDBRANCH  17  19
ENDBRANCH   1  17
TORSDOF 6
ENDMDL
MODEL 3
REMARK VINA RESULT:      -8.1      5.562      8.040
REMARK  6 active torsions:
REMARK  status: ('A' for Active; 'I' for Inactive)
REMARK    1  A    between atoms: C_2  and  S_3 
REMARK    2  A    between atoms: C_2  and  C_11 
REMARK    3  A    between atoms: S_3  and  C_4 
REMARK    4  A    between atoms: C_4  and  C_5 
REMARK       I    between atoms: C_11  and  N_12 
REMARK    5  A    between atoms: N_12  and  C_13 
REMARK    6  A    between atoms: C_15  and  C_16 
ROOT
HETATM    1  C   UNL     1      42.994 -14.218   6.623  1.00  0.00     0.235 C 
HETATM    2  N   UNL     1      43.371 -12.930   6.266  1.00  0.00    -0.326 N 
HETATM    3  O   UNL     1      43.322 -14.794   7.657  1.00  0.00    -0.272 OA
HETATM    4  H   UNL     1      43.154 -12.666   5.310  1.00  0.00     0.169 HD
ENDROOT
BRANCH   2   5
HETATM    5  C   UNL     1      44.129 -12.011   7.023  1.00  0.00     0.035 A 
HETATM    6  C   UNL     1      43.643 -11.341   8.149  1.00  0.00     0.042 A 
HETATM    7  C   UNL     1      44.443 -10.424   8.853  1.00  0.00    -0.021 A 
HETATM    8  C   UNL     1      45.744 -10.176   8.400  1.00  0.00     0.012 A 
HETATM    9  C   UNL     1      46.238 -10.835   7.274  1.00  0.00     0.003 A 
HETATM   10  C   UNL     1      45.433 -11.748   6.589  1.00  0.00     0.029 A 
BRANCH   7  11
HETATM   11  C   UNL     1      43.934  -9.734  10.028  1.00  0.00     0.010 A 
HETATM   12  C   UNL     1      43.704 -10.190  11.347  1.00  0.00     0.152 A 
HETATM   13  N   UNL     1      43.209  -9.240  12.146  1.00  0.00    -0.187 NA
HETATM   14  N   UNL     1      43.122  -8.169  11.342  1.00  0.00    -0.289 N 
HETATM   15  H   UNL     1      42.765  -7.302  11.730  1.00  0.00     0.188 HD
HETATM   16  C   UNL     1      43.539  -8.413  10.065  1.00  0.00     0.123 A 
ENDBRANCH   7  11
ENDBRANCH   2   5
BRANCH   1  17
HETATM   17  C   UNL     1      42.005 -14.856   5.626  1.00  0.00     0.135 C 
HETATM   18  C   UNL     1      41.173 -15.937   6.310  1.00  0.00     0.031 C 
BRANCH  17  19
HETATM   19  S   UNL     1      42.915 -15.511   4.163  1.00  0.00    -0.150 SA
BRANCH  19  20
HETATM   20  C   UNL     1      43.922 -16.795   4.973  1.00  0.00     0.113 C 
BRANCH  20  21
HETATM   21  C   UNL     1      43.836 -18.116   4.252  1.00  0.00    -0.049 A 
HETATM   22  C   UNL     1      44.114 -19.313   4.931  1.00  0.00     0.008 A 
HETATM   23  C   UNL     1      44.015 -20.541   4.275  1.00  0.00     0.001 A 
HETATM   24  C   UNL     1      43.642 -20.586   2.934  1.00  0.00     0.000 A 
HETATM   25  C   UNL     1      43.374 -19.404   2.245  1.00  0.00     0.001 A 
HETATM   26  C   UNL     1      43.473 -18.174   2.899  1.00  0.00     0.008 A 
ENDBRANCH  20  21
ENDBRANCH  19  20
ENDBRANCH  17  19
ENDBRANCH   1  17
TORSDOF 6
ENDMDL
MODEL 4
REMARK VINA RESULT:      -8.1      4.919      8.299
REMARK  6 active torsions:
REMARK  status: ('A' for Active; 'I' for Inactive)
REMARK    1  A    between atoms: C_2  and  S_3 
REMARK    2  A    between atoms: C_2  and  C_11 
REMARK    3  A    between atoms: S_3  and  C_4 
REMARK    4  A    between atoms: C_4  and  C_5 
REMARK       I    between atoms: C_11  and  N_12 
REMARK    5  A    between atoms: N_12  and  C_13 
REMARK    6  A    between atoms: C_15  and  C_16 
ROOT
HETATM    1  C   UNL     1      41.860 -13.805   5.290  1.00  0.00     0.235 C 
HETATM    2  N   UNL     1      42.986 -14.206   4.584  1.00  0.00    -0.326 N 
HETATM    3  O   UNL     1      40.761 -14.352   5.247  1.00  0.00    -0.272 OA
HETATM    4  H   UNL     1      43.763 -13.552   4.602  1.00  0.00     0.169 HD
ENDROOT
BRANCH   2   5
HETATM    5  C   UNL     1      43.125 -15.334   3.747  1.00  0.00     0.035 A 
HETATM    6  C   UNL     1      43.375 -16.627   4.218  1.00  0.00     0.042 A 
HETATM    7  C   UNL     1      43.518 -17.709   3.332  1.00  0.00    -0.021 A 
HETATM    8  C   UNL     1      43.419 -17.474   1.956  1.00  0.00     0.012 A 
HETATM    9  C   UNL     1      43.175 -16.187   1.475  1.00  0.00     0.003 A 
HETATM   10  C   UNL     1      43.028 -15.123   2.368  1.00  0.00     0.029 A 
BRANCH   7  11
HETATM   11  C   UNL     1      43.773 -19.053   3.827  1.00  0.00     0.010 A 
HETATM   12  C   UNL     1      44.109 -19.519   5.120  1.00  0.00     0.152 A 
HETATM   13  N   UNL     1      44.277 -20.844   5.167  1.00  0.00    -0.187 NA
HETATM   14  N   UNL     1      44.049 -21.233   3.903  1.00  0.00    -0.289 N 
HETATM   15  H   UNL     1      44.119 -22.221   3.683  1.00  0.00     0.188 HD
HETATM   16  C   UNL     1      43.747 -20.200   3.063  1.00  0.00     0.123 A 
ENDBRANCH   7  11
ENDBRANCH   2   5
BRANCH   1  17
HETATM   17  C   UNL     1      42.137 -12.631   6.252  1.00  0.00     0.135 C 
HETATM   18  C   UNL     1      41.745 -11.303   5.609  1.00  0.00     0.031 C 
BRANCH  17  19
HETATM   19  S   UNL     1      43.905 -12.646   6.775  1.00  0.00    -0.150 SA
BRANCH  19  20
HETATM   20  C   UNL     1      44.241 -10.856   6.785  1.00  0.00     0.113 C 
BRANCH  20  21
HETATM   21  C   UNL     1      44.254 -10.292   8.184  1.00  0.00    -0.049 A 
HETATM   22  C   UNL     1      43.086  -9.750   8.740  1.00  0.00     0.008 A 
HETATM   23  C   UNL     1      43.088  -9.247  10.042  1.00  0.00     0.001 A 
HETATM   24  C   UNL     1      44.256  -9.275  10.799  1.00  0.00     0.000 A 
HETATM   25  C   UNL     1      45.426  -9.800  10.253  1.00  0.00     0.001 A 
HETATM   26  C   UNL     1      45.428 -10.304   8.951  1.00  0.00     0.008 A 
ENDBRANCH  20  21
ENDBRANCH  19  20
ENDBRANCH  17  19
ENDBRANCH   1  17
TORSDOF 6
ENDMDL
MODEL 5
REMARK VINA RESULT:      -8.1      1.761      2.410
REMARK  6 active torsions:
REMARK  status: ('A' for Active; 'I' for Inactive)
REMARK    1  A    between atoms: C_2  and  S_3 
REMARK    2  A    between atoms: C_2  and  C_11 
REMARK    3  A    between atoms: S_3  and  C_4 
REMARK    4  A    between atoms: C_4  and  C_5 
REMARK       I    between atoms: C_11  and  N_12 
REMARK    5  A    between atoms: N_12  and  C_13 
REMARK    6  A    between atoms: C_15  and  C_16 
ROOT
HETATM    1  C   UNL     1      40.869 -13.589   3.727  1.00  0.00     0.235 C 
HETATM    2  N   UNL     1      41.522 -13.626   2.503  1.00  0.00    -0.326 N 
HETATM    3  O   UNL     1      39.801 -13.023   3.946  1.00  0.00    -0.272 OA
HETATM    4  H   UNL     1      42.469 -13.992   2.530  1.00  0.00     0.169 HD
ENDROOT
BRANCH   2   5
HETATM    5  C   UNL     1      41.080 -13.099   1.271  1.00  0.00     0.035 A 
HETATM    6  C   UNL     1      40.422 -13.851   0.293  1.00  0.00     0.042 A 
HETATM    7  C   UNL     1      40.019 -13.272  -0.923  1.00  0.00    -0.021 A 
HETATM    8  C   UNL     1      40.297 -11.919  -1.152  1.00  0.00     0.012 A 
HETATM    9  C   UNL     1      40.957 -11.161  -0.185  1.00  0.00     0.003 A 
HETATM   10  C   UNL     1      41.346 -11.749   1.021  1.00  0.00     0.029 A 
BRANCH   7  11
HETATM   11  C   UNL     1      39.331 -14.058  -1.935  1.00  0.00     0.010 A 
HETATM   12  C   UNL     1      38.832 -13.699  -3.210  1.00  0.00     0.152 A 
HETATM   13  N   UNL     1      38.243 -14.719  -3.842  1.00  0.00    -0.187 NA
HETATM   14  N   UNL     1      38.363 -15.736  -2.975  1.00  0.00    -0.289 N 
HETATM   15  H   UNL     1      37.982 -16.640  -3.235  1.00  0.00     0.188 HD
HETATM   16  C   UNL     1      39.002 -15.392  -1.819  1.00  0.00     0.123 A 
ENDBRANCH   7  11
ENDBRANCH   2   5
BRANCH   1  17
HETATM   17  C   UNL     1      41.566 -14.438   4.810  1.00  0.00     0.135 C 
HETATM   18  C   UNL     1      43.018 -14.000   4.986  1.00  0.00     0.031 C 
BRANCH  17  19
HETATM   19  S   UNL     1      41.434 -16.229   4.393  1.00  0.00    -0.150 SA
BRANCH  19  20
HETATM   20  C   UNL     1      43.113 -16.523   3.751  1.00  0.00     0.113 C 
BRANCH  20  21
HETATM   21  C   UNL     1      43.383 -17.989   3.529  1.00  0.00    -0.049 A 
HETATM   22  C   UNL     1      43.942 -18.770   4.552  1.00  0.00     0.008 A 
HETATM   23  C   UNL     1      44.174 -20.133   4.359  1.00  0.00     0.001 A 
HETATM   24  C   UNL     1      43.854 -20.729   3.141  1.00  0.00     0.000 A 
HETATM   25  C   UNL     1      43.310 -19.961   2.113  1.00  0.00     0.001 A 
HETATM   26  C   UNL     1      43.077 -18.598   2.303  1.00  0.00     0.008 A 
ENDBRANCH  20  21
ENDBRANCH  19  20
ENDBRANCH  17  19
ENDBRANCH   1  17
TORSDOF 6
ENDMDL
MODEL 6
REMARK VINA RESULT:      -8.0      3.394      7.427
REMARK  6 active torsions:
REMARK  status: ('A' for Active; 'I' for Inactive)
REMARK    1  A    between atoms: C_2  and  S_3 
REMARK    2  A    between atoms: C_2  and  C_11 
REMARK    3  A    between atoms: S_3  and  C_4 
REMARK    4  A    between atoms: C_4  and  C_5 
REMARK       I    between atoms: C_11  and  N_12 
REMARK    5  A    between atoms: N_12  and  C_13 
REMARK    6  A    between atoms: C_15  and  C_16 
ROOT
HETATM    1  C   UNL     1      40.291 -14.786   1.561  1.00  0.00     0.235 C 
HETATM    2  N   UNL     1      41.661 -14.990   1.652  1.00  0.00    -0.326 N 
HETATM    3  O   UNL     1      39.449 -15.268   2.315  1.00  0.00    -0.272 OA
HETATM    4  H   UNL     1      42.199 -14.658   0.858  1.00  0.00     0.169 HD
ENDROOT
BRANCH   2   5
HETATM    5  C   UNL     1      42.364 -15.714   2.638  1.00  0.00     0.035 A 
HETATM    6  C   UNL     1      42.673 -17.074   2.535  1.00  0.00     0.042 A 
HETATM    7  C   UNL     1      43.363 -17.743   3.560  1.00  0.00    -0.021 A 
HETATM    8  C   UNL     1      43.733 -17.028   4.705  1.00  0.00     0.012 A 
HETATM    9  C   UNL     1      43.425 -15.672   4.821  1.00  0.00     0.003 A 
HETATM   10  C   UNL     1      42.743 -15.019   3.791  1.00  0.00     0.029 A 
BRANCH   7  11
HETATM   11  C   UNL     1      43.686 -19.157   3.445  1.00  0.00     0.010 A 
HETATM   12  C   UNL     1      43.625 -20.037   2.340  1.00  0.00     0.152 A 
HETATM   13  N   UNL     1      43.999 -21.283   2.647  1.00  0.00    -0.187 NA
HETATM   14  N   UNL     1      44.303 -21.206   3.952  1.00  0.00    -0.289 N 
HETATM   15  H   UNL     1      44.620 -22.046   4.424  1.00  0.00     0.188 HD
HETATM   16  C   UNL     1      44.129 -19.958   4.477  1.00  0.00     0.123 A 
ENDBRANCH   7  11
ENDBRANCH   2   5
BRANCH   1  17
HETATM   17  C   UNL     1      39.901 -13.781   0.458  1.00  0.00     0.135 C 
HETATM   18  C   UNL     1      39.883 -14.462  -0.908  1.00  0.00     0.031 C 
BRANCH  17  19
HETATM   19  S   UNL     1      41.041 -12.333   0.489  1.00  0.00    -0.150 SA
BRANCH  19  20
HETATM   20  C   UNL     1      40.413 -11.475   1.967  1.00  0.00     0.113 C 
BRANCH  20  21
HETATM   21  C   UNL     1      41.391 -11.537   3.114  1.00  0.00    -0.049 A 
HETATM   22  C   UNL     1      40.936 -11.757   4.423  1.00  0.00     0.008 A 
HETATM   23  C   UNL     1      41.838 -11.837   5.484  1.00  0.00     0.001 A 
HETATM   24  C   UNL     1      43.204 -11.692   5.250  1.00  0.00     0.000 A 
HETATM   25  C   UNL     1      43.667 -11.461   3.956  1.00  0.00     0.001 A 
HETATM   26  C   UNL     1      42.766 -11.380   2.893  1.00  0.00     0.008 A 
ENDBRANCH  20  21
ENDBRANCH  19  20
ENDBRANCH  17  19
ENDBRANCH   1  17
TORSDOF 6
ENDMDL
MODEL 7
REMARK VINA RESULT:      -8.0      4.250      6.045
REMARK  6 active torsions:
REMARK  status: ('A' for Active; 'I' for Inactive)
REMARK    1  A    between atoms: C_2  and  S_3 
REMARK    2  A    between atoms: C_2  and  C_11 
REMARK    3  A    between atoms: S_3  and  C_4 
REMARK    4  A    between atoms: C_4  and  C_5 
REMARK       I    between atoms: C_11  and  N_12 
REMARK    5  A    between atoms: N_12  and  C_13 
REMARK    6  A    between atoms: C_15  and  C_16 
ROOT
HETATM    1  C   UNL     1      41.091 -14.045   3.888  1.00  0.00     0.235 C 
HETATM    2  N   UNL     1      41.050 -13.684   5.228  1.00  0.00    -0.326 N 
HETATM    3  O   UNL     1      41.453 -13.318   2.966  1.00  0.00    -0.272 OA
HETATM    4  H   UNL     1      40.573 -14.341   5.837  1.00  0.00     0.169 HD
ENDROOT
BRANCH   2   5
HETATM    5  C   UNL     1      41.468 -12.467   5.808  1.00  0.00     0.035 A 
HETATM    6  C   UNL     1      42.793 -12.184   6.155  1.00  0.00     0.042 A 
HETATM    7  C   UNL     1      43.144 -10.957   6.745  1.00  0.00    -0.021 A 
HETATM    8  C   UNL     1      42.140 -10.015   6.995  1.00  0.00     0.012 A 
HETATM    9  C   UNL     1      40.814 -10.290   6.658  1.00  0.00     0.003 A 
HETATM   10  C   UNL     1      40.481 -11.511   6.067  1.00  0.00     0.029 A 
BRANCH   7  11
HETATM   11  C   UNL     1      44.525 -10.666   7.099  1.00  0.00     0.010 A 
HETATM   12  C   UNL     1      45.071  -9.769   8.048  1.00  0.00     0.152 A 
HETATM   13  N   UNL     1      46.407  -9.783   8.066  1.00  0.00    -0.187 NA
HETATM   14  N   UNL     1      46.723 -10.690   7.128  1.00  0.00    -0.289 N 
HETATM   15  H   UNL     1      47.704 -10.880   6.952  1.00  0.00     0.188 HD
HETATM   16  C   UNL     1      45.634 -11.243   6.518  1.00  0.00     0.123 A 
ENDBRANCH   7  11
ENDBRANCH   2   5
BRANCH   1  17
HETATM   17  C   UNL     1      40.732 -15.526   3.650  1.00  0.00     0.135 C 
HETATM   18  C   UNL     1      40.832 -16.320   4.950  1.00  0.00     0.031 C 
BRANCH  17  19
HETATM   19  S   UNL     1      41.805 -16.234   2.329  1.00  0.00    -0.150 SA
BRANCH  19  20
HETATM   20  C   UNL     1      43.267 -16.677   3.321  1.00  0.00     0.113 C 
BRANCH  20  21
HETATM   21  C   UNL     1      43.477 -18.169   3.379  1.00  0.00    -0.049 A 
HETATM   22  C   UNL     1      43.165 -18.973   2.272  1.00  0.00     0.008 A 
HETATM   23  C   UNL     1      43.378 -20.352   2.312  1.00  0.00     0.001 A 
HETATM   24  C   UNL     1      43.900 -20.943   3.461  1.00  0.00     0.000 A 
HETATM   25  C   UNL     1      44.202 -20.157   4.571  1.00  0.00     0.001 A 
HETATM   26  C   UNL     1      43.990 -18.778   4.533  1.00  0.00     0.008 A 
ENDBRANCH  20  21
ENDBRANCH  19  20
ENDBRANCH  17  19
ENDBRANCH   1  17
TORSDOF 6
ENDMDL
MODEL 8
REMARK VINA RESULT:      -7.9      6.047      8.658
REMARK  6 active torsions:
REMARK  status: ('A' for Active; 'I' for Inactive)
REMARK    1  A    between atoms: C_2  and  S_3 
REMARK    2  A    between atoms: C_2  and  C_11 
REMARK    3  A    between atoms: S_3  and  C_4 
REMARK    4  A    between atoms: C_4  and  C_5 
REMARK       I    between atoms: C_11  and  N_12 
REMARK    5  A    between atoms: N_12  and  C_13 
REMARK    6  A    between atoms: C_15  and  C_16 
ROOT
HETATM    1  C   UNL     1      43.320 -12.147   5.521  1.00  0.00     0.235 C 
HETATM    2  N   UNL     1      44.227 -12.312   6.558  1.00  0.00    -0.326 N 
HETATM    3  O   UNL     1      42.715 -11.110   5.264  1.00  0.00    -0.272 OA
HETATM    4  H   UNL     1      44.511 -13.271   6.735  1.00  0.00     0.169 HD
ENDROOT
BRANCH   2   5
HETATM    5  C   UNL     1      44.688 -11.336   7.468  1.00  0.00     0.035 A 
HETATM    6  C   UNL     1      44.048 -11.031   8.673  1.00  0.00     0.042 A 
HETATM    7  C   UNL     1      44.548 -10.036   9.531  1.00  0.00    -0.021 A 
HETATM    8  C   UNL     1      45.700  -9.336   9.155  1.00  0.00     0.012 A 
HETATM    9  C   UNL     1      46.343  -9.629   7.953  1.00  0.00     0.003 A 
HETATM   10  C   UNL     1      45.838 -10.625   7.113  1.00  0.00     0.029 A 
BRANCH   7  11
HETATM   11  C   UNL     1      43.881  -9.726  10.786  1.00  0.00     0.010 A 
HETATM   12  C   UNL     1      43.607  -8.487  11.412  1.00  0.00     0.152 A 
HETATM   13  N   UNL     1      42.978  -8.625  12.583  1.00  0.00    -0.187 NA
HETATM   14  N   UNL     1      42.845  -9.954  12.712  1.00  0.00    -0.289 N 
HETATM   15  H   UNL     1      42.386 -10.314  13.542  1.00  0.00     0.188 HD
HETATM   16  C   UNL     1      43.371 -10.657  11.667  1.00  0.00     0.123 A 
ENDBRANCH   7  11
ENDBRANCH   2   5
BRANCH   1  17
HETATM   17  C   UNL     1      43.206 -13.390   4.615  1.00  0.00     0.135 C 
HETATM   18  C   UNL     1      43.108 -12.981   3.148  1.00  0.00     0.031 C 
BRANCH  17  19
HETATM   19  S   UNL     1      41.771 -14.423   5.137  1.00  0.00    -0.150 SA
BRANCH  19  20
HETATM   20  C   UNL     1      42.654 -15.872   5.797  1.00  0.00     0.113 C 
BRANCH  20  21
HETATM   21  C   UNL     1      43.016 -16.855   4.712  1.00  0.00    -0.049 A 
HETATM   22  C   UNL     1      42.375 -16.801   3.464  1.00  0.00     0.008 A 
HETATM   23  C   UNL     1      42.721 -17.694   2.449  1.00  0.00     0.001 A 
HETATM   24  C   UNL     1      43.706 -18.654   2.671  1.00  0.00     0.000 A 
HETATM   25  C   UNL     1      44.341 -18.725   3.910  1.00  0.00     0.001 A 
HETATM   26  C   UNL     1      43.996 -17.833   4.927  1.00  0.00     0.008 A 
ENDBRANCH  20  21
ENDBRANCH  19  20
ENDBRANCH  17  19
ENDBRANCH   1  17
TORSDOF 6
ENDMDL
MODEL 9
REMARK VINA RESULT:      -7.8      4.619      8.055
REMARK  6 active torsions:
REMARK  status: ('A' for Active; 'I' for Inactive)
REMARK    1  A    between atoms: C_2  and  S_3 
REMARK    2  A    between atoms: C_2  and  C_11 
REMARK    3  A    between atoms: S_3  and  C_4 
REMARK    4  A    between atoms: C_4  and  C_5 
REMARK       I    between atoms: C_11  and  N_12 
REMARK    5  A    between atoms: N_12  and  C_13 
REMARK    6  A    between atoms: C_15  and  C_16 
ROOT
HETATM    1  C   UNL     1      41.820 -13.492   4.484  1.00  0.00     0.235 C 
HETATM    2  N   UNL     1      43.010 -14.195   4.355  1.00  0.00    -0.326 N 
HETATM    3  O   UNL     1      40.780 -13.937   4.962  1.00  0.00    -0.272 OA
HETATM    4  H   UNL     1      43.721 -13.740   3.791  1.00  0.00     0.169 HD
ENDROOT
BRANCH   2   5
HETATM    5  C   UNL     1      43.292 -15.506   4.796  1.00  0.00     0.035 A 
HETATM    6  C   UNL     1      43.323 -16.622   3.954  1.00  0.00     0.042 A 
HETATM    7  C   UNL     1      43.595 -17.906   4.456  1.00  0.00    -0.021 A 
HETATM    8  C   UNL     1      43.826 -18.060   5.828  1.00  0.00     0.012 A 
HETATM    9  C   UNL     1      43.793 -16.954   6.678  1.00  0.00     0.003 A 
HETATM   10  C   UNL     1      43.527 -15.683   6.163  1.00  0.00     0.029 A 
BRANCH   7  11
HETATM   11  C   UNL     1      43.631 -19.063   3.575  1.00  0.00     0.010 A 
HETATM   12  C   UNL     1      43.969 -20.413   3.827  1.00  0.00     0.152 A 
HETATM   13  N   UNL     1      43.890 -21.181   2.736  1.00  0.00    -0.187 NA
HETATM   14  N   UNL     1      43.499 -20.324   1.779  1.00  0.00    -0.289 N 
HETATM   15  H   UNL     1      43.367 -20.680   0.838  1.00  0.00     0.188 HD
HETATM   16  C   UNL     1      43.334 -19.046   2.228  1.00  0.00     0.123 A 
ENDBRANCH   7  11
ENDBRANCH   2   5
BRANCH   1  17
HETATM   17  C   UNL     1      41.942 -12.015   4.056  1.00  0.00     0.135 C 
HETATM   18  C   UNL     1      43.210 -11.795   3.235  1.00  0.00     0.031 C 
BRANCH  17  19
HETATM   19  S   UNL     1      41.884 -10.921   5.538  1.00  0.00    -0.150 SA
BRANCH  19  20
HETATM   20  C   UNL     1      43.076 -11.786   6.610  1.00  0.00     0.113 C 
BRANCH  20  21
HETATM   21  C   UNL     1      44.062 -10.834   7.239  1.00  0.00    -0.049 A 
HETATM   22  C   UNL     1      45.436 -11.118   7.213  1.00  0.00     0.008 A 
HETATM   23  C   UNL     1      46.355 -10.230   7.774  1.00  0.00     0.001 A 
HETATM   24  C   UNL     1      45.911  -9.053   8.372  1.00  0.00     0.000 A 
HETATM   25  C   UNL     1      44.548  -8.766   8.416  1.00  0.00     0.001 A 
HETATM   26  C   UNL     1      43.626  -9.653   7.856  1.00  0.00     0.008 A 
ENDBRANCH  20  21
ENDBRANCH  19  20
ENDBRANCH  17  19
ENDBRANCH   1  17
TORSDOF 6
ENDMDL
MODEL 10
REMARK VINA RESULT:      -7.8      2.665      3.683
REMARK  6 active torsions:
REMARK  status: ('A' for Active; 'I' for Inactive)
REMARK    1  A    between atoms: C_2  and  S_3 
REMARK    2  A    between atoms: C_2  and  C_11 
REMARK    3  A    between atoms: S_3  and  C_4 
REMARK    4  A    between atoms: C_4  and  C_5 
REMARK       I    between atoms: C_11  and  N_12 
REMARK    5  A    between atoms: N_12  and  C_13 
REMARK    6  A    between atoms: C_15  and  C_16 
ROOT
HETATM    1  C   UNL     1      40.761 -14.747   1.728  1.00  0.00     0.235 C 
HETATM    2  N   UNL     1      40.922 -14.062   0.531  1.00  0.00    -0.326 N 
HETATM    3  O   UNL     1      39.700 -15.203   2.148  1.00  0.00    -0.272 OA
HETATM    4  H   UNL     1      41.823 -13.610   0.412  1.00  0.00     0.169 HD
ENDROOT
BRANCH   2   5
HETATM    5  C   UNL     1      39.949 -13.812  -0.460  1.00  0.00     0.035 A 
HETATM    6  C   UNL     1      39.173 -12.650  -0.514  1.00  0.00     0.042 A 
HETATM    7  C   UNL     1      38.208 -12.466  -1.519  1.00  0.00    -0.021 A 
HETATM    8  C   UNL     1      38.021 -13.475  -2.471  1.00  0.00     0.012 A 
HETATM    9  C   UNL     1      38.787 -14.640  -2.423  1.00  0.00     0.003 A 
HETATM   10  C   UNL     1      39.746 -14.807  -1.422  1.00  0.00     0.029 A 
BRANCH   7  11
HETATM   11  C   UNL     1      37.406 -11.253  -1.573  1.00  0.00     0.010 A 
HETATM   12  C   UNL     1      36.954 -10.391  -0.546  1.00  0.00     0.152 A 
HETATM   13  N   UNL     1      36.220  -9.374  -1.008  1.00  0.00    -0.187 NA
HETATM   14  N   UNL     1      36.199  -9.579  -2.334  1.00  0.00    -0.289 N 
HETATM   15  H   UNL     1      35.691  -8.922  -2.916  1.00  0.00     0.188 HD
HETATM   16  C   UNL     1      36.890 -10.691  -2.722  1.00  0.00     0.123 A 
ENDBRANCH   7  11
ENDBRANCH   2   5
BRANCH   1  17
HETATM   17  C   UNL     1      42.091 -14.992   2.468  1.00  0.00     0.135 C 
HETATM   18  C   UNL     1      43.181 -15.422   1.490  1.00  0.00     0.031 C 
BRANCH  17  19
HETATM   19  S   UNL     1      41.848 -16.229   3.813  1.00  0.00    -0.150 SA
BRANCH  19  20
HETATM   20  C   UNL     1      43.569 -16.779   4.045  1.00  0.00     0.113 C 
BRANCH  20  21
HETATM   21  C   UNL     1      43.708 -18.273   3.893  1.00  0.00    -0.049 A 
HETATM   22  C   UNL     1      44.039 -19.070   5.000  1.00  0.00     0.008 A 
HETATM   23  C   UNL     1      44.148 -20.455   4.870  1.00  0.00     0.001 A 
HETATM   24  C   UNL     1      43.934 -21.058   3.632  1.00  0.00     0.000 A 
HETATM   25  C   UNL     1      43.618 -20.276   2.523  1.00  0.00     0.001 A 
HETATM   26  C   UNL     1      43.508 -18.890   2.650  1.00  0.00     0.008 A 
ENDBRANCH  20  21
ENDBRANCH  19  20
ENDBRANCH  17  19
ENDBRANCH   1  17
TORSDOF 6
ENDMDL
