MODEL 1
REMARK VINA RESULT:      -9.5      0.000      0.000
REMARK  5 active torsions:
REMARK  status: ('A' for Active; 'I' for Inactive)
REMARK    1  A    between atoms: C_4  and  C_5 
REMARK       I    between atoms: N_6  and  C_7 
REMARK    2  A    between atoms: C_7  and  C_8 
REMARK    3  A    between atoms: C_8  and  C_9 
REMARK    4  A    between atoms: C_11  and  O_12 
REMARK    5  A    between atoms: C_14  and  O_15 
ROOT
HETATM    1  C   UNL     1      40.942 -14.465   2.900  1.00  0.00     0.189 C 
HETATM    2  N   UNL     1      41.417 -13.155   3.423  1.00  0.00    -0.336 N 
HETATM    3  C   UNL     1      42.735 -12.754   3.191  1.00  0.00     0.225 C 
HETATM    4  O   UNL     1      43.574 -13.462   2.632  1.00  0.00    -0.273 OA
HETATM    5  C   UNL     1      40.332 -12.153   3.491  1.00  0.00     0.132 C 
HETATM    6  C   UNL     1      39.869 -11.741   2.072  1.00  0.00     0.061 C 
HETATM    7  C   UNL     1      39.839 -12.931   1.162  1.00  0.00    -0.019 A 
HETATM    8  C   UNL     1      40.353 -14.163   1.540  1.00  0.00     0.046 A 
HETATM    9  N   UNL     1      40.151 -15.034   0.505  1.00  0.00    -0.356 N 
HETATM   10  H   UNL     1      40.392 -16.017   0.503  1.00  0.00     0.166 HD
HETATM   11  C   UNL     1      39.608 -14.363  -0.572  1.00  0.00     0.043 A 
HETATM   12  C   UNL     1      39.388 -13.041  -0.178  1.00  0.00    -0.001 A 
HETATM   13  C   UNL     1      39.298 -14.823  -1.858  1.00  0.00     0.030 A 
HETATM   14  C   UNL     1      38.749 -13.907  -2.761  1.00  0.00     0.002 A 
HETATM   15  C   UNL     1      38.512 -12.585  -2.391  1.00  0.00     0.001 A 
HETATM   16  C   UNL     1      38.825 -12.140  -1.102  1.00  0.00     0.014 A 
ENDROOT
BRANCH   1  17
HETATM   17  C   UNL     1      41.847 -15.681   3.086  1.00  0.00     0.063 A 
HETATM   18  N   UNL     1      42.098 -16.045   4.378  1.00  0.00    -0.256 NA
HETATM   19  C   UNL     1      42.902 -17.109   4.610  1.00  0.00     0.031 A 
HETATM   20  C   UNL     1      43.189 -17.455   6.040  1.00  0.00     0.070 C 
HETATM   21  C   UNL     1      43.461 -17.862   3.585  1.00  0.00     0.027 A 
HETATM   22  C   UNL     1      43.199 -17.495   2.272  1.00  0.00     0.004 A 
HETATM   23  C   UNL     1      42.390 -16.391   2.017  1.00  0.00     0.030 A 
ENDBRANCH   1  17
BRANCH   3  24
HETATM   24  C   UNL     1      43.158 -11.359   3.638  1.00  0.00     0.141 C 
BRANCH  24  25
HETATM   25  C   UNL     1      43.500 -11.203   5.102  1.00  0.00    -0.047 A 
HETATM   26  C   UNL     1      42.665 -10.511   5.993  1.00  0.00     0.047 A 
HETATM   27  C   UNL     1      43.003 -10.386   7.347  1.00  0.00     0.102 A 
HETATM   28  C   UNL     1      44.180 -10.992   7.830  1.00  0.00     0.101 A 
HETATM   29  C   UNL     1      44.995 -11.710   6.950  1.00  0.00     0.040 A 
HETATM   30  C   UNL     1      44.655 -11.817   5.600  1.00  0.00     0.010 A 
BRANCH  27  31
HETATM   31  O   UNL     1      42.249  -9.705   8.271  1.00  0.00    -0.353 OA
HETATM   32  C   UNL     1      42.190  -8.289   8.150  1.00  0.00     0.210 C 
ENDBRANCH  27  31
BRANCH  28  33
HETATM   33  O   UNL     1      44.442 -10.831   9.168  1.00  0.00    -0.353 OA
HETATM   34  C   UNL     1      45.449  -9.899   9.532  1.00  0.00     0.210 C 
ENDBRANCH  28  33
ENDBRANCH  24  25
ENDBRANCH   3  24
TORSDOF 5
ENDMDL
MODEL 2
REMARK VINA RESULT:      -9.2      0.785      1.567
REMARK  5 active torsions:
REMARK  status: ('A' for Active; 'I' for Inactive)
REMARK    1  A    between atoms: C_4  and  C_5 
REMARK       I    between atoms: N_6  and  C_7 
REMARK    2  A    between atoms: C_7  and  C_8 
REMARK    3  A    between atoms: C_8  and  C_9 
REMARK    4  A    between atoms: C_11  and  O_12 
REMARK    5  A    between atoms: C_14  and  O_15 
ROOT
HETATM    1  C   UNL     1      40.649 -14.288   2.673  1.00  0.00     0.189 C 
HETATM    2  N   UNL     1      41.063 -12.948   3.171  1.00  0.00    -0.336 N 
HETATM    3  C   UNL     1      42.377 -12.515   2.980  1.00  0.00     0.225 C 
HETATM    4  O   UNL     1      43.259 -13.214   2.478  1.00  0.00    -0.273 OA
HETATM    5  C   UNL     1      39.948 -11.979   3.163  1.00  0.00     0.132 C 
HETATM    6  C   UNL     1      39.531 -11.626   1.714  1.00  0.00     0.061 C 
HETATM    7  C   UNL     1      39.573 -12.844   0.843  1.00  0.00    -0.019 A 
HETATM    8  C   UNL     1      40.108 -14.047   1.281  1.00  0.00     0.046 A 
HETATM    9  N   UNL     1      39.974 -14.956   0.268  1.00  0.00    -0.356 N 
HETATM   10  H   UNL     1      40.243 -15.931   0.308  1.00  0.00     0.166 HD
HETATM   11  C   UNL     1      39.457 -14.337  -0.852  1.00  0.00     0.043 A 
HETATM   12  C   UNL     1      39.182 -13.010  -0.510  1.00  0.00    -0.001 A 
HETATM   13  C   UNL     1      39.213 -14.846  -2.133  1.00  0.00     0.030 A 
HETATM   14  C   UNL     1      38.675 -13.975  -3.087  1.00  0.00     0.002 A 
HETATM   15  C   UNL     1      38.384 -12.650  -2.770  1.00  0.00     0.001 A 
HETATM   16  C   UNL     1      38.631 -12.156  -1.485  1.00  0.00     0.014 A 
ENDROOT
BRANCH   1  17
HETATM   17  C   UNL     1      41.580 -15.469   2.935  1.00  0.00     0.063 A 
HETATM   18  N   UNL     1      41.756 -15.811   4.246  1.00  0.00    -0.256 NA
HETATM   19  C   UNL     1      42.579 -16.844   4.545  1.00  0.00     0.031 A 
HETATM   20  C   UNL     1      42.780 -17.165   5.995  1.00  0.00     0.070 C 
HETATM   21  C   UNL     1      43.231 -17.587   3.569  1.00  0.00     0.027 A 
HETATM   22  C   UNL     1      43.046 -17.243   2.237  1.00  0.00     0.004 A 
HETATM   23  C   UNL     1      42.219 -16.171   1.914  1.00  0.00     0.030 A 
ENDBRANCH   1  17
BRANCH   3  24
HETATM   24  C   UNL     1      42.740 -11.094   3.398  1.00  0.00     0.141 C 
BRANCH  24  25
HETATM   25  C   UNL     1      42.878 -10.850   4.883  1.00  0.00    -0.047 A 
HETATM   26  C   UNL     1      44.004 -11.270   5.607  1.00  0.00     0.047 A 
HETATM   27  C   UNL     1      44.109 -11.025   6.982  1.00  0.00     0.102 A 
HETATM   28  C   UNL     1      43.086 -10.316   7.643  1.00  0.00     0.101 A 
HETATM   29  C   UNL     1      41.980  -9.868   6.917  1.00  0.00     0.040 A 
HETATM   30  C   UNL     1      41.879 -10.129   5.549  1.00  0.00     0.010 A 
BRANCH  27  31
HETATM   31  O   UNL     1      45.168 -11.426   7.758  1.00  0.00    -0.353 OA
HETATM   32  C   UNL     1      46.412 -10.769   7.554  1.00  0.00     0.210 C 
ENDBRANCH  27  31
BRANCH  28  33
HETATM   33  O   UNL     1      43.262 -10.110   8.990  1.00  0.00    -0.353 OA
HETATM   34  C   UNL     1      42.480  -9.099   9.607  1.00  0.00     0.210 C 
ENDBRANCH  28  33
ENDBRANCH  24  25
ENDBRANCH   3  24
TORSDOF 5
ENDMDL
MODEL 3
REMARK VINA RESULT:      -9.2      2.197      5.780
REMARK  5 active torsions:
REMARK  status: ('A' for Active; 'I' for Inactive)
REMARK    1  A    between atoms: C_4  and  C_5 
REMARK       I    between atoms: N_6  and  C_7 
REMARK    2  A    between atoms: C_7  and  C_8 
REMARK    3  A    between atoms: C_8  and  C_9 
REMARK    4  A    between atoms: C_11  and  O_12 
REMARK    5  A    between atoms: C_14  and  O_15 
ROOT
HETATM    1  C   UNL     1      42.516 -14.618   2.686  1.00  0.00     0.189 C 
HETATM    2  N   UNL     1      42.178 -14.057   4.022  1.00  0.00    -0.336 N 
HETATM    3  C   UNL     1      40.853 -14.074   4.465  1.00  0.00     0.225 C 
HETATM    4  O   UNL     1      39.909 -14.466   3.776  1.00  0.00    -0.273 OA
HETATM    5  C   UNL     1      43.290 -14.198   4.986  1.00  0.00     0.132 C 
HETATM    6  C   UNL     1      43.519 -15.685   5.353  1.00  0.00     0.061 C 
HETATM    7  C   UNL     1      43.358 -16.556   4.145  1.00  0.00    -0.019 A 
HETATM    8  C   UNL     1      42.876 -16.065   2.940  1.00  0.00     0.046 A 
HETATM    9  N   UNL     1      42.872 -17.097   2.041  1.00  0.00    -0.356 N 
HETATM   10  H   UNL     1      42.604 -17.033   1.068  1.00  0.00     0.166 HD
HETATM   11  C   UNL     1      43.247 -18.267   2.671  1.00  0.00     0.043 A 
HETATM   12  C   UNL     1      43.572 -17.949   3.992  1.00  0.00    -0.001 A 
HETATM   13  C   UNL     1      43.321 -19.574   2.175  1.00  0.00     0.030 A 
HETATM   14  C   UNL     1      43.738 -20.580   3.053  1.00  0.00     0.002 A 
HETATM   15  C   UNL     1      44.076 -20.289   4.373  1.00  0.00     0.001 A 
HETATM   16  C   UNL     1      43.999 -18.978   4.854  1.00  0.00     0.014 A 
ENDROOT
BRANCH   1  17
HETATM   17  C   UNL     1      41.618 -14.252   1.507  1.00  0.00     0.063 A 
HETATM   18  N   UNL     1      41.679 -12.952   1.093  1.00  0.00    -0.256 NA
HETATM   19  C   UNL     1      40.898 -12.561   0.057  1.00  0.00     0.031 A 
HETATM   20  C   UNL     1      40.961 -11.118  -0.345  1.00  0.00     0.070 C 
HETATM   21  C   UNL     1      40.056 -13.436  -0.617  1.00  0.00     0.027 A 
HETATM   22  C   UNL     1      40.000 -14.759  -0.198  1.00  0.00     0.004 A 
HETATM   23  C   UNL     1      40.782 -15.172   0.877  1.00  0.00     0.030 A 
ENDBRANCH   1  17
BRANCH   3  24
HETATM   24  C   UNL     1      40.556 -13.598   5.883  1.00  0.00     0.141 C 
BRANCH  24  25
HETATM   25  C   UNL     1      40.341 -12.112   6.057  1.00  0.00    -0.047 A 
HETATM   26  C   UNL     1      41.410 -11.219   6.223  1.00  0.00     0.047 A 
HETATM   27  C   UNL     1      41.182  -9.845   6.377  1.00  0.00     0.102 A 
HETATM   28  C   UNL     1      39.864  -9.347   6.328  1.00  0.00     0.101 A 
HETATM   29  C   UNL     1      38.802 -10.233   6.128  1.00  0.00     0.040 A 
HETATM   30  C   UNL     1      39.039 -11.602   5.990  1.00  0.00     0.010 A 
BRANCH  27  31
HETATM   31  O   UNL     1      42.175  -8.915   6.567  1.00  0.00    -0.353 OA
HETATM   32  C   UNL     1      42.911  -8.986   7.780  1.00  0.00     0.210 C 
ENDBRANCH  27  31
BRANCH  28  33
HETATM   33  O   UNL     1      39.721  -7.990   6.480  1.00  0.00    -0.353 OA
HETATM   34  C   UNL     1      39.013  -7.529   7.621  1.00  0.00     0.210 C 
ENDBRANCH  28  33
ENDBRANCH  24  25
ENDBRANCH   3  24
TORSDOF 5
ENDMDL
MODEL 4
REMARK VINA RESULT:      -9.1      2.655      7.596
REMARK  5 active torsions:
REMARK  status: ('A' for Active; 'I' for Inactive)
REMARK    1  A    between atoms: C_4  and  C_5 
REMARK       I    between atoms: N_6  and  C_7 
REMARK    2  A    between atoms: C_7  and  C_8 
REMARK    3  A    between atoms: C_8  and  C_9 
REMARK    4  A    between atoms: C_11  and  O_12 
REMARK    5  A    between atoms: C_14  and  O_15 
ROOT
HETATM    1  C   UNL     1      40.978 -14.108   3.946  1.00  0.00     0.189 C 
HETATM    2  N   UNL     1      40.634 -13.754   2.541  1.00  0.00    -0.336 N 
HETATM    3  C   UNL     1      41.467 -12.894   1.821  1.00  0.00     0.225 C 
HETATM    4  O   UNL     1      42.453 -12.336   2.305  1.00  0.00    -0.273 OA
HETATM    5  C   UNL     1      39.907 -14.841   1.852  1.00  0.00     0.132 C 
HETATM    6  C   UNL     1      40.828 -16.064   1.620  1.00  0.00     0.061 C 
HETATM    7  C   UNL     1      41.716 -16.286   2.806  1.00  0.00    -0.019 A 
HETATM    8  C   UNL     1      41.796 -15.376   3.850  1.00  0.00     0.046 A 
HETATM    9  N   UNL     1      42.667 -15.880   4.777  1.00  0.00    -0.356 N 
HETATM   10  H   UNL     1      42.900 -15.452   5.664  1.00  0.00     0.166 HD
HETATM   11  C   UNL     1      43.228 -17.049   4.304  1.00  0.00     0.043 A 
HETATM   12  C   UNL     1      42.634 -17.334   3.072  1.00  0.00    -0.001 A 
HETATM   13  C   UNL     1      44.211 -17.871   4.870  1.00  0.00     0.030 A 
HETATM   14  C   UNL     1      44.594 -19.011   4.156  1.00  0.00     0.002 A 
HETATM   15  C   UNL     1      44.012 -19.322   2.929  1.00  0.00     0.001 A 
HETATM   16  C   UNL     1      43.029 -18.493   2.377  1.00  0.00     0.014 A 
ENDROOT
BRANCH   1  17
HETATM   17  C   UNL     1      41.420 -12.983   4.880  1.00  0.00     0.063 A 
HETATM   18  N   UNL     1      42.700 -13.066   5.348  1.00  0.00    -0.256 NA
HETATM   19  C   UNL     1      43.149 -12.104   6.189  1.00  0.00     0.031 A 
HETATM   20  C   UNL     1      44.545 -12.248   6.715  1.00  0.00     0.070 C 
HETATM   21  C   UNL     1      42.366 -11.023   6.575  1.00  0.00     0.027 A 
HETATM   22  C   UNL     1      41.067 -10.938   6.093  1.00  0.00     0.004 A 
HETATM   23  C   UNL     1      40.584 -11.929   5.243  1.00  0.00     0.030 A 
ENDBRANCH   1  17
BRANCH   3  24
HETATM   24  C   UNL     1      41.152 -12.643   0.351  1.00  0.00     0.141 C 
BRANCH  24  25
HETATM   25  C   UNL     1      39.853 -11.928   0.059  1.00  0.00    -0.047 A 
HETATM   26  C   UNL     1      38.975 -12.357  -0.948  1.00  0.00     0.047 A 
HETATM   27  C   UNL     1      37.774 -11.678  -1.194  1.00  0.00     0.102 A 
HETATM   28  C   UNL     1      37.425 -10.571  -0.396  1.00  0.00     0.101 A 
HETATM   29  C   UNL     1      38.283 -10.163   0.629  1.00  0.00     0.040 A 
HETATM   30  C   UNL     1      39.483 -10.839   0.856  1.00  0.00     0.010 A 
BRANCH  27  31
HETATM   31  O   UNL     1      36.879 -12.025  -2.176  1.00  0.00    -0.353 OA
HETATM   32  C   UNL     1      37.095 -13.259  -2.848  1.00  0.00     0.210 C 
ENDBRANCH  27  31
BRANCH  28  33
HETATM   33  O   UNL     1      36.231  -9.960  -0.693  1.00  0.00    -0.353 OA
HETATM   34  C   UNL     1      35.420  -9.540   0.394  1.00  0.00     0.210 C 
ENDBRANCH  28  33
ENDBRANCH  24  25
ENDBRANCH   3  24
TORSDOF 5
ENDMDL
MODEL 5
REMARK VINA RESULT:      -9.0      2.349      7.881
REMARK  5 active torsions:
REMARK  status: ('A' for Active; 'I' for Inactive)
REMARK    1  A    between atoms: C_4  and  C_5 
REMARK       I    between atoms: N_6  and  C_7 
REMARK    2  A    between atoms: C_7  and  C_8 
REMARK    3  A    between atoms: C_8  and  C_9 
REMARK    4  A    between atoms: C_11  and  O_12 
REMARK    5  A    between atoms: C_14  and  O_15 
ROOT
HETATM    1  C   UNL     1      43.058 -13.418   3.142  1.00  0.00     0.189 C 
HETATM    2  N   UNL     1      41.909 -12.842   2.391  1.00  0.00    -0.336 N 
HETATM    3  C   UNL     1      40.625 -13.355   2.590  1.00  0.00     0.225 C 
HETATM    4  O   UNL     1      40.383 -14.325   3.309  1.00  0.00    -0.273 OA
HETATM    5  C   UNL     1      42.103 -11.408   2.085  1.00  0.00     0.132 C 
HETATM    6  C   UNL     1      42.053 -10.556   3.377  1.00  0.00     0.061 C 
HETATM    7  C   UNL     1      42.747 -11.261   4.502  1.00  0.00    -0.019 A 
HETATM    8  C   UNL     1      43.180 -12.575   4.393  1.00  0.00     0.046 A 
HETATM    9  N   UNL     1      43.789 -12.912   5.570  1.00  0.00    -0.356 N 
HETATM   10  H   UNL     1      44.234 -13.798   5.775  1.00  0.00     0.166 HD
HETATM   11  C   UNL     1      43.668 -11.875   6.473  1.00  0.00     0.043 A 
HETATM   12  C   UNL     1      43.029 -10.819   5.819  1.00  0.00    -0.001 A 
HETATM   13  C   UNL     1      44.072 -11.792   7.811  1.00  0.00     0.030 A 
HETATM   14  C   UNL     1      43.816 -10.599   8.495  1.00  0.00     0.002 A 
HETATM   15  C   UNL     1      43.188  -9.528   7.863  1.00  0.00     0.001 A 
HETATM   16  C   UNL     1      42.791  -9.624   6.525  1.00  0.00     0.014 A 
ENDROOT
BRANCH   1  17
HETATM   17  C   UNL     1      43.164 -14.938   3.234  1.00  0.00     0.063 A 
HETATM   18  N   UNL     1      43.167 -15.461   4.495  1.00  0.00    -0.256 NA
HETATM   19  C   UNL     1      43.269 -16.803   4.644  1.00  0.00     0.031 A 
HETATM   20  C   UNL     1      43.310 -17.339   6.043  1.00  0.00     0.070 C 
HETATM   21  C   UNL     1      43.346 -17.671   3.562  1.00  0.00     0.027 A 
HETATM   22  C   UNL     1      43.337 -17.139   2.280  1.00  0.00     0.004 A 
HETATM   23  C   UNL     1      43.251 -15.760   2.111  1.00  0.00     0.030 A 
ENDBRANCH   1  17
BRANCH   3  24
HETATM   24  C   UNL     1      39.455 -12.669   1.894  1.00  0.00     0.141 C 
BRANCH  24  25
HETATM   25  C   UNL     1      39.287 -12.966   0.421  1.00  0.00    -0.047 A 
HETATM   26  C   UNL     1      38.690 -12.051  -0.460  1.00  0.00     0.047 A 
HETATM   27  C   UNL     1      38.552 -12.350  -1.822  1.00  0.00     0.102 A 
HETATM   28  C   UNL     1      39.052 -13.568  -2.323  1.00  0.00     0.101 A 
HETATM   29  C   UNL     1      39.678 -14.464  -1.452  1.00  0.00     0.040 A 
HETATM   30  C   UNL     1      39.797 -14.163  -0.094  1.00  0.00     0.010 A 
BRANCH  27  31
HETATM   31  O   UNL     1      37.958 -11.516  -2.738  1.00  0.00    -0.353 OA
HETATM   32  C   UNL     1      36.766 -10.853  -2.339  1.00  0.00     0.210 C 
ENDBRANCH  27  31
BRANCH  28  33
HETATM   33  O   UNL     1      38.885 -13.787  -3.668  1.00  0.00    -0.353 OA
HETATM   34  C   UNL     1      37.980 -14.808  -4.060  1.00  0.00     0.210 C 
ENDBRANCH  28  33
ENDBRANCH  24  25
ENDBRANCH   3  24
TORSDOF 5
ENDMDL
MODEL 6
REMARK VINA RESULT:      -8.9      2.910      6.008
REMARK  5 active torsions:
REMARK  status: ('A' for Active; 'I' for Inactive)
REMARK    1  A    between atoms: C_4  and  C_5 
REMARK       I    between atoms: N_6  and  C_7 
REMARK    2  A    between atoms: C_7  and  C_8 
REMARK    3  A    between atoms: C_8  and  C_9 
REMARK    4  A    between atoms: C_11  and  O_12 
REMARK    5  A    between atoms: C_14  and  O_15 
ROOT
HETATM    1  C   UNL     1      40.827 -12.114   1.063  1.00  0.00     0.189 C 
HETATM    2  N   UNL     1      40.797 -13.585   1.289  1.00  0.00    -0.336 N 
HETATM    3  C   UNL     1      40.062 -14.106   2.356  1.00  0.00     0.225 C 
HETATM    4  O   UNL     1      39.480 -13.408   3.189  1.00  0.00    -0.273 OA
HETATM    5  C   UNL     1      40.930 -14.347   0.030  1.00  0.00     0.132 C 
HETATM    6  C   UNL     1      39.674 -14.171  -0.859  1.00  0.00     0.061 C 
HETATM    7  C   UNL     1      39.179 -12.759  -0.797  1.00  0.00    -0.019 A 
HETATM    8  C   UNL     1      39.695 -11.834   0.101  1.00  0.00     0.046 A 
HETATM    9  N   UNL     1      39.053 -10.645  -0.112  1.00  0.00    -0.356 N 
HETATM   10  H   UNL     1      39.242  -9.776   0.371  1.00  0.00     0.166 HD
HETATM   11  C   UNL     1      38.063 -10.809  -1.060  1.00  0.00     0.043 A 
HETATM   12  C   UNL     1      38.133 -12.128  -1.517  1.00  0.00    -0.001 A 
HETATM   13  C   UNL     1      37.117  -9.898  -1.543  1.00  0.00     0.030 A 
HETATM   14  C   UNL     1      36.221 -10.348  -2.519  1.00  0.00     0.002 A 
HETATM   15  C   UNL     1      36.274 -11.655  -2.997  1.00  0.00     0.001 A 
HETATM   16  C   UNL     1      37.226 -12.554  -2.506  1.00  0.00     0.014 A 
ENDROOT
BRANCH   1  17
HETATM   17  C   UNL     1      41.041 -11.207   2.273  1.00  0.00     0.063 A 
HETATM   18  N   UNL     1      39.980 -10.422   2.625  1.00  0.00    -0.256 NA
HETATM   19  C   UNL     1      40.110  -9.587   3.684  1.00  0.00     0.031 A 
HETATM   20  C   UNL     1      38.940  -8.711   4.016  1.00  0.00     0.070 C 
HETATM   21  C   UNL     1      41.272  -9.518   4.442  1.00  0.00     0.027 A 
HETATM   22  C   UNL     1      42.347 -10.322   4.088  1.00  0.00     0.004 A 
HETATM   23  C   UNL     1      42.235 -11.170   2.990  1.00  0.00     0.030 A 
ENDBRANCH   1  17
BRANCH   3  24
HETATM   24  C   UNL     1      39.957 -15.621   2.493  1.00  0.00     0.141 C 
BRANCH  24  25
HETATM   25  C   UNL     1      41.151 -16.321   3.100  1.00  0.00    -0.047 A 
HETATM   26  C   UNL     1      41.456 -16.224   4.466  1.00  0.00     0.047 A 
HETATM   27  C   UNL     1      42.566 -16.889   5.004  1.00  0.00     0.102 A 
HETATM   28  C   UNL     1      43.367 -17.694   4.171  1.00  0.00     0.101 A 
HETATM   29  C   UNL     1      43.044 -17.818   2.817  1.00  0.00     0.040 A 
HETATM   30  C   UNL     1      41.943 -17.141   2.288  1.00  0.00     0.010 A 
BRANCH  27  31
HETATM   31  O   UNL     1      42.940 -16.822   6.324  1.00  0.00    -0.353 OA
HETATM   32  C   UNL     1      42.148 -16.014   7.186  1.00  0.00     0.210 C 
ENDBRANCH  27  31
BRANCH  28  33
HETATM   33  O   UNL     1      44.434 -18.318   4.771  1.00  0.00    -0.353 OA
HETATM   34  C   UNL     1      44.380 -19.730   4.903  1.00  0.00     0.210 C 
ENDBRANCH  28  33
ENDBRANCH  24  25
ENDBRANCH   3  24
TORSDOF 5
ENDMDL
MODEL 7
REMARK VINA RESULT:      -8.6      2.209      7.878
REMARK  5 active torsions:
REMARK  status: ('A' for Active; 'I' for Inactive)
REMARK    1  A    between atoms: C_4  and  C_5 
REMARK       I    between atoms: N_6  and  C_7 
REMARK    2  A    between atoms: C_7  and  C_8 
REMARK    3  A    between atoms: C_8  and  C_9 
REMARK    4  A    between atoms: C_11  and  O_12 
REMARK    5  A    between atoms: C_14  and  O_15 
ROOT
HETATM    1  C   UNL     1      43.138 -13.194   5.307  1.00  0.00     0.189 C 
HETATM    2  N   UNL     1      42.028 -12.819   4.389  1.00  0.00    -0.336 N 
HETATM    3  C   UNL     1      40.727 -13.246   4.666  1.00  0.00     0.225 C 
HETATM    4  O   UNL     1      40.440 -13.993   5.603  1.00  0.00    -0.273 OA
HETATM    5  C   UNL     1      42.263 -11.517   3.729  1.00  0.00     0.132 C 
HETATM    6  C   UNL     1      42.190 -10.357   4.752  1.00  0.00     0.061 C 
HETATM    7  C   UNL     1      42.830 -10.754   6.046  1.00  0.00    -0.019 A 
HETATM    8  C   UNL     1      43.237 -12.056   6.299  1.00  0.00     0.046 A 
HETATM    9  N   UNL     1      43.800 -12.083   7.546  1.00  0.00    -0.356 N 
HETATM   10  H   UNL     1      44.218 -12.890   7.990  1.00  0.00     0.166 HD
HETATM   11  C   UNL     1      43.672 -10.845   8.143  1.00  0.00     0.043 A 
HETATM   12  C   UNL     1      43.079  -9.987   7.213  1.00  0.00    -0.001 A 
HETATM   13  C   UNL     1      44.034 -10.421   9.428  1.00  0.00     0.030 A 
HETATM   14  C   UNL     1      43.782  -9.088   9.767  1.00  0.00     0.002 A 
HETATM   15  C   UNL     1      43.198  -8.210   8.856  1.00  0.00     0.001 A 
HETATM   16  C   UNL     1      42.844  -8.647   7.575  1.00  0.00     0.014 A 
ENDROOT
BRANCH   1  17
HETATM   17  C   UNL     1      43.208 -14.639   5.794  1.00  0.00     0.063 A 
HETATM   18  N   UNL     1      43.411 -15.584   4.830  1.00  0.00    -0.256 NA
HETATM   19  C   UNL     1      43.472 -16.887   5.197  1.00  0.00     0.031 A 
HETATM   20  C   UNL     1      43.657 -17.900   4.108  1.00  0.00     0.070 C 
HETATM   21  C   UNL     1      43.361 -17.297   6.519  1.00  0.00     0.027 A 
HETATM   22  C   UNL     1      43.160 -16.334   7.499  1.00  0.00     0.004 A 
HETATM   23  C   UNL     1      43.076 -14.993   7.136  1.00  0.00     0.030 A 
ENDBRANCH   1  17
BRANCH   3  24
HETATM   24  C   UNL     1      39.596 -12.750   3.772  1.00  0.00     0.141 C 
BRANCH  24  25
HETATM   25  C   UNL     1      39.673 -13.148   2.316  1.00  0.00    -0.047 A 
HETATM   26  C   UNL     1      39.473 -12.224   1.279  1.00  0.00     0.047 A 
HETATM   27  C   UNL     1      39.555 -12.618  -0.063  1.00  0.00     0.102 A 
HETATM   28  C   UNL     1      39.879 -13.952  -0.378  1.00  0.00     0.101 A 
HETATM   29  C   UNL     1      40.112 -14.866   0.654  1.00  0.00     0.040 A 
HETATM   30  C   UNL     1      40.014 -14.465   1.988  1.00  0.00     0.010 A 
BRANCH  27  31
HETATM   31  O   UNL     1      39.348 -11.776  -1.128  1.00  0.00    -0.353 OA
HETATM   32  C   UNL     1      38.029 -11.284  -1.325  1.00  0.00     0.210 C 
ENDBRANCH  27  31
BRANCH  28  33
HETATM   33  O   UNL     1      39.947 -14.262  -1.714  1.00  0.00    -0.353 OA
HETATM   34  C   UNL     1      38.859 -14.979  -2.278  1.00  0.00     0.210 C 
ENDBRANCH  28  33
ENDBRANCH  24  25
ENDBRANCH   3  24
TORSDOF 5
ENDMDL
MODEL 8
REMARK VINA RESULT:      -8.5      2.694      7.062
REMARK  5 active torsions:
REMARK  status: ('A' for Active; 'I' for Inactive)
REMARK    1  A    between atoms: C_4  and  C_5 
REMARK       I    between atoms: N_6  and  C_7 
REMARK    2  A    between atoms: C_7  and  C_8 
REMARK    3  A    between atoms: C_8  and  C_9 
REMARK    4  A    between atoms: C_11  and  O_12 
REMARK    5  A    between atoms: C_14  and  O_15 
ROOT
HETATM    1  C   UNL     1      42.025 -12.327   5.810  1.00  0.00     0.189 C 
HETATM    2  N   UNL     1      41.148 -11.508   4.929  1.00  0.00    -0.336 N 
HETATM    3  C   UNL     1      41.721 -10.658   3.980  1.00  0.00     0.225 C 
HETATM    4  O   UNL     1      42.935 -10.481   3.869  1.00  0.00    -0.273 OA
HETATM    5  C   UNL     1      39.855 -12.169   4.657  1.00  0.00     0.132 C 
HETATM    6  C   UNL     1      40.051 -13.426   3.774  1.00  0.00     0.061 C 
HETATM    7  C   UNL     1      41.288 -14.167   4.178  1.00  0.00    -0.019 A 
HETATM    8  C   UNL     1      42.195 -13.646   5.090  1.00  0.00     0.046 A 
HETATM    9  N   UNL     1      43.191 -14.568   5.260  1.00  0.00    -0.356 N 
HETATM   10  H   UNL     1      43.977 -14.482   5.892  1.00  0.00     0.166 HD
HETATM   11  C   UNL     1      42.997 -15.631   4.400  1.00  0.00     0.043 A 
HETATM   12  C   UNL     1      41.797 -15.408   3.720  1.00  0.00    -0.001 A 
HETATM   13  C   UNL     1      43.788 -16.764   4.173  1.00  0.00     0.030 A 
HETATM   14  C   UNL     1      43.338 -17.691   3.227  1.00  0.00     0.002 A 
HETATM   15  C   UNL     1      42.142 -17.497   2.541  1.00  0.00     0.001 A 
HETATM   16  C   UNL     1      41.361 -16.361   2.779  1.00  0.00     0.014 A 
ENDROOT
BRANCH   1  17
HETATM   17  C   UNL     1      43.233 -11.647   6.450  1.00  0.00     0.063 A 
HETATM   18  N   UNL     1      42.957 -10.594   7.275  1.00  0.00    -0.256 NA
HETATM   19  C   UNL     1      43.986  -9.942   7.866  1.00  0.00     0.031 A 
HETATM   20  C   UNL     1      43.648  -8.766   8.733  1.00  0.00     0.070 C 
HETATM   21  C   UNL     1      45.311 -10.317   7.686  1.00  0.00     0.027 A 
HETATM   22  C   UNL     1      45.590 -11.392   6.852  1.00  0.00     0.004 A 
HETATM   23  C   UNL     1      44.544 -12.060   6.222  1.00  0.00     0.030 A 
ENDBRANCH   1  17
BRANCH   3  24
HETATM   24  C   UNL     1      40.797  -9.921   3.017  1.00  0.00     0.141 C 
BRANCH  24  25
HETATM   25  C   UNL     1      40.948 -10.265   1.553  1.00  0.00    -0.047 A 
HETATM   26  C   UNL     1      41.337  -9.311   0.600  1.00  0.00     0.047 A 
HETATM   27  C   UNL     1      41.474  -9.658  -0.751  1.00  0.00     0.102 A 
HETATM   28  C   UNL     1      41.254 -10.990  -1.154  1.00  0.00     0.101 A 
HETATM   29  C   UNL     1      40.899 -11.948  -0.199  1.00  0.00     0.040 A 
HETATM   30  C   UNL     1      40.752 -11.588   1.141  1.00  0.00     0.010 A 
BRANCH  27  31
HETATM   31  O   UNL     1      41.829  -8.776  -1.742  1.00  0.00    -0.353 OA
HETATM   32  C   UNL     1      43.049  -8.065  -1.577  1.00  0.00     0.210 C 
ENDBRANCH  27  31
BRANCH  28  33
HETATM   33  O   UNL     1      41.413 -11.255  -2.492  1.00  0.00    -0.353 OA
HETATM   34  C   UNL     1      40.840 -12.451  -2.997  1.00  0.00     0.210 C 
ENDBRANCH  28  33
ENDBRANCH  24  25
ENDBRANCH   3  24
TORSDOF 5
ENDMDL
MODEL 9
REMARK VINA RESULT:      -8.3     16.983     19.505
REMARK  5 active torsions:
REMARK  status: ('A' for Active; 'I' for Inactive)
REMARK    1  A    between atoms: C_4  and  C_5 
REMARK       I    between atoms: N_6  and  C_7 
REMARK    2  A    between atoms: C_7  and  C_8 
REMARK    3  A    between atoms: C_8  and  C_9 
REMARK    4  A    between atoms: C_11  and  O_12 
REMARK    5  A    between atoms: C_14  and  O_15 
ROOT
HETATM    1  C   UNL     1      45.640 -29.907   1.787  1.00  0.00     0.189 C 
HETATM    2  N   UNL     1      47.097 -29.665   1.969  1.00  0.00    -0.336 N 
HETATM    3  C   UNL     1      48.000 -30.714   1.781  1.00  0.00     0.225 C 
HETATM    4  O   UNL     1      47.659 -31.873   1.541  1.00  0.00    -0.273 OA
HETATM    5  C   UNL     1      47.480 -28.278   1.631  1.00  0.00     0.132 C 
HETATM    6  C   UNL     1      47.337 -28.019   0.111  1.00  0.00     0.061 C 
HETATM    7  C   UNL     1      46.109 -28.690  -0.424  1.00  0.00    -0.019 A 
HETATM    8  C   UNL     1      45.355 -29.569   0.341  1.00  0.00     0.046 A 
HETATM    9  N   UNL     1      44.299 -29.985  -0.423  1.00  0.00    -0.356 N 
HETATM   10  H   UNL     1      43.558 -30.605  -0.120  1.00  0.00     0.166 HD
HETATM   11  C   UNL     1      44.412 -29.471  -1.699  1.00  0.00     0.043 A 
HETATM   12  C   UNL     1      45.535 -28.640  -1.720  1.00  0.00    -0.001 A 
HETATM   13  C   UNL     1      43.612 -29.677  -2.829  1.00  0.00     0.030 A 
HETATM   14  C   UNL     1      43.970 -29.016  -4.008  1.00  0.00     0.002 A 
HETATM   15  C   UNL     1      45.081 -28.176  -4.055  1.00  0.00     0.001 A 
HETATM   16  C   UNL     1      45.870 -27.978  -2.917  1.00  0.00     0.014 A 
ENDROOT
BRANCH   1  17
HETATM   17  C   UNL     1      45.040 -31.167   2.408  1.00  0.00     0.063 A 
HETATM   18  N   UNL     1      44.488 -32.059   1.532  1.00  0.00    -0.256 NA
HETATM   19  C   UNL     1      43.930 -33.191   2.021  1.00  0.00     0.031 A 
HETATM   20  C   UNL     1      43.299 -34.128   1.036  1.00  0.00     0.070 C 
HETATM   21  C   UNL     1      43.919 -33.494   3.377  1.00  0.00     0.027 A 
HETATM   22  C   UNL     1      44.485 -32.589   4.265  1.00  0.00     0.004 A 
HETATM   23  C   UNL     1      45.045 -31.411   3.780  1.00  0.00     0.030 A 
ENDBRANCH   1  17
BRANCH   3  24
HETATM   24  C   UNL     1      49.492 -30.408   1.861  1.00  0.00     0.141 C 
BRANCH  24  25
HETATM   25  C   UNL     1      50.310 -30.748   0.636  1.00  0.00    -0.047 A 
HETATM   26  C   UNL     1      51.314 -31.728   0.659  1.00  0.00     0.047 A 
HETATM   27  C   UNL     1      52.054 -32.028  -0.492  1.00  0.00     0.102 A 
HETATM   28  C   UNL     1      51.763 -31.363  -1.700  1.00  0.00     0.101 A 
HETATM   29  C   UNL     1      50.740 -30.411  -1.731  1.00  0.00     0.040 A 
HETATM   30  C   UNL     1      50.019 -30.110  -0.575  1.00  0.00     0.010 A 
BRANCH  27  31
HETATM   31  O   UNL     1      53.065 -32.957  -0.539  1.00  0.00    -0.353 OA
HETATM   32  C   UNL     1      52.701 -34.324  -0.403  1.00  0.00     0.210 C 
ENDBRANCH  27  31
BRANCH  28  33
HETATM   33  O   UNL     1      52.526 -31.714  -2.786  1.00  0.00    -0.353 OA
HETATM   34  C   UNL     1      51.896 -32.456  -3.819  1.00  0.00     0.210 C 
ENDBRANCH  28  33
ENDBRANCH  24  25
ENDBRANCH   3  24
TORSDOF 5
ENDMDL
MODEL 10
REMARK VINA RESULT:      -8.3      2.884      6.051
REMARK  5 active torsions:
REMARK  status: ('A' for Active; 'I' for Inactive)
REMARK    1  A    between atoms: C_4  and  C_5 
REMARK       I    between atoms: N_6  and  C_7 
REMARK    2  A    between atoms: C_7  and  C_8 
REMARK    3  A    between atoms: C_8  and  C_9 
REMARK    4  A    between atoms: C_11  and  O_12 
REMARK    5  A    between atoms: C_14  and  O_15 
ROOT
HETATM    1  C   UNL     1      40.443 -12.184   0.647  1.00  0.00     0.189 C 
HETATM    2  N   UNL     1      40.486 -13.629   1.004  1.00  0.00    -0.336 N 
HETATM    3  C   UNL     1      39.764 -14.090   2.107  1.00  0.00     0.225 C 
HETATM    4  O   UNL     1      39.137 -13.352   2.869  1.00  0.00    -0.273 OA
HETATM    5  C   UNL     1      40.674 -14.492  -0.181  1.00  0.00     0.132 C 
HETATM    6  C   UNL     1      39.423 -14.461  -1.093  1.00  0.00     0.061 C 
HETATM    7  C   UNL     1      38.855 -13.077  -1.162  1.00  0.00    -0.019 A 
HETATM    8  C   UNL     1      39.311 -12.051  -0.346  1.00  0.00     0.046 A 
HETATM    9  N   UNL     1      38.613 -10.920  -0.670  1.00  0.00    -0.356 N 
HETATM   10  H   UNL     1      38.751 -10.003  -0.265  1.00  0.00     0.166 HD
HETATM   11  C   UNL     1      37.645 -11.219  -1.607  1.00  0.00     0.043 A 
HETATM   12  C   UNL     1      37.788 -12.568  -1.944  1.00  0.00    -0.001 A 
HETATM   13  C   UNL     1      36.660 -10.405  -2.179  1.00  0.00     0.030 A 
HETATM   14  C   UNL     1      35.800 -10.986  -3.118  1.00  0.00     0.002 A 
HETATM   15  C   UNL     1      35.926 -12.326  -3.477  1.00  0.00     0.001 A 
HETATM   16  C   UNL     1      36.917 -13.127  -2.899  1.00  0.00     0.014 A 
ENDROOT
BRANCH   1  17
HETATM   17  C   UNL     1      40.595 -11.164   1.773  1.00  0.00     0.063 A 
HETATM   18  N   UNL     1      41.658 -11.351   2.609  1.00  0.00    -0.256 NA
HETATM   19  C   UNL     1      41.841 -10.485   3.634  1.00  0.00     0.031 A 
HETATM   20  C   UNL     1      42.995 -10.745   4.555  1.00  0.00     0.070 C 
HETATM   21  C   UNL     1      41.004  -9.399   3.854  1.00  0.00     0.027 A 
HETATM   22  C   UNL     1      39.927  -9.206   2.999  1.00  0.00     0.004 A 
HETATM   23  C   UNL     1      39.714 -10.099   1.953  1.00  0.00     0.030 A 
ENDBRANCH   1  17
BRANCH   3  24
HETATM   24  C   UNL     1      39.735 -15.590   2.378  1.00  0.00     0.141 C 
BRANCH  24  25
HETATM   25  C   UNL     1      40.829 -16.130   3.270  1.00  0.00    -0.047 A 
HETATM   26  C   UNL     1      41.912 -16.862   2.760  1.00  0.00     0.047 A 
HETATM   27  C   UNL     1      42.917 -17.346   3.609  1.00  0.00     0.102 A 
HETATM   28  C   UNL     1      42.860 -17.063   4.988  1.00  0.00     0.101 A 
HETATM   29  C   UNL     1      41.799 -16.304   5.491  1.00  0.00     0.040 A 
HETATM   30  C   UNL     1      40.796 -15.839   4.638  1.00  0.00     0.010 A 
BRANCH  27  31
HETATM   31  O   UNL     1      43.992 -18.089   3.186  1.00  0.00    -0.353 OA
HETATM   32  C   UNL     1      43.719 -19.343   2.576  1.00  0.00     0.210 C 
ENDBRANCH  27  31
BRANCH  28  33
HETATM   33  O   UNL     1      43.882 -17.565   5.755  1.00  0.00    -0.353 OA
HETATM   34  C   UNL     1      44.459 -16.705   6.726  1.00  0.00     0.210 C 
ENDBRANCH  28  33
ENDBRANCH  24  25
ENDBRANCH   3  24
TORSDOF 5
ENDMDL
