MODEL 1
REMARK VINA RESULT:      -9.0      0.000      0.000
REMARK  8 active torsions:
REMARK  status: ('A' for Active; 'I' for Inactive)
REMARK    1  A    between atoms: O_2  and  C_3 
REMARK    2  A    between atoms: C_7  and  C_8 
REMARK       I    between atoms: C_8  and  N_9 
REMARK    3  A    between atoms: N_9  and  C_10 
REMARK    4  A    between atoms: C_10  and  N_11 
REMARK    5  A    between atoms: N_11  and  C_12 
REMARK    6  A    between atoms: C_15  and  N_16 
REMARK    7  A    between atoms: N_19  and  C_21 
REMARK    8  A    between atoms: C_21  and  C_22 
ROOT
HETATM    1  C   UNL     1      40.668 -12.134   1.937  1.00  0.00     0.034 A 
HETATM    2  C   UNL     1      40.000 -12.318   3.147  1.00  0.00     0.032 A 
HETATM    3  C   UNL     1      40.620 -11.977   4.353  1.00  0.00     0.031 A 
HETATM    4  C   UNL     1      41.918 -11.445   4.386  1.00  0.00     0.030 A 
HETATM    5  C   UNL     1      42.572 -11.254   3.164  1.00  0.00     0.031 A 
HETATM    6  C   UNL     1      41.950 -11.585   1.947  1.00  0.00     0.032 A 
ENDROOT
BRANCH   1   7
HETATM    7  N   UNL     1      39.997 -12.525   0.754  1.00  0.00    -0.333 N 
HETATM    8  H   UNL     1      38.994 -12.391   0.800  1.00  0.00     0.168 HD
BRANCH   7   9
HETATM    9  C   UNL     1      40.368 -13.584  -0.019  1.00  0.00     0.179 C 
HETATM   10  S   UNL     1      40.149 -13.588  -1.676  1.00  0.00    -0.040 SA
BRANCH   9  11
HETATM   11  N   UNL     1      41.157 -14.558   0.543  1.00  0.00    -0.299 N 
HETATM   12  C   UNL     1      40.766 -15.615   1.356  1.00  0.00     0.257 C 
HETATM   13  O   UNL     1      39.672 -16.168   1.279  1.00  0.00    -0.267 OA
HETATM   14  H   UNL     1      42.132 -14.309   0.500  1.00  0.00     0.171 HD
BRANCH  12  15
HETATM   15  C   UNL     1      41.767 -16.137   2.344  1.00  0.00     0.034 A 
HETATM   16  C   UNL     1      42.321 -17.423   2.310  1.00  0.00     0.044 A 
HETATM   17  C   UNL     1      43.294 -17.825   3.252  1.00  0.00     0.068 A 
HETATM   18  C   UNL     1      43.732 -16.936   4.242  1.00  0.00     0.089 A 
HETATM   19 CL   UNL     1      43.832 -19.460   3.081  1.00  0.00    -0.081 Cl
HETATM   20  C   UNL     1      43.158 -15.658   4.278  1.00  0.00     0.039 A 
HETATM   21  C   UNL     1      42.193 -15.262   3.348  1.00  0.00     0.020 A 
BRANCH  18  22
HETATM   22  O   UNL     1      44.642 -17.098   5.247  1.00  0.00    -0.354 OA
HETATM   23  C   UNL     1      44.459 -16.465   6.501  1.00  0.00     0.210 C 
ENDBRANCH  18  22
ENDBRANCH  12  15
ENDBRANCH   9  11
ENDBRANCH   7   9
ENDBRANCH   1   7
BRANCH   4  24
HETATM   24  N   UNL     1      42.475 -11.140   5.634  1.00  0.00    -0.378 N 
HETATM   25  C   UNL     1      41.630 -10.469   6.633  1.00  0.00     0.150 C 
HETATM   26  C   UNL     1      42.539  -9.842   7.718  1.00  0.00     0.255 C 
HETATM   27  N   UNL     1      43.470 -10.891   8.341  1.00  0.00    -0.064 N 
HETATM   28  H   UNL     1      42.878 -11.555   8.857  1.00  0.00     0.280 HD
HETATM   29  C   UNL     1      44.231 -11.678   7.270  1.00  0.00     0.255 C 
HETATM   30  C   UNL     1      43.290 -12.239   6.186  1.00  0.00     0.150 C 
BRANCH  27  31
HETATM   31  C   UNL     1      44.443 -10.299   9.334  1.00  0.00     0.276 C 
BRANCH  31  32
HETATM   32  C   UNL     1      43.838  -9.821  10.619  1.00  0.00     0.006 A 
HETATM   33  C   UNL     1      43.606  -8.457  10.818  1.00  0.00     0.124 A 
HETATM   34  F   UNL     1      43.995  -7.589   9.871  1.00  0.00    -0.206 F 
HETATM   35  C   UNL     1      43.002  -7.984  11.977  1.00  0.00     0.043 A 
HETATM   36  C   UNL     1      42.619  -8.887  12.966  1.00  0.00     0.003 A 
HETATM   37  C   UNL     1      42.846 -10.252  12.791  1.00  0.00     0.001 A 
HETATM   38  C   UNL     1      43.450 -10.721  11.622  1.00  0.00     0.012 A 
ENDBRANCH  31  32
ENDBRANCH  27  31
ENDBRANCH   4  24
TORSDOF 8
ENDMDL
MODEL 2
REMARK VINA RESULT:      -8.9      1.400      1.816
REMARK  8 active torsions:
REMARK  status: ('A' for Active; 'I' for Inactive)
REMARK    1  A    between atoms: O_2  and  C_3 
REMARK    2  A    between atoms: C_7  and  C_8 
REMARK       I    between atoms: C_8  and  N_9 
REMARK    3  A    between atoms: N_9  and  C_10 
REMARK    4  A    between atoms: C_10  and  N_11 
REMARK    5  A    between atoms: N_11  and  C_12 
REMARK    6  A    between atoms: C_15  and  N_16 
REMARK    7  A    between atoms: N_19  and  C_21 
REMARK    8  A    between atoms: C_21  and  C_22 
ROOT
HETATM    1  C   UNL     1      41.879 -12.539   2.108  1.00  0.00     0.034 A 
HETATM    2  C   UNL     1      43.113 -12.804   2.701  1.00  0.00     0.032 A 
HETATM    3  C   UNL     1      43.405 -12.306   3.974  1.00  0.00     0.031 A 
HETATM    4  C   UNL     1      42.478 -11.531   4.689  1.00  0.00     0.030 A 
HETATM    5  C   UNL     1      41.238 -11.284   4.088  1.00  0.00     0.031 A 
HETATM    6  C   UNL     1      40.935 -11.792   2.812  1.00  0.00     0.032 A 
ENDROOT
BRANCH   1   7
HETATM    7  N   UNL     1      41.655 -13.049   0.807  1.00  0.00    -0.333 N 
HETATM    8  H   UNL     1      41.528 -12.324   0.110  1.00  0.00     0.168 HD
BRANCH   7   9
HETATM    9  C   UNL     1      40.950 -14.184   0.544  1.00  0.00     0.179 C 
HETATM   10  S   UNL     1      39.806 -14.251  -0.673  1.00  0.00    -0.040 SA
BRANCH   9  11
HETATM   11  N   UNL     1      41.360 -15.358   1.126  1.00  0.00    -0.299 N 
HETATM   12  C   UNL     1      41.014 -15.863   2.374  1.00  0.00     0.257 C 
HETATM   13  O   UNL     1      39.932 -15.659   2.918  1.00  0.00    -0.267 OA
HETATM   14  H   UNL     1      42.154 -15.747   0.644  1.00  0.00     0.171 HD
BRANCH  12  15
HETATM   15  C   UNL     1      42.007 -16.754   3.061  1.00  0.00     0.034 A 
HETATM   16  C   UNL     1      42.328 -16.684   4.422  1.00  0.00     0.044 A 
HETATM   17  C   UNL     1      43.243 -17.589   5.005  1.00  0.00     0.068 A 
HETATM   18  C   UNL     1      43.846 -18.587   4.228  1.00  0.00     0.089 A 
HETATM   19 CL   UNL     1      43.548 -17.325   6.687  1.00  0.00    -0.081 Cl
HETATM   20  C   UNL     1      43.531 -18.636   2.863  1.00  0.00     0.039 A 
HETATM   21  C   UNL     1      42.628 -17.738   2.286  1.00  0.00     0.020 A 
BRANCH  18  22
HETATM   22  O   UNL     1      44.749 -19.554   4.562  1.00  0.00    -0.354 OA
HETATM   23  C   UNL     1      44.345 -20.708   5.278  1.00  0.00     0.210 C 
ENDBRANCH  18  22
ENDBRANCH  12  15
ENDBRANCH   9  11
ENDBRANCH   7   9
ENDBRANCH   1   7
BRANCH   4  24
HETATM   24  N   UNL     1      42.849 -11.058   5.953  1.00  0.00    -0.378 N 
HETATM   25  C   UNL     1      41.844 -10.349   6.759  1.00  0.00     0.150 C 
HETATM   26  C   UNL     1      42.566  -9.549   7.870  1.00  0.00     0.255 C 
HETATM   27  N   UNL     1      43.467 -10.458   8.716  1.00  0.00    -0.064 N 
HETATM   28  H   UNL     1      42.853 -11.106   9.228  1.00  0.00     0.280 HD
HETATM   29  C   UNL     1      44.405 -11.295   7.843  1.00  0.00     0.255 C 
HETATM   30  C   UNL     1      43.647 -12.032   6.722  1.00  0.00     0.150 C 
BRANCH  27  31
HETATM   31  C   UNL     1      44.267  -9.697   9.750  1.00  0.00     0.276 C 
BRANCH  31  32
HETATM   32  C   UNL     1      43.517  -9.319  10.991  1.00  0.00     0.006 A 
HETATM   33  C   UNL     1      43.130  -7.993  11.197  1.00  0.00     0.124 A 
HETATM   34  F   UNL     1      43.497  -7.064  10.301  1.00  0.00    -0.206 F 
HETATM   35  C   UNL     1      42.391  -7.615  12.312  1.00  0.00     0.043 A 
HETATM   36  C   UNL     1      42.030  -8.580  13.251  1.00  0.00     0.003 A 
HETATM   37  C   UNL     1      42.411  -9.909  13.068  1.00  0.00     0.001 A 
HETATM   38  C   UNL     1      43.149 -10.281  11.942  1.00  0.00     0.012 A 
ENDBRANCH  31  32
ENDBRANCH  27  31
ENDBRANCH   4  24
TORSDOF 8
ENDMDL
MODEL 3
REMARK VINA RESULT:      -8.5      2.139      3.236
REMARK  8 active torsions:
REMARK  status: ('A' for Active; 'I' for Inactive)
REMARK    1  A    between atoms: O_2  and  C_3 
REMARK    2  A    between atoms: C_7  and  C_8 
REMARK       I    between atoms: C_8  and  N_9 
REMARK    3  A    between atoms: N_9  and  C_10 
REMARK    4  A    between atoms: C_10  and  N_11 
REMARK    5  A    between atoms: N_11  and  C_12 
REMARK    6  A    between atoms: C_15  and  N_16 
REMARK    7  A    between atoms: N_19  and  C_21 
REMARK    8  A    between atoms: C_21  and  C_22 
ROOT
HETATM    1  C   UNL     1      42.790 -10.831   3.961  1.00  0.00     0.034 A 
HETATM    2  C   UNL     1      41.907 -10.021   4.673  1.00  0.00     0.032 A 
HETATM    3  C   UNL     1      42.007  -9.920   6.064  1.00  0.00     0.031 A 
HETATM    4  C   UNL     1      42.989 -10.622   6.781  1.00  0.00     0.030 A 
HETATM    5  C   UNL     1      43.878 -11.421   6.053  1.00  0.00     0.031 A 
HETATM    6  C   UNL     1      43.788 -11.518   4.653  1.00  0.00     0.032 A 
ENDROOT
BRANCH   1   7
HETATM    7  N   UNL     1      42.618 -10.912   2.558  1.00  0.00    -0.333 N 
HETATM    8  H   UNL     1      42.651 -10.009   2.099  1.00  0.00     0.168 HD
BRANCH   7   9
HETATM    9  C   UNL     1      41.795 -11.805   1.942  1.00  0.00     0.179 C 
HETATM   10  S   UNL     1      40.637 -11.321   0.837  1.00  0.00    -0.040 SA
BRANCH   9  11
HETATM   11  N   UNL     1      42.086 -13.143   2.046  1.00  0.00    -0.299 N 
HETATM   12  C   UNL     1      41.517 -14.080   2.900  1.00  0.00     0.257 C 
HETATM   13  O   UNL     1      40.356 -14.027   3.297  1.00  0.00    -0.267 OA
HETATM   14  H   UNL     1      42.951 -13.366   1.582  1.00  0.00     0.171 HD
BRANCH  12  15
HETATM   15  C   UNL     1      42.364 -15.248   3.311  1.00  0.00     0.034 A 
HETATM   16  C   UNL     1      43.086 -15.325   4.508  1.00  0.00     0.044 A 
HETATM   17  C   UNL     1      43.826 -16.481   4.843  1.00  0.00     0.068 A 
HETATM   18  C   UNL     1      43.847 -17.584   3.980  1.00  0.00     0.089 A 
HETATM   19 CL   UNL     1      44.687 -16.378   6.340  1.00  0.00    -0.081 Cl
HETATM   20  C   UNL     1      43.135 -17.489   2.776  1.00  0.00     0.039 A 
HETATM   21  C   UNL     1      42.406 -16.344   2.444  1.00  0.00     0.020 A 
BRANCH  18  22
HETATM   22  O   UNL     1      44.483 -18.787   4.086  1.00  0.00    -0.354 OA
HETATM   23  C   UNL     1      44.100 -19.727   5.074  1.00  0.00     0.210 C 
ENDBRANCH  18  22
ENDBRANCH  12  15
ENDBRANCH   9  11
ENDBRANCH   7   9
ENDBRANCH   1   7
BRANCH   4  24
HETATM   24  N   UNL     1      43.018 -10.479   8.173  1.00  0.00    -0.378 N 
HETATM   25  C   UNL     1      44.323 -10.475   8.850  1.00  0.00     0.150 C 
HETATM   26  C   UNL     1      44.107 -10.756  10.357  1.00  0.00     0.255 C 
HETATM   27  N   UNL     1      43.119  -9.759  10.975  1.00  0.00    -0.064 N 
HETATM   28  H   UNL     1      43.565  -8.832  10.951  1.00  0.00     0.280 HD
HETATM   29  C   UNL     1      41.821  -9.673  10.166  1.00  0.00     0.255 C 
HETATM   30  C   UNL     1      42.090  -9.443   8.666  1.00  0.00     0.150 C 
BRANCH  27  31
HETATM   31  C   UNL     1      42.804 -10.062  12.423  1.00  0.00     0.276 C 
BRANCH  31  32
HETATM   32  C   UNL     1      42.463  -8.872  13.267  1.00  0.00     0.006 A 
HETATM   33  C   UNL     1      41.287  -8.865  14.022  1.00  0.00     0.124 A 
HETATM   34  F   UNL     1      40.448  -9.907  13.924  1.00  0.00    -0.206 F 
HETATM   35  C   UNL     1      40.963  -7.799  14.854  1.00  0.00     0.043 A 
HETATM   36  C   UNL     1      41.827  -6.709  14.937  1.00  0.00     0.003 A 
HETATM   37  C   UNL     1      43.004  -6.693  14.187  1.00  0.00     0.001 A 
HETATM   38  C   UNL     1      43.325  -7.770  13.357  1.00  0.00     0.012 A 
ENDBRANCH  31  32
ENDBRANCH  27  31
ENDBRANCH   4  24
TORSDOF 8
ENDMDL
MODEL 4
REMARK VINA RESULT:      -8.4      1.401      1.838
REMARK  8 active torsions:
REMARK  status: ('A' for Active; 'I' for Inactive)
REMARK    1  A    between atoms: O_2  and  C_3 
REMARK    2  A    between atoms: C_7  and  C_8 
REMARK       I    between atoms: C_8  and  N_9 
REMARK    3  A    between atoms: N_9  and  C_10 
REMARK    4  A    between atoms: C_10  and  N_11 
REMARK    5  A    between atoms: N_11  and  C_12 
REMARK    6  A    between atoms: C_15  and  N_16 
REMARK    7  A    between atoms: N_19  and  C_21 
REMARK    8  A    between atoms: C_21  and  C_22 
ROOT
HETATM    1  C   UNL     1      40.119 -12.391   2.513  1.00  0.00     0.034 A 
HETATM    2  C   UNL     1      39.633 -12.685   3.786  1.00  0.00     0.032 A 
HETATM    3  C   UNL     1      40.253 -12.150   4.918  1.00  0.00     0.031 A 
HETATM    4  C   UNL     1      41.372 -11.310   4.814  1.00  0.00     0.030 A 
HETATM    5  C   UNL     1      41.842 -11.012   3.530  1.00  0.00     0.031 A 
HETATM    6  C   UNL     1      41.215 -11.538   2.386  1.00  0.00     0.032 A 
ENDROOT
BRANCH   1   7
HETATM    7  N   UNL     1      39.463 -12.986   1.408  1.00  0.00    -0.333 N 
HETATM    8  H   UNL     1      38.505 -13.249   1.606  1.00  0.00     0.168 HD
BRANCH   7   9
HETATM    9  C   UNL     1      40.077 -13.806   0.509  1.00  0.00     0.179 C 
HETATM   10  S   UNL     1      40.291 -13.361  -1.088  1.00  0.00    -0.040 SA
BRANCH   9  11
HETATM   11  N   UNL     1      40.746 -14.909   0.980  1.00  0.00    -0.299 N 
HETATM   12  C   UNL     1      40.392 -15.738   2.038  1.00  0.00     0.257 C 
HETATM   13  O   UNL     1      39.233 -15.968   2.369  1.00  0.00    -0.267 OA
HETATM   14  H   UNL     1      41.685 -14.947   0.621  1.00  0.00     0.171 HD
BRANCH  12  15
HETATM   15  C   UNL     1      41.500 -16.432   2.775  1.00  0.00     0.034 A 
HETATM   16  C   UNL     1      41.770 -16.270   4.139  1.00  0.00     0.044 A 
HETATM   17  C   UNL     1      42.806 -16.994   4.771  1.00  0.00     0.068 A 
HETATM   18  C   UNL     1      43.585 -17.900   4.040  1.00  0.00     0.089 A 
HETATM   19 CL   UNL     1      43.019 -16.634   6.449  1.00  0.00    -0.081 Cl
HETATM   20  C   UNL     1      43.318 -18.041   2.671  1.00  0.00     0.039 A 
HETATM   21  C   UNL     1      42.295 -17.321   2.046  1.00  0.00     0.020 A 
BRANCH  18  22
HETATM   22  O   UNL     1      44.626 -18.695   4.425  1.00  0.00    -0.354 OA
HETATM   23  C   UNL     1      44.398 -20.006   4.911  1.00  0.00     0.210 C 
ENDBRANCH  18  22
ENDBRANCH  12  15
ENDBRANCH   9  11
ENDBRANCH   7   9
ENDBRANCH   1   7
BRANCH   4  24
HETATM   24  N   UNL     1      41.945 -10.823   5.995  1.00  0.00    -0.378 N 
HETATM   25  C   UNL     1      41.071 -10.168   6.979  1.00  0.00     0.150 C 
HETATM   26  C   UNL     1      41.944  -9.337   7.950  1.00  0.00     0.255 C 
HETATM   27  N   UNL     1      43.029 -10.202   8.606  1.00  0.00    -0.064 N 
HETATM   28  H   UNL     1      42.551 -10.882   9.213  1.00  0.00     0.280 HD
HETATM   29  C   UNL     1      43.831 -10.988   7.566  1.00  0.00     0.255 C 
HETATM   30  C   UNL     1      42.917 -11.758   6.592  1.00  0.00     0.150 C 
BRANCH  27  31
HETATM   31  C   UNL     1      43.966  -9.405   9.485  1.00  0.00     0.276 C 
BRANCH  31  32
HETATM   32  C   UNL     1      43.435  -9.062  10.843  1.00  0.00     0.006 A 
HETATM   33  C   UNL     1      43.291 -10.061  11.810  1.00  0.00     0.124 A 
HETATM   34  F   UNL     1      43.573 -11.330  11.478  1.00  0.00    -0.206 F 
HETATM   35  C   UNL     1      42.848  -9.771  13.095  1.00  0.00     0.043 A 
HETATM   36  C   UNL     1      42.536  -8.454  13.430  1.00  0.00     0.003 A 
HETATM   37  C   UNL     1      42.667  -7.443  12.479  1.00  0.00     0.001 A 
HETATM   38  C   UNL     1      43.117  -7.741  11.191  1.00  0.00     0.012 A 
ENDBRANCH  31  32
ENDBRANCH  27  31
ENDBRANCH   4  24
TORSDOF 8
ENDMDL
MODEL 5
REMARK VINA RESULT:      -8.4      1.573      1.995
REMARK  8 active torsions:
REMARK  status: ('A' for Active; 'I' for Inactive)
REMARK    1  A    between atoms: O_2  and  C_3 
REMARK    2  A    between atoms: C_7  and  C_8 
REMARK       I    between atoms: C_8  and  N_9 
REMARK    3  A    between atoms: N_9  and  C_10 
REMARK    4  A    between atoms: C_10  and  N_11 
REMARK    5  A    between atoms: N_11  and  C_12 
REMARK    6  A    between atoms: C_15  and  N_16 
REMARK    7  A    between atoms: N_19  and  C_21 
REMARK    8  A    between atoms: C_21  and  C_22 
ROOT
HETATM    1  C   UNL     1      40.947 -11.983   1.489  1.00  0.00     0.034 A 
HETATM    2  C   UNL     1      39.716 -11.771   2.108  1.00  0.00     0.032 A 
HETATM    3  C   UNL     1      39.660 -11.273   3.413  1.00  0.00     0.031 A 
HETATM    4  C   UNL     1      40.826 -10.973   4.135  1.00  0.00     0.030 A 
HETATM    5  C   UNL     1      42.055 -11.178   3.497  1.00  0.00     0.031 A 
HETATM    6  C   UNL     1      42.117 -11.669   2.180  1.00  0.00     0.032 A 
ENDROOT
BRANCH   1   7
HETATM    7  N   UNL     1      40.937 -12.515   0.177  1.00  0.00    -0.333 N 
HETATM    8  H   UNL     1      40.653 -11.841  -0.525  1.00  0.00     0.168 HD
BRANCH   7   9
HETATM    9  C   UNL     1      40.581 -13.795  -0.123  1.00  0.00     0.179 C 
HETATM   10  S   UNL     1      39.621 -14.158  -1.443  1.00  0.00    -0.040 SA
BRANCH   9  11
HETATM   11  N   UNL     1      41.222 -14.821   0.526  1.00  0.00    -0.299 N 
HETATM   12  C   UNL     1      40.745 -15.606   1.569  1.00  0.00     0.257 C 
HETATM   13  O   UNL     1      39.561 -15.889   1.727  1.00  0.00    -0.267 OA
HETATM   14  H   UNL     1      42.208 -14.821   0.325  1.00  0.00     0.171 HD
BRANCH  12  15
HETATM   15  C   UNL     1      41.754 -16.180   2.521  1.00  0.00     0.034 A 
HETATM   16  C   UNL     1      42.429 -17.391   2.328  1.00  0.00     0.044 A 
HETATM   17  C   UNL     1      43.400 -17.842   3.251  1.00  0.00     0.068 A 
HETATM   18  C   UNL     1      43.711 -17.078   4.382  1.00  0.00     0.089 A 
HETATM   19 CL   UNL     1      44.099 -19.378   2.869  1.00  0.00    -0.081 Cl
HETATM   20  C   UNL     1      43.015 -15.876   4.575  1.00  0.00     0.039 A 
HETATM   21  C   UNL     1      42.053 -15.432   3.664  1.00  0.00     0.020 A 
BRANCH  18  22
HETATM   22  O   UNL     1      44.593 -17.307   5.398  1.00  0.00    -0.354 OA
HETATM   23  C   UNL     1      44.682 -16.418   6.498  1.00  0.00     0.210 C 
ENDBRANCH  18  22
ENDBRANCH  12  15
ENDBRANCH   9  11
ENDBRANCH   7   9
ENDBRANCH   1   7
BRANCH   4  24
HETATM   24  N   UNL     1      40.688 -10.490   5.441  1.00  0.00    -0.378 N 
HETATM   25  C   UNL     1      39.761 -11.180   6.350  1.00  0.00     0.150 C 
HETATM   26  C   UNL     1      39.435 -10.244   7.539  1.00  0.00     0.255 C 
HETATM   27  N   UNL     1      40.712  -9.772   8.245  1.00  0.00    -0.064 N 
HETATM   28  H   UNL     1      41.142 -10.598   8.683  1.00  0.00     0.280 HD
HETATM   29  C   UNL     1      41.724  -9.189   7.255  1.00  0.00     0.255 C 
HETATM   30  C   UNL     1      41.977 -10.135   6.064  1.00  0.00     0.150 C 
BRANCH  27  31
HETATM   31  C   UNL     1      40.441  -8.776   9.350  1.00  0.00     0.276 C 
BRANCH  31  32
HETATM   32  C   UNL     1      41.220  -8.990  10.612  1.00  0.00     0.006 A 
HETATM   33  C   UNL     1      40.688  -9.775  11.637  1.00  0.00     0.124 A 
HETATM   34  F   UNL     1      39.451 -10.274  11.496  1.00  0.00    -0.206 F 
HETATM   35  C   UNL     1      41.403 -10.035  12.801  1.00  0.00     0.043 A 
HETATM   36  C   UNL     1      42.680  -9.498  12.953  1.00  0.00     0.003 A 
HETATM   37  C   UNL     1      43.228  -8.706  11.944  1.00  0.00     0.001 A 
HETATM   38  C   UNL     1      42.505  -8.453  10.776  1.00  0.00     0.012 A 
ENDBRANCH  31  32
ENDBRANCH  27  31
ENDBRANCH   4  24
TORSDOF 8
ENDMDL
MODEL 6
REMARK VINA RESULT:      -8.4      1.772      2.299
REMARK  8 active torsions:
REMARK  status: ('A' for Active; 'I' for Inactive)
REMARK    1  A    between atoms: O_2  and  C_3 
REMARK    2  A    between atoms: C_7  and  C_8 
REMARK       I    between atoms: C_8  and  N_9 
REMARK    3  A    between atoms: N_9  and  C_10 
REMARK    4  A    between atoms: C_10  and  N_11 
REMARK    5  A    between atoms: N_11  and  C_12 
REMARK    6  A    between atoms: C_15  and  N_16 
REMARK    7  A    between atoms: N_19  and  C_21 
REMARK    8  A    between atoms: C_21  and  C_22 
ROOT
HETATM    1  C   UNL     1      41.098 -12.002   2.978  1.00  0.00     0.034 A 
HETATM    2  C   UNL     1      42.383 -11.505   3.187  1.00  0.00     0.032 A 
HETATM    3  C   UNL     1      42.700 -10.846   4.378  1.00  0.00     0.031 A 
HETATM    4  C   UNL     1      41.746 -10.665   5.392  1.00  0.00     0.030 A 
HETATM    5  C   UNL     1      40.463 -11.181   5.176  1.00  0.00     0.031 A 
HETATM    6  C   UNL     1      40.142 -11.854   3.983  1.00  0.00     0.032 A 
ENDROOT
BRANCH   1   7
HETATM    7  N   UNL     1      40.834 -12.634   1.739  1.00  0.00    -0.333 N 
HETATM    8  H   UNL     1      40.192 -12.113   1.154  1.00  0.00     0.168 HD
BRANCH   7   9
HETATM    9  C   UNL     1      40.744 -13.984   1.577  1.00  0.00     0.179 C 
HETATM   10  S   UNL     1      40.030 -14.665   0.227  1.00  0.00    -0.040 SA
BRANCH   9  11
HETATM   11  N   UNL     1      41.469 -14.793   2.416  1.00  0.00    -0.299 N 
HETATM   12  C   UNL     1      42.806 -15.158   2.312  1.00  0.00     0.257 C 
HETATM   13  O   UNL     1      43.672 -14.445   1.814  1.00  0.00    -0.267 OA
HETATM   14  H   UNL     1      40.866 -15.314   3.033  1.00  0.00     0.171 HD
BRANCH  12  15
HETATM   15  C   UNL     1      43.211 -16.480   2.895  1.00  0.00     0.034 A 
HETATM   16  C   UNL     1      43.186 -17.696   2.200  1.00  0.00     0.044 A 
HETATM   17  C   UNL     1      43.627 -18.894   2.807  1.00  0.00     0.068 A 
HETATM   18  C   UNL     1      44.108 -18.887   4.122  1.00  0.00     0.089 A 
HETATM   19 CL   UNL     1      43.483 -20.301   1.812  1.00  0.00    -0.081 Cl
HETATM   20  C   UNL     1      44.111 -17.667   4.814  1.00  0.00     0.039 A 
HETATM   21  C   UNL     1      43.672 -16.484   4.215  1.00  0.00     0.020 A 
BRANCH  18  22
HETATM   22  O   UNL     1      44.574 -19.902   4.907  1.00  0.00    -0.354 OA
HETATM   23  C   UNL     1      43.723 -20.962   5.305  1.00  0.00     0.210 C 
ENDBRANCH  18  22
ENDBRANCH  12  15
ENDBRANCH   9  11
ENDBRANCH   7   9
ENDBRANCH   1   7
BRANCH   4  24
HETATM   24  N   UNL     1      42.136  -9.985   6.552  1.00  0.00    -0.378 N 
HETATM   25  C   UNL     1      41.109  -9.657   7.551  1.00  0.00     0.150 C 
HETATM   26  C   UNL     1      41.656  -8.553   8.488  1.00  0.00     0.255 C 
HETATM   27  N   UNL     1      42.987  -8.971   9.126  1.00  0.00    -0.064 N 
HETATM   28  H   UNL     1      42.790  -9.762   9.754  1.00  0.00     0.280 HD
HETATM   29  C   UNL     1      43.993  -9.449   8.075  1.00  0.00     0.255 C 
HETATM   30  C   UNL     1      43.386 -10.509   7.135  1.00  0.00     0.150 C 
BRANCH  27  31
HETATM   31  C   UNL     1      43.605  -7.879   9.970  1.00  0.00     0.276 C 
BRANCH  31  32
HETATM   32  C   UNL     1      43.004  -7.704  11.332  1.00  0.00     0.006 A 
HETATM   33  C   UNL     1      42.198  -6.596  11.603  1.00  0.00     0.124 A 
HETATM   34  F   UNL     1      42.029  -5.668  10.648  1.00  0.00    -0.206 F 
HETATM   35  C   UNL     1      41.585  -6.426  12.839  1.00  0.00     0.043 A 
HETATM   36  C   UNL     1      41.779  -7.381  13.835  1.00  0.00     0.003 A 
HETATM   37  C   UNL     1      42.585  -8.493  13.587  1.00  0.00     0.001 A 
HETATM   38  C   UNL     1      43.194  -8.658  12.342  1.00  0.00     0.012 A 
ENDBRANCH  31  32
ENDBRANCH  27  31
ENDBRANCH   4  24
TORSDOF 8
ENDMDL
MODEL 7
REMARK VINA RESULT:      -8.0      4.813      8.823
REMARK  8 active torsions:
REMARK  status: ('A' for Active; 'I' for Inactive)
REMARK    1  A    between atoms: O_2  and  C_3 
REMARK    2  A    between atoms: C_7  and  C_8 
REMARK       I    between atoms: C_8  and  N_9 
REMARK    3  A    between atoms: N_9  and  C_10 
REMARK    4  A    between atoms: C_10  and  N_11 
REMARK    5  A    between atoms: N_11  and  C_12 
REMARK    6  A    between atoms: C_15  and  N_16 
REMARK    7  A    between atoms: N_19  and  C_21 
REMARK    8  A    between atoms: C_21  and  C_22 
ROOT
HETATM    1  C   UNL     1      38.624 -10.382   4.650  1.00  0.00     0.034 A 
HETATM    2  C   UNL     1      39.285 -10.842   3.512  1.00  0.00     0.032 A 
HETATM    3  C   UNL     1      40.116 -11.963   3.585  1.00  0.00     0.031 A 
HETATM    4  C   UNL     1      40.311 -12.656   4.790  1.00  0.00     0.030 A 
HETATM    5  C   UNL     1      39.630 -12.192   5.922  1.00  0.00     0.031 A 
HETATM    6  C   UNL     1      38.784 -11.071   5.852  1.00  0.00     0.032 A 
ENDROOT
BRANCH   1   7
HETATM    7  N   UNL     1      37.818  -9.226   4.517  1.00  0.00    -0.333 N 
HETATM    8  H   UNL     1      37.158  -9.284   3.750  1.00  0.00     0.168 HD
BRANCH   7   9
HETATM    9  C   UNL     1      38.258  -7.959   4.759  1.00  0.00     0.179 C 
HETATM   10  S   UNL     1      37.346  -6.617   4.359  1.00  0.00    -0.040 SA
BRANCH   9  11
HETATM   11  N   UNL     1      39.357  -7.791   5.565  1.00  0.00    -0.299 N 
HETATM   12  C   UNL     1      40.698  -7.827   5.205  1.00  0.00     0.257 C 
HETATM   13  O   UNL     1      41.120  -7.482   4.104  1.00  0.00    -0.267 OA
HETATM   14  H   UNL     1      39.110  -7.863   6.539  1.00  0.00     0.171 HD
BRANCH  12  15
HETATM   15  C   UNL     1      41.686  -8.261   6.248  1.00  0.00     0.034 A 
HETATM   16  C   UNL     1      42.180  -7.437   7.267  1.00  0.00     0.044 A 
HETATM   17  C   UNL     1      43.075  -7.934   8.240  1.00  0.00     0.068 A 
HETATM   18  C   UNL     1      43.483  -9.274   8.209  1.00  0.00     0.089 A 
HETATM   19 CL   UNL     1      43.611  -6.762   9.394  1.00  0.00    -0.081 Cl
HETATM   20  C   UNL     1      42.997 -10.085   7.174  1.00  0.00     0.039 A 
HETATM   21  C   UNL     1      42.114  -9.591   6.209  1.00  0.00     0.020 A 
BRANCH  18  22
HETATM   22  O   UNL     1      44.330  -9.967   9.024  1.00  0.00    -0.354 OA
HETATM   23  C   UNL     1      43.990 -10.223  10.376  1.00  0.00     0.210 C 
ENDBRANCH  18  22
ENDBRANCH  12  15
ENDBRANCH   9  11
ENDBRANCH   7   9
ENDBRANCH   1   7
BRANCH   4  24
HETATM   24  N   UNL     1      41.168 -13.762   4.784  1.00  0.00    -0.378 N 
HETATM   25  C   UNL     1      40.766 -14.964   5.530  1.00  0.00     0.150 C 
HETATM   26  C   UNL     1      42.012 -15.854   5.757  1.00  0.00     0.255 C 
HETATM   27  N   UNL     1      42.710 -16.187   4.433  1.00  0.00    -0.064 N 
HETATM   28  H   UNL     1      42.069 -16.782   3.891  1.00  0.00     0.280 HD
HETATM   29  C   UNL     1      42.987 -14.928   3.607  1.00  0.00     0.255 C 
HETATM   30  C   UNL     1      41.729 -14.051   3.451  1.00  0.00     0.150 C 
BRANCH  27  31
HETATM   31  C   UNL     1      43.989 -16.971   4.622  1.00  0.00     0.276 C 
BRANCH  31  32
HETATM   32  C   UNL     1      43.915 -18.419   4.246  1.00  0.00     0.006 A 
HETATM   33  C   UNL     1      43.676 -18.785   2.918  1.00  0.00     0.124 A 
HETATM   34  F   UNL     1      43.452 -17.822   2.011  1.00  0.00    -0.206 F 
HETATM   35  C   UNL     1      43.650 -20.118   2.524  1.00  0.00     0.043 A 
HETATM   36  C   UNL     1      43.863 -21.116   3.473  1.00  0.00     0.003 A 
HETATM   37  C   UNL     1      44.097 -20.773   4.805  1.00  0.00     0.001 A 
HETATM   38  C   UNL     1      44.127 -19.431   5.193  1.00  0.00     0.012 A 
ENDBRANCH  31  32
ENDBRANCH  27  31
ENDBRANCH   4  24
TORSDOF 8
ENDMDL
MODEL 8
REMARK VINA RESULT:      -7.6      1.494      2.155
REMARK  8 active torsions:
REMARK  status: ('A' for Active; 'I' for Inactive)
REMARK    1  A    between atoms: O_2  and  C_3 
REMARK    2  A    between atoms: C_7  and  C_8 
REMARK       I    between atoms: C_8  and  N_9 
REMARK    3  A    between atoms: N_9  and  C_10 
REMARK    4  A    between atoms: C_10  and  N_11 
REMARK    5  A    between atoms: N_11  and  C_12 
REMARK    6  A    between atoms: C_15  and  N_16 
REMARK    7  A    between atoms: N_19  and  C_21 
REMARK    8  A    between atoms: C_21  and  C_22 
ROOT
HETATM    1  C   UNL     1      40.398 -11.479   2.977  1.00  0.00     0.034 A 
HETATM    2  C   UNL     1      39.711 -11.869   4.125  1.00  0.00     0.032 A 
HETATM    3  C   UNL     1      40.161 -11.467   5.386  1.00  0.00     0.031 A 
HETATM    4  C   UNL     1      41.304 -10.667   5.537  1.00  0.00     0.030 A 
HETATM    5  C   UNL     1      41.977 -10.271   4.375  1.00  0.00     0.031 A 
HETATM    6  C   UNL     1      41.523 -10.663   3.103  1.00  0.00     0.032 A 
ENDROOT
BRANCH   1   7
HETATM    7  N   UNL     1      39.908 -11.941   1.732  1.00  0.00    -0.333 N 
HETATM    8  H   UNL     1      38.968 -12.316   1.786  1.00  0.00     0.168 HD
BRANCH   7   9
HETATM    9  C   UNL     1      40.680 -12.547   0.787  1.00  0.00     0.179 C 
HETATM   10  S   UNL     1      40.884 -11.894  -0.738  1.00  0.00    -0.040 SA
BRANCH   9  11
HETATM   11  N   UNL     1      41.497 -13.580   1.174  1.00  0.00    -0.299 N 
HETATM   12  C   UNL     1      41.143 -14.894   1.459  1.00  0.00     0.257 C 
HETATM   13  O   UNL     1      40.206 -15.480   0.925  1.00  0.00    -0.267 OA
HETATM   14  H   UNL     1      42.399 -13.242   1.468  1.00  0.00     0.171 HD
BRANCH  12  15
HETATM   15  C   UNL     1      41.996 -15.645   2.439  1.00  0.00     0.034 A 
HETATM   16  C   UNL     1      42.542 -16.914   2.208  1.00  0.00     0.044 A 
HETATM   17  C   UNL     1      43.373 -17.537   3.164  1.00  0.00     0.068 A 
HETATM   18  C   UNL     1      43.676 -16.891   4.370  1.00  0.00     0.089 A 
HETATM   19 CL   UNL     1      43.920 -19.118   2.724  1.00  0.00    -0.081 Cl
HETATM   20  C   UNL     1      43.110 -15.628   4.598  1.00  0.00     0.039 A 
HETATM   21  C   UNL     1      42.284 -15.014   3.652  1.00  0.00     0.020 A 
BRANCH  18  22
HETATM   22  O   UNL     1      44.438 -17.290   5.429  1.00  0.00    -0.354 OA
HETATM   23  C   UNL     1      44.621 -16.445   6.552  1.00  0.00     0.210 C 
ENDBRANCH  18  22
ENDBRANCH  12  15
ENDBRANCH   9  11
ENDBRANCH   7   9
ENDBRANCH   1   7
BRANCH   4  24
HETATM   24  N   UNL     1      41.698 -10.316   6.833  1.00  0.00    -0.378 N 
HETATM   25  C   UNL     1      43.099  -9.933   7.061  1.00  0.00     0.150 C 
HETATM   26  C   UNL     1      43.404 -10.026   8.576  1.00  0.00     0.255 C 
HETATM   27  N   UNL     1      42.421  -9.183   9.397  1.00  0.00    -0.064 N 
HETATM   28  H   UNL     1      42.596  -8.197   9.164  1.00  0.00     0.280 HD
HETATM   29  C   UNL     1      40.966  -9.498   9.036  1.00  0.00     0.255 C 
HETATM   30  C   UNL     1      40.724  -9.441   7.515  1.00  0.00     0.150 C 
BRANCH  27  31
HETATM   31  C   UNL     1      42.623  -9.328  10.889  1.00  0.00     0.276 C 
BRANCH  31  32
HETATM   32  C   UNL     1      42.516  -8.058  11.677  1.00  0.00     0.006 A 
HETATM   33  C   UNL     1      42.603  -8.092  13.071  1.00  0.00     0.124 A 
HETATM   34  F   UNL     1      42.718  -9.279  13.685  1.00  0.00    -0.206 F 
HETATM   35  C   UNL     1      42.556  -6.928  13.831  1.00  0.00     0.043 A 
HETATM   36  C   UNL     1      42.416  -5.698  13.190  1.00  0.00     0.003 A 
HETATM   37  C   UNL     1      42.321  -5.643  11.800  1.00  0.00     0.001 A 
HETATM   38  C   UNL     1      42.373  -6.816  11.043  1.00  0.00     0.012 A 
ENDBRANCH  31  32
ENDBRANCH  27  31
ENDBRANCH   4  24
TORSDOF 8
ENDMDL
MODEL 9
REMARK VINA RESULT:      -7.4     18.205     20.389
REMARK  8 active torsions:
REMARK  status: ('A' for Active; 'I' for Inactive)
REMARK    1  A    between atoms: O_2  and  C_3 
REMARK    2  A    between atoms: C_7  and  C_8 
REMARK       I    between atoms: C_8  and  N_9 
REMARK    3  A    between atoms: N_9  and  C_10 
REMARK    4  A    between atoms: C_10  and  N_11 
REMARK    5  A    between atoms: N_11  and  C_12 
REMARK    6  A    between atoms: C_15  and  N_16 
REMARK    7  A    between atoms: N_19  and  C_21 
REMARK    8  A    between atoms: C_21  and  C_22 
ROOT
HETATM    1  C   UNL     1      39.909 -31.989   4.097  1.00  0.00     0.034 A 
HETATM    2  C   UNL     1      40.056 -32.252   2.736  1.00  0.00     0.032 A 
HETATM    3  C   UNL     1      41.076 -31.637   2.005  1.00  0.00     0.031 A 
HETATM    4  C   UNL     1      41.975 -30.743   2.609  1.00  0.00     0.030 A 
HETATM    5  C   UNL     1      41.824 -30.498   3.979  1.00  0.00     0.031 A 
HETATM    6  C   UNL     1      40.807 -31.123   4.722  1.00  0.00     0.032 A 
ENDROOT
BRANCH   1   7
HETATM    7  N   UNL     1      38.839 -32.622   4.774  1.00  0.00    -0.333 N 
HETATM    8  H   UNL     1      38.192 -31.969   5.199  1.00  0.00     0.168 HD
BRANCH   7   9
HETATM    9  C   UNL     1      38.959 -33.793   5.461  1.00  0.00     0.179 C 
HETATM   10  S   UNL     1      38.807 -35.278   4.709  1.00  0.00    -0.040 SA
BRANCH   9  11
HETATM   11  N   UNL     1      39.455 -33.751   6.741  1.00  0.00    -0.299 N 
HETATM   12  C   UNL     1      39.470 -32.675   7.620  1.00  0.00     0.257 C 
HETATM   13  O   UNL     1      38.616 -31.794   7.637  1.00  0.00    -0.267 OA
HETATM   14  H   UNL     1      40.043 -34.546   6.931  1.00  0.00     0.171 HD
BRANCH  12  15
HETATM   15  C   UNL     1      40.569 -32.629   8.641  1.00  0.00     0.034 A 
HETATM   16  C   UNL     1      40.588 -33.378   9.823  1.00  0.00     0.044 A 
HETATM   17  C   UNL     1      41.683 -33.313  10.714  1.00  0.00     0.068 A 
HETATM   18  C   UNL     1      42.783 -32.495  10.425  1.00  0.00     0.089 A 
HETATM   19 CL   UNL     1      41.511 -34.274  12.141  1.00  0.00    -0.081 Cl
HETATM   20  C   UNL     1      42.746 -31.735   9.247  1.00  0.00     0.039 A 
HETATM   21  C   UNL     1      41.661 -31.798   8.369  1.00  0.00     0.020 A 
BRANCH  18  22
HETATM   22  O   UNL     1      43.933 -32.267  11.124  1.00  0.00    -0.354 OA
HETATM   23  C   UNL     1      43.898 -31.656  12.402  1.00  0.00     0.210 C 
ENDBRANCH  18  22
ENDBRANCH  12  15
ENDBRANCH   9  11
ENDBRANCH   7   9
ENDBRANCH   1   7
BRANCH   4  24
HETATM   24  N   UNL     1      42.963 -30.158   1.808  1.00  0.00    -0.378 N 
HETATM   25  C   UNL     1      42.565 -29.104   0.863  1.00  0.00     0.150 C 
HETATM   26  C   UNL     1      43.682 -28.932  -0.194  1.00  0.00     0.255 C 
HETATM   27  N   UNL     1      45.038 -28.652   0.465  1.00  0.00    -0.064 N 
HETATM   28  H   UNL     1      44.973 -27.730   0.918  1.00  0.00     0.280 HD
HETATM   29  C   UNL     1      45.363 -29.683   1.550  1.00  0.00     0.255 C 
HETATM   30  C   UNL     1      44.202 -29.855   2.549  1.00  0.00     0.150 C 
BRANCH  27  31
HETATM   31  C   UNL     1      46.174 -28.577  -0.530  1.00  0.00     0.276 C 
BRANCH  31  32
HETATM   32  C   UNL     1      45.816 -28.938  -1.940  1.00  0.00     0.006 A 
HETATM   33  C   UNL     1      45.805 -30.278  -2.337  1.00  0.00     0.124 A 
HETATM   34  F   UNL     1      46.181 -31.218  -1.457  1.00  0.00    -0.206 F 
HETATM   35  C   UNL     1      45.431 -30.652  -3.622  1.00  0.00     0.043 A 
HETATM   36  C   UNL     1      45.060 -29.671  -4.540  1.00  0.00     0.003 A 
HETATM   37  C   UNL     1      45.070 -28.327  -4.166  1.00  0.00     0.001 A 
HETATM   38  C   UNL     1      45.443 -27.959  -2.872  1.00  0.00     0.012 A 
ENDBRANCH  31  32
ENDBRANCH  27  31
ENDBRANCH   4  24
TORSDOF 8
ENDMDL
MODEL 10
REMARK VINA RESULT:      -7.3      7.018     10.953
REMARK  8 active torsions:
REMARK  status: ('A' for Active; 'I' for Inactive)
REMARK    1  A    between atoms: O_2  and  C_3 
REMARK    2  A    between atoms: C_7  and  C_8 
REMARK       I    between atoms: C_8  and  N_9 
REMARK    3  A    between atoms: N_9  and  C_10 
REMARK    4  A    between atoms: C_10  and  N_11 
REMARK    5  A    between atoms: N_11  and  C_12 
REMARK    6  A    between atoms: C_15  and  N_16 
REMARK    7  A    between atoms: N_19  and  C_21 
REMARK    8  A    between atoms: C_21  and  C_22 
ROOT
HETATM    1  C   UNL     1      38.503 -10.400   3.308  1.00  0.00     0.034 A 
HETATM    2  C   UNL     1      38.423 -11.299   2.246  1.00  0.00     0.032 A 
HETATM    3  C   UNL     1      39.237 -12.435   2.221  1.00  0.00     0.031 A 
HETATM    4  C   UNL     1      40.152 -12.705   3.251  1.00  0.00     0.030 A 
HETATM    5  C   UNL     1      40.212 -11.801   4.318  1.00  0.00     0.031 A 
HETATM    6  C   UNL     1      39.387 -10.662   4.354  1.00  0.00     0.032 A 
ENDROOT
BRANCH   1   7
HETATM    7  N   UNL     1      37.671  -9.255   3.260  1.00  0.00    -0.333 N 
HETATM    8  H   UNL     1      36.807  -9.410   2.754  1.00  0.00     0.168 HD
BRANCH   7   9
HETATM    9  C   UNL     1      38.137  -7.979   3.162  1.00  0.00     0.179 C 
HETATM   10  S   UNL     1      39.178  -7.510   1.942  1.00  0.00    -0.040 SA
BRANCH   9  11
HETATM   11  N   UNL     1      37.548  -7.007   3.934  1.00  0.00    -0.299 N 
HETATM   12  C   UNL     1      37.077  -7.116   5.237  1.00  0.00     0.257 C 
HETATM   13  O   UNL     1      37.559  -7.870   6.078  1.00  0.00    -0.267 OA
HETATM   14  H   UNL     1      37.265  -6.219   3.376  1.00  0.00     0.171 HD
BRANCH  12  15
HETATM   15  C   UNL     1      35.947  -6.216   5.644  1.00  0.00     0.034 A 
HETATM   16  C   UNL     1      34.642  -6.648   5.907  1.00  0.00     0.044 A 
HETATM   17  C   UNL     1      33.643  -5.743   6.329  1.00  0.00     0.068 A 
HETATM   18  C   UNL     1      33.943  -4.385   6.500  1.00  0.00     0.089 A 
HETATM   19 CL   UNL     1      32.082  -6.449   6.567  1.00  0.00    -0.081 Cl
HETATM   20  C   UNL     1      35.248  -3.960   6.215  1.00  0.00     0.039 A 
HETATM   21  C   UNL     1      36.235  -4.856   5.795  1.00  0.00     0.020 A 
BRANCH  18  22
HETATM   22  O   UNL     1      33.156  -3.339   6.886  1.00  0.00    -0.354 OA
HETATM   23  C   UNL     1      32.024  -2.961   6.123  1.00  0.00     0.210 C 
ENDBRANCH  18  22
ENDBRANCH  12  15
ENDBRANCH   9  11
ENDBRANCH   7   9
ENDBRANCH   1   7
BRANCH   4  24
HETATM   24  N   UNL     1      40.941 -13.856   3.148  1.00  0.00    -0.378 N 
HETATM   25  C   UNL     1      41.738 -14.265   4.314  1.00  0.00     0.150 C 
HETATM   26  C   UNL     1      42.835 -15.253   3.848  1.00  0.00     0.255 C 
HETATM   27  N   UNL     1      42.231 -16.447   3.099  1.00  0.00    -0.064 N 
HETATM   28  H   UNL     1      41.676 -16.985   3.778  1.00  0.00     0.280 HD
HETATM   29  C   UNL     1      41.287 -15.994   1.981  1.00  0.00     0.255 C 
HETATM   30  C   UNL     1      40.246 -14.974   2.482  1.00  0.00     0.150 C 
BRANCH  27  31
HETATM   31  C   UNL     1      43.278 -17.384   2.540  1.00  0.00     0.276 C 
BRANCH  31  32
HETATM   32  C   UNL     1      43.544 -18.610   3.359  1.00  0.00     0.006 A 
HETATM   33  C   UNL     1      43.627 -19.860   2.740  1.00  0.00     0.124 A 
HETATM   34  F   UNL     1      43.401 -19.945   1.420  1.00  0.00    -0.206 F 
HETATM   35  C   UNL     1      43.920 -21.011   3.461  1.00  0.00     0.043 A 
HETATM   36  C   UNL     1      44.134 -20.922   4.835  1.00  0.00     0.003 A 
HETATM   37  C   UNL     1      44.049 -19.685   5.475  1.00  0.00     0.001 A 
HETATM   38  C   UNL     1      43.759 -18.532   4.743  1.00  0.00     0.012 A 
ENDBRANCH  31  32
ENDBRANCH  27  31
ENDBRANCH   4  24
TORSDOF 8
ENDMDL
