MODEL 1
REMARK VINA RESULT:      -8.3      0.000      0.000
REMARK  8 active torsions:
REMARK  status: ('A' for Active; 'I' for Inactive)
REMARK    1  A    between atoms: C_2  and  O_3 
REMARK    2  A    between atoms: O_3  and  C_4 
REMARK    3  A    between atoms: C_5  and  N_6 
REMARK       I    between atoms: N_6  and  C_7 
REMARK    4  A    between atoms: C_7  and  C_8 
REMARK    5  A    between atoms: N_11  and  C_12 
REMARK    6  A    between atoms: C_12  and  C_13 
REMARK       I    between atoms: C_13  and  N_14 
REMARK    7  A    between atoms: N_14  and  C_15 
REMARK    8  A    between atoms: C_24  and  N_25 
ROOT
HETATM    1  C   UNL     1      40.623 -14.204   6.254  1.00  0.00     0.187 C 
HETATM    2  N   UNL     1      40.153 -15.454   6.599  1.00  0.00    -0.150 NA
HETATM    3  N   UNL     1      41.089 -16.068   7.310  1.00  0.00     0.007 NA
HETATM    4  N   UNL     1      42.153 -15.243   7.365  1.00  0.00    -0.248 N 
HETATM    5  C   UNL     1      41.872 -14.015   6.822  1.00  0.00     0.151 C 
ENDROOT
BRANCH   1   6
HETATM    6  C   UNL     1      39.883 -13.259   5.443  1.00  0.00     0.280 C 
HETATM    7  N   UNL     1      39.849 -13.396   4.071  1.00  0.00    -0.319 N 
HETATM    8  H   UNL     1      39.046 -12.930   3.674  1.00  0.00     0.169 HD
HETATM    9  O   UNL     1      39.202 -12.364   5.953  1.00  0.00    -0.265 OA
BRANCH   7  10
HETATM   10  C   UNL     1      40.761 -13.965   3.156  1.00  0.00     0.068 A 
HETATM   11  C   UNL     1      42.115 -13.626   3.010  1.00  0.00     0.095 A 
HETATM   12  C   UNL     1      42.918 -14.272   2.061  1.00  0.00     0.039 A 
HETATM   13  C   UNL     1      42.368 -15.215   1.199  1.00  0.00     0.003 A 
HETATM   14  C   UNL     1      41.014 -15.518   1.287  1.00  0.00     0.002 A 
HETATM   15  C   UNL     1      40.218 -14.895   2.256  1.00  0.00     0.032 A 
BRANCH  11  16
HETATM   16  O   UNL     1      42.727 -12.649   3.744  1.00  0.00    -0.349 OA
BRANCH  16  17
HETATM   17  C   UNL     1      42.698 -11.384   3.074  1.00  0.00     0.171 C 
HETATM   18  C   UNL     1      42.084 -10.375   4.027  1.00  0.00     0.034 C 
ENDBRANCH  16  17
ENDBRANCH  11  16
ENDBRANCH   7  10
ENDBRANCH   1   6
BRANCH   5  19
HETATM   19  N   UNL     1      42.738 -12.972   6.826  1.00  0.00    -0.382 N 
HETATM   20  H   UNL     1      42.631 -12.175   7.462  1.00  0.00     0.157 HD
HETATM   21  H   UNL     1      43.158 -12.690   5.939  1.00  0.00     0.157 HD
ENDBRANCH   5  19
BRANCH   4  22
HETATM   22  C   UNL     1      43.423 -15.766   7.798  1.00  0.00     0.251 C 
BRANCH  22  23
HETATM   23  C   UNL     1      44.094 -16.579   6.721  1.00  0.00     0.241 C 
HETATM   24  N   UNL     1      43.330 -17.643   6.273  1.00  0.00    -0.326 N 
HETATM   25  H   UNL     1      42.584 -17.969   6.881  1.00  0.00     0.169 HD
HETATM   26  O   UNL     1      45.214 -16.278   6.314  1.00  0.00    -0.271 OA
BRANCH  24  27
HETATM   27  C   UNL     1      43.540 -18.379   5.088  1.00  0.00     0.037 A 
HETATM   28  C   UNL     1      43.352 -17.847   3.812  1.00  0.00     0.072 A 
HETATM   29  C   UNL     1      43.497 -18.661   2.690  1.00  0.00     0.124 A 
HETATM   30  F   UNL     1      43.268 -18.133   1.478  1.00  0.00    -0.205 F 
HETATM   31  C   UNL     1      43.849 -20.007   2.805  1.00  0.00    -0.023 A 
HETATM   32  C   UNL     1      43.945 -20.878   1.590  1.00  0.00     0.051 C 
HETATM   33  C   UNL     1      44.038 -20.538   4.084  1.00  0.00     0.012 A 
HETATM   34  C   UNL     1      43.882 -19.731   5.216  1.00  0.00     0.030 A 
ENDBRANCH  24  27
ENDBRANCH  22  23
ENDBRANCH   4  22
TORSDOF 8
ENDMDL
MODEL 2
REMARK VINA RESULT:      -7.8      4.724      7.795
REMARK  8 active torsions:
REMARK  status: ('A' for Active; 'I' for Inactive)
REMARK    1  A    between atoms: C_2  and  O_3 
REMARK    2  A    between atoms: O_3  and  C_4 
REMARK    3  A    between atoms: C_5  and  N_6 
REMARK       I    between atoms: N_6  and  C_7 
REMARK    4  A    between atoms: C_7  and  C_8 
REMARK    5  A    between atoms: N_11  and  C_12 
REMARK    6  A    between atoms: C_12  and  C_13 
REMARK       I    between atoms: C_13  and  N_14 
REMARK    7  A    between atoms: N_14  and  C_15 
REMARK    8  A    between atoms: C_24  and  N_25 
ROOT
HETATM    1  C   UNL     1      41.833 -13.215   5.833  1.00  0.00     0.187 C 
HETATM    2  N   UNL     1      41.884 -11.918   5.367  1.00  0.00    -0.150 NA
HETATM    3  N   UNL     1      43.100 -11.442   5.595  1.00  0.00     0.007 NA
HETATM    4  N   UNL     1      43.789 -12.401   6.244  1.00  0.00    -0.248 N 
HETATM    5  C   UNL     1      43.082 -13.575   6.313  1.00  0.00     0.151 C 
ENDROOT
BRANCH   1   6
HETATM    6  C   UNL     1      40.645 -14.043   5.786  1.00  0.00     0.280 C 
HETATM    7  N   UNL     1      40.644 -15.218   5.065  1.00  0.00    -0.319 N 
HETATM    8  H   UNL     1      39.931 -15.853   5.395  1.00  0.00     0.169 HD
HETATM    9  O   UNL     1      39.639 -13.768   6.446  1.00  0.00    -0.265 OA
BRANCH   7  10
HETATM   10  C   UNL     1      41.372 -15.628   3.926  1.00  0.00     0.068 A 
HETATM   11  C   UNL     1      42.473 -16.498   3.910  1.00  0.00     0.095 A 
HETATM   12  C   UNL     1      43.107 -16.830   2.705  1.00  0.00     0.039 A 
HETATM   13  C   UNL     1      42.697 -16.247   1.510  1.00  0.00     0.003 A 
HETATM   14  C   UNL     1      41.648 -15.335   1.516  1.00  0.00     0.002 A 
HETATM   15  C   UNL     1      40.994 -15.027   2.716  1.00  0.00     0.032 A 
BRANCH  11  16
HETATM   16  O   UNL     1      43.010 -17.050   5.039  1.00  0.00    -0.349 OA
BRANCH  16  17
HETATM   17  C   UNL     1      44.171 -17.835   4.746  1.00  0.00     0.171 C 
HETATM   18  C   UNL     1      43.939 -19.225   5.312  1.00  0.00     0.034 C 
ENDBRANCH  16  17
ENDBRANCH  11  16
ENDBRANCH   7  10
ENDBRANCH   1   6
BRANCH   5  19
HETATM   19  N   UNL     1      43.575 -14.724   6.836  1.00  0.00    -0.382 N 
HETATM   20  H   UNL     1      43.029 -15.591   6.864  1.00  0.00     0.157 HD
HETATM   21  H   UNL     1      44.214 -14.658   7.631  1.00  0.00     0.157 HD
ENDBRANCH   5  19
BRANCH   4  22
HETATM   22  C   UNL     1      45.027 -12.058   6.895  1.00  0.00     0.251 C 
BRANCH  22  23
HETATM   23  C   UNL     1      44.880 -10.844   7.776  1.00  0.00     0.241 C 
HETATM   24  N   UNL     1      43.757 -10.878   8.584  1.00  0.00    -0.326 N 
HETATM   25  H   UNL     1      43.004 -11.501   8.309  1.00  0.00     0.169 HD
HETATM   26  O   UNL     1      45.712  -9.940   7.740  1.00  0.00    -0.271 OA
BRANCH  24  27
HETATM   27  C   UNL     1      43.516 -10.064   9.711  1.00  0.00     0.037 A 
HETATM   28  C   UNL     1      43.320  -8.686   9.633  1.00  0.00     0.072 A 
HETATM   29  C   UNL     1      43.173  -7.936  10.799  1.00  0.00     0.124 A 
HETATM   30  F   UNL     1      43.029  -6.606  10.695  1.00  0.00    -0.205 F 
HETATM   31  C   UNL     1      43.196  -8.534  12.060  1.00  0.00    -0.023 A 
HETATM   32  C   UNL     1      43.091  -7.704  13.302  1.00  0.00     0.051 C 
HETATM   33  C   UNL     1      43.391  -9.916  12.137  1.00  0.00     0.012 A 
HETATM   34  C   UNL     1      43.553 -10.674  10.972  1.00  0.00     0.030 A 
ENDBRANCH  24  27
ENDBRANCH  22  23
ENDBRANCH   4  22
TORSDOF 8
ENDMDL
MODEL 3
REMARK VINA RESULT:      -7.8      2.303      4.438
REMARK  8 active torsions:
REMARK  status: ('A' for Active; 'I' for Inactive)
REMARK    1  A    between atoms: C_2  and  O_3 
REMARK    2  A    between atoms: O_3  and  C_4 
REMARK    3  A    between atoms: C_5  and  N_6 
REMARK       I    between atoms: N_6  and  C_7 
REMARK    4  A    between atoms: C_7  and  C_8 
REMARK    5  A    between atoms: N_11  and  C_12 
REMARK    6  A    between atoms: C_12  and  C_13 
REMARK       I    between atoms: C_13  and  N_14 
REMARK    7  A    between atoms: N_14  and  C_15 
REMARK    8  A    between atoms: C_24  and  N_25 
ROOT
HETATM    1  C   UNL     1      40.558 -12.189   3.474  1.00  0.00     0.187 C 
HETATM    2  N   UNL     1      41.779 -11.764   2.994  1.00  0.00    -0.150 NA
HETATM    3  N   UNL     1      42.030 -12.410   1.864  1.00  0.00     0.007 NA
HETATM    4  N   UNL     1      41.012 -13.270   1.663  1.00  0.00    -0.248 N 
HETATM    5  C   UNL     1      40.005 -13.088   2.576  1.00  0.00     0.151 C 
ENDROOT
BRANCH   1   6
HETATM    6  C   UNL     1      39.971 -11.723   4.714  1.00  0.00     0.280 C 
HETATM    7  N   UNL     1      40.469 -12.155   5.925  1.00  0.00    -0.319 N 
HETATM    8  H   UNL     1      40.238 -11.512   6.669  1.00  0.00     0.169 HD
HETATM    9  O   UNL     1      39.073 -10.876   4.726  1.00  0.00    -0.265 OA
BRANCH   7  10
HETATM   10  C   UNL     1      41.132 -13.342   6.305  1.00  0.00     0.068 A 
HETATM   11  C   UNL     1      42.517 -13.514   6.449  1.00  0.00     0.095 A 
HETATM   12  C   UNL     1      43.049 -14.751   6.838  1.00  0.00     0.039 A 
HETATM   13  C   UNL     1      42.217 -15.850   7.020  1.00  0.00     0.003 A 
HETATM   14  C   UNL     1      40.847 -15.714   6.821  1.00  0.00     0.002 A 
HETATM   15  C   UNL     1      40.311 -14.471   6.462  1.00  0.00     0.032 A 
BRANCH  11  16
HETATM   16  O   UNL     1      43.425 -12.524   6.203  1.00  0.00    -0.349 OA
BRANCH  16  17
HETATM   17  C   UNL     1      44.077 -12.090   7.401  1.00  0.00     0.171 C 
HETATM   18  C   UNL     1      45.372 -11.408   6.997  1.00  0.00     0.034 C 
ENDBRANCH  16  17
ENDBRANCH  11  16
ENDBRANCH   7  10
ENDBRANCH   1   6
BRANCH   5  19
HETATM   19  N   UNL     1      38.829 -13.762   2.548  1.00  0.00    -0.382 N 
HETATM   20  H   UNL     1      38.023 -13.479   3.116  1.00  0.00     0.157 HD
HETATM   21  H   UNL     1      38.855 -14.774   2.412  1.00  0.00     0.157 HD
ENDBRANCH   5  19
BRANCH   4  22
HETATM   22  C   UNL     1      41.163 -14.320   0.689  1.00  0.00     0.251 C 
BRANCH  22  23
HETATM   23  C   UNL     1      41.329 -15.669   1.339  1.00  0.00     0.241 C 
HETATM   24  N   UNL     1      42.650 -16.061   1.475  1.00  0.00    -0.326 N 
HETATM   25  H   UNL     1      43.334 -15.605   0.878  1.00  0.00     0.169 HD
HETATM   26  O   UNL     1      40.348 -16.318   1.697  1.00  0.00    -0.271 OA
BRANCH  24  27
HETATM   27  C   UNL     1      43.131 -17.097   2.303  1.00  0.00     0.037 A 
HETATM   28  C   UNL     1      43.190 -18.432   1.903  1.00  0.00     0.072 A 
HETATM   29  C   UNL     1      43.597 -19.412   2.807  1.00  0.00     0.124 A 
HETATM   30  F   UNL     1      43.602 -20.693   2.409  1.00  0.00    -0.205 F 
HETATM   31  C   UNL     1      43.974 -19.090   4.112  1.00  0.00    -0.023 A 
HETATM   32  C   UNL     1      44.356 -20.164   5.084  1.00  0.00     0.051 C 
HETATM   33  C   UNL     1      43.917 -17.752   4.511  1.00  0.00     0.012 A 
HETATM   34  C   UNL     1      43.496 -16.764   3.614  1.00  0.00     0.030 A 
ENDBRANCH  24  27
ENDBRANCH  22  23
ENDBRANCH   4  22
TORSDOF 8
ENDMDL
MODEL 4
REMARK VINA RESULT:      -7.7      4.802      7.624
REMARK  8 active torsions:
REMARK  status: ('A' for Active; 'I' for Inactive)
REMARK    1  A    between atoms: C_2  and  O_3 
REMARK    2  A    between atoms: O_3  and  C_4 
REMARK    3  A    between atoms: C_5  and  N_6 
REMARK       I    between atoms: N_6  and  C_7 
REMARK    4  A    between atoms: C_7  and  C_8 
REMARK    5  A    between atoms: N_11  and  C_12 
REMARK    6  A    between atoms: C_12  and  C_13 
REMARK       I    between atoms: C_13  and  N_14 
REMARK    7  A    between atoms: N_14  and  C_15 
REMARK    8  A    between atoms: C_24  and  N_25 
ROOT
HETATM    1  C   UNL     1      41.711 -12.922   5.850  1.00  0.00     0.187 C 
HETATM    2  N   UNL     1      41.994 -11.813   5.081  1.00  0.00    -0.150 NA
HETATM    3  N   UNL     1      43.258 -11.472   5.291  1.00  0.00     0.007 NA
HETATM    4  N   UNL     1      43.749 -12.317   6.220  1.00  0.00    -0.248 N 
HETATM    5  C   UNL     1      42.860 -13.318   6.516  1.00  0.00     0.151 C 
ENDROOT
BRANCH   1   6
HETATM    6  C   UNL     1      40.410 -13.557   5.904  1.00  0.00     0.280 C 
HETATM    7  N   UNL     1      40.225 -14.813   5.367  1.00  0.00    -0.319 N 
HETATM    8  H   UNL     1      39.423 -15.273   5.774  1.00  0.00     0.169 HD
HETATM    9  O   UNL     1      39.461 -13.034   6.496  1.00  0.00    -0.265 OA
BRANCH   7  10
HETATM   10  C   UNL     1      40.876 -15.497   4.317  1.00  0.00     0.068 A 
HETATM   11  C   UNL     1      40.564 -15.416   2.951  1.00  0.00     0.095 A 
HETATM   12  C   UNL     1      41.294 -16.147   2.004  1.00  0.00     0.039 A 
HETATM   13  C   UNL     1      42.299 -17.020   2.411  1.00  0.00     0.003 A 
HETATM   14  C   UNL     1      42.580 -17.159   3.765  1.00  0.00     0.002 A 
HETATM   15  C   UNL     1      41.871 -16.406   4.709  1.00  0.00     0.032 A 
BRANCH  11  16
HETATM   16  O   UNL     1      39.536 -14.662   2.460  1.00  0.00    -0.349 OA
BRANCH  16  17
HETATM   17  C   UNL     1      39.967 -13.343   2.104  1.00  0.00     0.171 C 
HETATM   18  C   UNL     1      38.975 -12.361   2.699  1.00  0.00     0.034 C 
ENDBRANCH  16  17
ENDBRANCH  11  16
ENDBRANCH   7  10
ENDBRANCH   1   6
BRANCH   5  19
HETATM   19  N   UNL     1      43.134 -14.349   7.353  1.00  0.00    -0.382 N 
HETATM   20  H   UNL     1      43.581 -15.213   7.028  1.00  0.00     0.157 HD
HETATM   21  H   UNL     1      42.491 -14.527   8.127  1.00  0.00     0.157 HD
ENDBRANCH   5  19
BRANCH   4  22
HETATM   22  C   UNL     1      44.991 -11.995   6.873  1.00  0.00     0.251 C 
BRANCH  22  23
HETATM   23  C   UNL     1      44.859 -10.791   7.770  1.00  0.00     0.241 C 
HETATM   24  N   UNL     1      43.719 -10.806   8.555  1.00  0.00    -0.326 N 
HETATM   25  H   UNL     1      42.955 -11.405   8.255  1.00  0.00     0.169 HD
HETATM   26  O   UNL     1      45.714  -9.908   7.765  1.00  0.00    -0.271 OA
BRANCH  24  27
HETATM   27  C   UNL     1      43.476 -10.003   9.689  1.00  0.00     0.037 A 
HETATM   28  C   UNL     1      43.258  -8.627   9.621  1.00  0.00     0.072 A 
HETATM   29  C   UNL     1      43.111  -7.887  10.793  1.00  0.00     0.124 A 
HETATM   30  F   UNL     1      42.946  -6.559  10.698  1.00  0.00    -0.205 F 
HETATM   31  C   UNL     1      43.155  -8.492  12.050  1.00  0.00    -0.023 A 
HETATM   32  C   UNL     1      43.050  -7.671  13.298  1.00  0.00     0.051 C 
HETATM   33  C   UNL     1      43.372  -9.871  12.116  1.00  0.00     0.012 A 
HETATM   34  C   UNL     1      43.534 -10.620  10.946  1.00  0.00     0.030 A 
ENDBRANCH  24  27
ENDBRANCH  22  23
ENDBRANCH   4  22
TORSDOF 8
ENDMDL
MODEL 5
REMARK VINA RESULT:      -7.5      3.152      4.411
REMARK  8 active torsions:
REMARK  status: ('A' for Active; 'I' for Inactive)
REMARK    1  A    between atoms: C_2  and  O_3 
REMARK    2  A    between atoms: O_3  and  C_4 
REMARK    3  A    between atoms: C_5  and  N_6 
REMARK       I    between atoms: N_6  and  C_7 
REMARK    4  A    between atoms: C_7  and  C_8 
REMARK    5  A    between atoms: N_11  and  C_12 
REMARK    6  A    between atoms: C_12  and  C_13 
REMARK       I    between atoms: C_13  and  N_14 
REMARK    7  A    between atoms: N_14  and  C_15 
REMARK    8  A    between atoms: C_24  and  N_25 
ROOT
HETATM    1  C   UNL     1      40.595 -11.206   2.109  1.00  0.00     0.187 C 
HETATM    2  N   UNL     1      41.931 -10.917   1.926  1.00  0.00    -0.150 NA
HETATM    3  N   UNL     1      42.641 -11.726   2.700  1.00  0.00     0.007 NA
HETATM    4  N   UNL     1      41.767 -12.473   3.403  1.00  0.00    -0.248 N 
HETATM    5  C   UNL     1      40.477 -12.273   2.985  1.00  0.00     0.151 C 
ENDROOT
BRANCH   1   6
HETATM    6  C   UNL     1      39.517 -10.496   1.450  1.00  0.00     0.280 C 
HETATM    7  N   UNL     1      39.009 -10.957   0.255  1.00  0.00    -0.319 N 
HETATM    8  H   UNL     1      38.072 -10.614   0.095  1.00  0.00     0.169 HD
HETATM    9  O   UNL     1      38.974  -9.518   1.972  1.00  0.00    -0.265 OA
BRANCH   7  10
HETATM   10  C   UNL     1      39.587 -11.712  -0.790  1.00  0.00     0.068 A 
HETATM   11  C   UNL     1      39.811 -13.097  -0.791  1.00  0.00     0.095 A 
HETATM   12  C   UNL     1      40.393 -13.728  -1.899  1.00  0.00     0.039 A 
HETATM   13  C   UNL     1      40.822 -12.980  -2.990  1.00  0.00     0.003 A 
HETATM   14  C   UNL     1      40.664 -11.599  -2.980  1.00  0.00     0.002 A 
HETATM   15  C   UNL     1      40.055 -10.971  -1.886  1.00  0.00     0.032 A 
BRANCH  11  16
HETATM   16  O   UNL     1      39.512 -13.906   0.269  1.00  0.00    -0.349 OA
BRANCH  16  17
HETATM   17  C   UNL     1      40.538 -14.876   0.504  1.00  0.00     0.171 C 
HETATM   18  C   UNL     1      39.972 -15.924   1.445  1.00  0.00     0.034 C 
ENDBRANCH  16  17
ENDBRANCH  11  16
ENDBRANCH   7  10
ENDBRANCH   1   6
BRANCH   5  19
HETATM   19  N   UNL     1      39.412 -12.963   3.464  1.00  0.00    -0.382 N 
HETATM   20  H   UNL     1      38.522 -12.507   3.690  1.00  0.00     0.157 HD
HETATM   21  H   UNL     1      39.589 -13.763   4.075  1.00  0.00     0.157 HD
ENDBRANCH   5  19
BRANCH   4  22
HETATM   22  C   UNL     1      42.238 -13.214   4.545  1.00  0.00     0.251 C 
BRANCH  22  23
HETATM   23  C   UNL     1      42.067 -14.700   4.361  1.00  0.00     0.241 C 
HETATM   24  N   UNL     1      43.138 -15.306   3.726  1.00  0.00    -0.326 N 
HETATM   25  H   UNL     1      43.754 -14.711   3.180  1.00  0.00     0.169 HD
HETATM   26  O   UNL     1      41.053 -15.269   4.758  1.00  0.00    -0.271 OA
BRANCH  24  27
HETATM   27  C   UNL     1      43.411 -16.690   3.690  1.00  0.00     0.037 A 
HETATM   28  C   UNL     1      43.210 -17.482   2.560  1.00  0.00     0.072 A 
HETATM   29  C   UNL     1      43.421 -18.858   2.627  1.00  0.00     0.124 A 
HETATM   30  F   UNL     1      43.179 -19.600   1.536  1.00  0.00    -0.205 F 
HETATM   31  C   UNL     1      43.854 -19.474   3.802  1.00  0.00    -0.023 A 
HETATM   32  C   UNL     1      44.022 -20.961   3.869  1.00  0.00     0.051 C 
HETATM   33  C   UNL     1      44.056 -18.679   4.934  1.00  0.00     0.012 A 
HETATM   34  C   UNL     1      43.833 -17.299   4.879  1.00  0.00     0.030 A 
ENDBRANCH  24  27
ENDBRANCH  22  23
ENDBRANCH   4  22
TORSDOF 8
ENDMDL
MODEL 6
REMARK VINA RESULT:      -7.4      3.724      7.031
REMARK  8 active torsions:
REMARK  status: ('A' for Active; 'I' for Inactive)
REMARK    1  A    between atoms: C_2  and  O_3 
REMARK    2  A    between atoms: O_3  and  C_4 
REMARK    3  A    between atoms: C_5  and  N_6 
REMARK       I    between atoms: N_6  and  C_7 
REMARK    4  A    between atoms: C_7  and  C_8 
REMARK    5  A    between atoms: N_11  and  C_12 
REMARK    6  A    between atoms: C_12  and  C_13 
REMARK       I    between atoms: C_13  and  N_14 
REMARK    7  A    between atoms: N_14  and  C_15 
REMARK    8  A    between atoms: C_24  and  N_25 
ROOT
HETATM    1  C   UNL     1      41.743 -14.402   2.236  1.00  0.00     0.187 C 
HETATM    2  N   UNL     1      43.117 -14.349   2.139  1.00  0.00    -0.150 NA
HETATM    3  N   UNL     1      43.512 -13.133   2.490  1.00  0.00     0.007 NA
HETATM    4  N   UNL     1      42.402 -12.413   2.750  1.00  0.00    -0.248 N 
HETATM    5  C   UNL     1      41.274 -13.193   2.722  1.00  0.00     0.151 C 
ENDROOT
BRANCH   1   6
HETATM    6  C   UNL     1      40.955 -15.570   1.895  1.00  0.00     0.280 C 
HETATM    7  N   UNL     1      41.148 -16.760   2.564  1.00  0.00    -0.319 N 
HETATM    8  H   UNL     1      40.335 -17.355   2.500  1.00  0.00     0.169 HD
HETATM    9  O   UNL     1      40.042 -15.513   1.065  1.00  0.00    -0.265 OA
BRANCH   7  10
HETATM   10  C   UNL     1      42.279 -17.308   3.208  1.00  0.00     0.068 A 
HETATM   11  C   UNL     1      42.752 -16.977   4.487  1.00  0.00     0.095 A 
HETATM   12  C   UNL     1      43.890 -17.601   5.015  1.00  0.00     0.039 A 
HETATM   13  C   UNL     1      44.612 -18.511   4.251  1.00  0.00     0.003 A 
HETATM   14  C   UNL     1      44.194 -18.805   2.958  1.00  0.00     0.002 A 
HETATM   15  C   UNL     1      43.039 -18.205   2.440  1.00  0.00     0.032 A 
BRANCH  11  16
HETATM   16  O   UNL     1      42.169 -16.028   5.279  1.00  0.00    -0.349 OA
BRANCH  16  17
HETATM   17  C   UNL     1      43.094 -14.997   5.641  1.00  0.00     0.171 C 
HETATM   18  C   UNL     1      42.896 -14.701   7.118  1.00  0.00     0.034 C 
ENDBRANCH  16  17
ENDBRANCH  11  16
ENDBRANCH   7  10
ENDBRANCH   1   6
BRANCH   5  19
HETATM   19  N   UNL     1      40.034 -12.739   3.032  1.00  0.00    -0.382 N 
HETATM   20  H   UNL     1      39.624 -12.863   3.963  1.00  0.00     0.157 HD
HETATM   21  H   UNL     1      39.319 -12.751   2.302  1.00  0.00     0.157 HD
ENDBRANCH   5  19
BRANCH   4  22
HETATM   22  C   UNL     1      42.503 -10.980   2.849  1.00  0.00     0.251 C 
BRANCH  22  23
HETATM   23  C   UNL     1      42.560 -10.519   4.282  1.00  0.00     0.241 C 
HETATM   24  N   UNL     1      43.310 -11.346   5.101  1.00  0.00    -0.326 N 
HETATM   25  H   UNL     1      43.472 -12.296   4.780  1.00  0.00     0.169 HD
HETATM   26  O   UNL     1      41.979  -9.494   4.635  1.00  0.00    -0.271 OA
BRANCH  24  27
HETATM   27  C   UNL     1      43.800 -11.026   6.385  1.00  0.00     0.037 A 
HETATM   28  C   UNL     1      42.991 -10.551   7.417  1.00  0.00     0.072 A 
HETATM   29  C   UNL     1      43.561 -10.174   8.632  1.00  0.00     0.124 A 
HETATM   30  F   UNL     1      42.765  -9.681   9.591  1.00  0.00    -0.205 F 
HETATM   31  C   UNL     1      44.935 -10.280   8.857  1.00  0.00    -0.023 A 
HETATM   32  C   UNL     1      45.535  -9.819  10.150  1.00  0.00     0.051 C 
HETATM   33  C   UNL     1      45.744 -10.757   7.823  1.00  0.00     0.012 A 
HETATM   34  C   UNL     1      45.181 -11.125   6.595  1.00  0.00     0.030 A 
ENDBRANCH  24  27
ENDBRANCH  22  23
ENDBRANCH   4  22
TORSDOF 8
ENDMDL
MODEL 7
REMARK VINA RESULT:      -7.3      4.356      7.365
REMARK  8 active torsions:
REMARK  status: ('A' for Active; 'I' for Inactive)
REMARK    1  A    between atoms: C_2  and  O_3 
REMARK    2  A    between atoms: O_3  and  C_4 
REMARK    3  A    between atoms: C_5  and  N_6 
REMARK       I    between atoms: N_6  and  C_7 
REMARK    4  A    between atoms: C_7  and  C_8 
REMARK    5  A    between atoms: N_11  and  C_12 
REMARK    6  A    between atoms: C_12  and  C_13 
REMARK       I    between atoms: C_13  and  N_14 
REMARK    7  A    between atoms: N_14  and  C_15 
REMARK    8  A    between atoms: C_24  and  N_25 
ROOT
HETATM    1  C   UNL     1      40.989 -13.002   4.022  1.00  0.00     0.187 C 
HETATM    2  N   UNL     1      40.681 -12.320   5.180  1.00  0.00    -0.150 NA
HETATM    3  N   UNL     1      41.773 -11.695   5.598  1.00  0.00     0.007 NA
HETATM    4  N   UNL     1      42.768 -12.023   4.750  1.00  0.00    -0.248 N 
HETATM    5  C   UNL     1      42.306 -12.742   3.678  1.00  0.00     0.151 C 
ENDROOT
BRANCH   1   6
HETATM    6  C   UNL     1      40.046 -13.829   3.297  1.00  0.00     0.280 C 
HETATM    7  N   UNL     1      40.176 -15.202   3.304  1.00  0.00    -0.319 N 
HETATM    8  H   UNL     1      39.300 -15.656   3.090  1.00  0.00     0.169 HD
HETATM    9  O   UNL     1      39.064 -13.343   2.728  1.00  0.00    -0.265 OA
BRANCH   7  10
HETATM   10  C   UNL     1      41.300 -16.043   3.451  1.00  0.00     0.068 A 
HETATM   11  C   UNL     1      41.896 -16.433   4.660  1.00  0.00     0.095 A 
HETATM   12  C   UNL     1      43.012 -17.281   4.669  1.00  0.00     0.039 A 
HETATM   13  C   UNL     1      43.591 -17.695   3.474  1.00  0.00     0.003 A 
HETATM   14  C   UNL     1      43.051 -17.268   2.266  1.00  0.00     0.002 A 
HETATM   15  C   UNL     1      41.918 -16.446   2.256  1.00  0.00     0.032 A 
BRANCH  11  16
HETATM   16  O   UNL     1      41.461 -16.006   5.883  1.00  0.00    -0.349 OA
BRANCH  16  17
HETATM   17  C   UNL     1      42.419 -15.154   6.520  1.00  0.00     0.171 C 
HETATM   18  C   UNL     1      42.836 -15.823   7.818  1.00  0.00     0.034 C 
ENDBRANCH  16  17
ENDBRANCH  11  16
ENDBRANCH   7  10
ENDBRANCH   1   6
BRANCH   5  19
HETATM   19  N   UNL     1      43.081 -13.124   2.633  1.00  0.00    -0.382 N 
HETATM   20  H   UNL     1      42.831 -13.911   2.026  1.00  0.00     0.157 HD
HETATM   21  H   UNL     1      44.094 -13.026   2.723  1.00  0.00     0.157 HD
ENDBRANCH   5  19
BRANCH   4  22
HETATM   22  C   UNL     1      44.131 -11.749   5.129  1.00  0.00     0.251 C 
BRANCH  22  23
HETATM   23  C   UNL     1      44.280 -11.599   6.621  1.00  0.00     0.241 C 
HETATM   24  N   UNL     1      44.135 -10.295   7.064  1.00  0.00    -0.326 N 
HETATM   25  H   UNL     1      44.261  -9.554   6.380  1.00  0.00     0.169 HD
HETATM   26  O   UNL     1      44.507 -12.576   7.330  1.00  0.00    -0.271 OA
BRANCH  24  27
HETATM   27  C   UNL     1      43.913  -9.887   8.396  1.00  0.00     0.037 A 
HETATM   28  C   UNL     1      42.653  -9.555   8.895  1.00  0.00     0.072 A 
HETATM   29  C   UNL     1      42.525  -9.079  10.199  1.00  0.00     0.124 A 
HETATM   30  F   UNL     1      41.308  -8.727  10.638  1.00  0.00    -0.205 F 
HETATM   31  C   UNL     1      43.632  -8.942  11.039  1.00  0.00    -0.023 A 
HETATM   32  C   UNL     1      43.480  -8.376  12.417  1.00  0.00     0.051 C 
HETATM   33  C   UNL     1      44.893  -9.276  10.537  1.00  0.00     0.012 A 
HETATM   34  C   UNL     1      45.032  -9.743   9.225  1.00  0.00     0.030 A 
ENDBRANCH  24  27
ENDBRANCH  22  23
ENDBRANCH   4  22
TORSDOF 8
ENDMDL
MODEL 8
REMARK VINA RESULT:      -7.2      3.594      4.667
REMARK  8 active torsions:
REMARK  status: ('A' for Active; 'I' for Inactive)
REMARK    1  A    between atoms: C_2  and  O_3 
REMARK    2  A    between atoms: O_3  and  C_4 
REMARK    3  A    between atoms: C_5  and  N_6 
REMARK       I    between atoms: N_6  and  C_7 
REMARK    4  A    between atoms: C_7  and  C_8 
REMARK    5  A    between atoms: N_11  and  C_12 
REMARK    6  A    between atoms: C_12  and  C_13 
REMARK       I    between atoms: C_13  and  N_14 
REMARK    7  A    between atoms: N_14  and  C_15 
REMARK    8  A    between atoms: C_24  and  N_25 
ROOT
HETATM    1  C   UNL     1      39.317 -11.681   1.921  1.00  0.00     0.187 C 
HETATM    2  N   UNL     1      40.304 -10.735   2.104  1.00  0.00    -0.150 NA
HETATM    3  N   UNL     1      41.253 -11.265   2.863  1.00  0.00     0.007 NA
HETATM    4  N   UNL     1      40.845 -12.505   3.202  1.00  0.00    -0.248 N 
HETATM    5  C   UNL     1      39.697 -12.860   2.542  1.00  0.00     0.151 C 
ENDROOT
BRANCH   1   6
HETATM    6  C   UNL     1      38.100 -11.443   1.171  1.00  0.00     0.280 C 
HETATM    7  N   UNL     1      37.953 -11.961  -0.099  1.00  0.00    -0.319 N 
HETATM    8  H   UNL     1      36.979 -12.040  -0.354  1.00  0.00     0.169 HD
HETATM    9  O   UNL     1      37.140 -10.848   1.668  1.00  0.00    -0.265 OA
BRANCH   7  10
HETATM   10  C   UNL     1      38.894 -12.289  -1.099  1.00  0.00     0.068 A 
HETATM   11  C   UNL     1      39.508 -11.396  -1.991  1.00  0.00     0.095 A 
HETATM   12  C   UNL     1      40.432 -11.852  -2.940  1.00  0.00     0.039 A 
HETATM   13  C   UNL     1      40.706 -13.211  -3.060  1.00  0.00     0.003 A 
HETATM   14  C   UNL     1      40.060 -14.117  -2.226  1.00  0.00     0.002 A 
HETATM   15  C   UNL     1      39.159 -13.659  -1.257  1.00  0.00     0.032 A 
BRANCH  11  16
HETATM   16  O   UNL     1      39.237 -10.057  -2.017  1.00  0.00    -0.349 OA
BRANCH  16  17
HETATM   17  C   UNL     1      40.186  -9.308  -1.251  1.00  0.00     0.171 C 
HETATM   18  C   UNL     1      39.412  -8.300  -0.421  1.00  0.00     0.034 C 
ENDBRANCH  16  17
ENDBRANCH  11  16
ENDBRANCH   7  10
ENDBRANCH   1   6
BRANCH   5  19
HETATM   19  N   UNL     1      39.120 -14.084   2.633  1.00  0.00    -0.382 N 
HETATM   20  H   UNL     1      39.646 -14.916   2.916  1.00  0.00     0.157 HD
HETATM   21  H   UNL     1      38.375 -14.316   1.973  1.00  0.00     0.157 HD
ENDBRANCH   5  19
BRANCH   4  22
HETATM   22  C   UNL     1      41.519 -13.197   4.270  1.00  0.00     0.251 C 
BRANCH  22  23
HETATM   23  C   UNL     1      42.410 -14.297   3.753  1.00  0.00     0.241 C 
HETATM   24  N   UNL     1      42.187 -15.522   4.358  1.00  0.00    -0.326 N 
HETATM   25  H   UNL     1      41.717 -15.517   5.259  1.00  0.00     0.169 HD
HETATM   26  O   UNL     1      43.238 -14.071   2.873  1.00  0.00    -0.271 OA
BRANCH  24  27
HETATM   27  C   UNL     1      42.628 -16.776   3.887  1.00  0.00     0.037 A 
HETATM   28  C   UNL     1      43.539 -17.577   4.576  1.00  0.00     0.072 A 
HETATM   29  C   UNL     1      43.992 -18.765   4.006  1.00  0.00     0.124 A 
HETATM   30  F   UNL     1      44.900 -19.493   4.673  1.00  0.00    -0.205 F 
HETATM   31  C   UNL     1      43.540 -19.195   2.757  1.00  0.00    -0.023 A 
HETATM   32  C   UNL     1      44.080 -20.447   2.138  1.00  0.00     0.051 C 
HETATM   33  C   UNL     1      42.626 -18.393   2.069  1.00  0.00     0.012 A 
HETATM   34  C   UNL     1      42.175 -17.192   2.628  1.00  0.00     0.030 A 
ENDBRANCH  24  27
ENDBRANCH  22  23
ENDBRANCH   4  22
TORSDOF 8
ENDMDL
MODEL 9
REMARK VINA RESULT:      -7.2      3.625      7.119
REMARK  8 active torsions:
REMARK  status: ('A' for Active; 'I' for Inactive)
REMARK    1  A    between atoms: C_2  and  O_3 
REMARK    2  A    between atoms: O_3  and  C_4 
REMARK    3  A    between atoms: C_5  and  N_6 
REMARK       I    between atoms: N_6  and  C_7 
REMARK    4  A    between atoms: C_7  and  C_8 
REMARK    5  A    between atoms: N_11  and  C_12 
REMARK    6  A    between atoms: C_12  and  C_13 
REMARK       I    between atoms: C_13  and  N_14 
REMARK    7  A    between atoms: N_14  and  C_15 
REMARK    8  A    between atoms: C_24  and  N_25 
ROOT
HETATM    1  C   UNL     1      40.455 -14.101   2.718  1.00  0.00     0.187 C 
HETATM    2  N   UNL     1      39.608 -13.140   3.229  1.00  0.00    -0.150 NA
HETATM    3  N   UNL     1      40.204 -11.961   3.120  1.00  0.00     0.007 NA
HETATM    4  N   UNL     1      41.429 -12.180   2.603  1.00  0.00    -0.248 N 
HETATM    5  C   UNL     1      41.593 -13.487   2.221  1.00  0.00     0.151 C 
ENDROOT
BRANCH   1   6
HETATM    6  C   UNL     1      40.152 -15.518   2.702  1.00  0.00     0.280 C 
HETATM    7  N   UNL     1      40.469 -16.310   3.784  1.00  0.00    -0.319 N 
HETATM    8  H   UNL     1      39.906 -17.148   3.806  1.00  0.00     0.169 HD
HETATM    9  O   UNL     1      39.536 -16.036   1.765  1.00  0.00    -0.265 OA
BRANCH   7  10
HETATM   10  C   UNL     1      41.475 -16.205   4.770  1.00  0.00     0.068 A 
HETATM   11  C   UNL     1      42.861 -16.269   4.556  1.00  0.00     0.095 A 
HETATM   12  C   UNL     1      43.758 -16.145   5.625  1.00  0.00     0.039 A 
HETATM   13  C   UNL     1      43.288 -16.026   6.929  1.00  0.00     0.003 A 
HETATM   14  C   UNL     1      41.918 -16.023   7.166  1.00  0.00     0.002 A 
HETATM   15  C   UNL     1      41.020 -16.116   6.095  1.00  0.00     0.032 A 
BRANCH  11  16
HETATM   16  O   UNL     1      43.421 -16.477   3.327  1.00  0.00    -0.349 OA
BRANCH  16  17
HETATM   17  C   UNL     1      43.216 -17.818   2.870  1.00  0.00     0.171 C 
HETATM   18  C   UNL     1      44.236 -18.701   3.568  1.00  0.00     0.034 C 
ENDBRANCH  16  17
ENDBRANCH  11  16
ENDBRANCH   7  10
ENDBRANCH   1   6
BRANCH   5  19
HETATM   19  N   UNL     1      42.699 -13.957   1.593  1.00  0.00    -0.382 N 
HETATM   20  H   UNL     1      42.833 -13.866   0.581  1.00  0.00     0.157 HD
HETATM   21  H   UNL     1      43.134 -14.808   1.955  1.00  0.00     0.157 HD
ENDBRANCH   5  19
BRANCH   4  22
HETATM   22  C   UNL     1      42.414 -11.130   2.665  1.00  0.00     0.251 C 
BRANCH  22  23
HETATM   23  C   UNL     1      42.536 -10.556   4.052  1.00  0.00     0.241 C 
HETATM   24  N   UNL     1      43.124 -11.419   4.961  1.00  0.00    -0.326 N 
HETATM   25  H   UNL     1      43.124 -12.408   4.730  1.00  0.00     0.169 HD
HETATM   26  O   UNL     1      42.136  -9.419   4.298  1.00  0.00    -0.271 OA
BRANCH  24  27
HETATM   27  C   UNL     1      43.649 -11.071   6.223  1.00  0.00     0.037 A 
HETATM   28  C   UNL     1      42.879 -10.518   7.246  1.00  0.00     0.072 A 
HETATM   29  C   UNL     1      43.486 -10.119   8.436  1.00  0.00     0.124 A 
HETATM   30  F   UNL     1      42.729  -9.551   9.386  1.00  0.00    -0.205 F 
HETATM   31  C   UNL     1      44.857 -10.279   8.646  1.00  0.00    -0.023 A 
HETATM   32  C   UNL     1      45.499  -9.794   9.910  1.00  0.00     0.051 C 
HETATM   33  C   UNL     1      45.627 -10.834   7.620  1.00  0.00     0.012 A 
HETATM   34  C   UNL     1      45.028 -11.224   6.417  1.00  0.00     0.030 A 
ENDBRANCH  24  27
ENDBRANCH  22  23
ENDBRANCH   4  22
TORSDOF 8
ENDMDL
MODEL 10
REMARK VINA RESULT:      -7.0      4.623      6.825
REMARK  8 active torsions:
REMARK  status: ('A' for Active; 'I' for Inactive)
REMARK    1  A    between atoms: C_2  and  O_3 
REMARK    2  A    between atoms: O_3  and  C_4 
REMARK    3  A    between atoms: C_5  and  N_6 
REMARK       I    between atoms: N_6  and  C_7 
REMARK    4  A    between atoms: C_7  and  C_8 
REMARK    5  A    between atoms: N_11  and  C_12 
REMARK    6  A    between atoms: C_12  and  C_13 
REMARK       I    between atoms: C_13  and  N_14 
REMARK    7  A    between atoms: N_14  and  C_15 
REMARK    8  A    between atoms: C_24  and  N_25 
ROOT
HETATM    1  C   UNL     1      39.901  -9.073   8.503  1.00  0.00     0.187 C 
HETATM    2  N   UNL     1      38.848  -9.840   8.955  1.00  0.00    -0.150 NA
HETATM    3  N   UNL     1      38.685 -10.857   8.120  1.00  0.00     0.007 NA
HETATM    4  N   UNL     1      39.583 -10.703   7.126  1.00  0.00    -0.248 N 
HETATM    5  C   UNL     1      40.448  -9.670   7.379  1.00  0.00     0.151 C 
ENDROOT
BRANCH   1   6
HETATM    6  C   UNL     1      40.347  -7.854   9.148  1.00  0.00     0.280 C 
HETATM    7  N   UNL     1      41.553  -7.821   9.815  1.00  0.00    -0.319 N 
HETATM    8  H   UNL     1      41.905  -6.878   9.894  1.00  0.00     0.169 HD
HETATM    9  O   UNL     1      39.710  -6.802   9.050  1.00  0.00    -0.265 OA
BRANCH   7  10
HETATM   10  C   UNL     1      42.298  -8.826  10.470  1.00  0.00     0.068 A 
HETATM   11  C   UNL     1      43.397  -9.522   9.946  1.00  0.00     0.095 A 
HETATM   12  C   UNL     1      44.056 -10.500  10.705  1.00  0.00     0.039 A 
HETATM   13  C   UNL     1      43.586 -10.845  11.968  1.00  0.00     0.003 A 
HETATM   14  C   UNL     1      42.460 -10.208  12.478  1.00  0.00     0.002 A 
HETATM   15  C   UNL     1      41.820  -9.210  11.733  1.00  0.00     0.032 A 
BRANCH  11  16
HETATM   16  O   UNL     1      43.878  -9.324   8.682  1.00  0.00    -0.349 OA
BRANCH  16  17
HETATM   17  C   UNL     1      45.027  -8.471   8.678  1.00  0.00     0.171 C 
HETATM   18  C   UNL     1      46.160  -9.231   8.011  1.00  0.00     0.034 C 
ENDBRANCH  16  17
ENDBRANCH  11  16
ENDBRANCH   7  10
ENDBRANCH   1   6
BRANCH   5  19
HETATM   19  N   UNL     1      41.501  -9.354   6.585  1.00  0.00    -0.382 N 
HETATM   20  H   UNL     1      42.442  -9.726   6.750  1.00  0.00     0.157 HD
HETATM   21  H   UNL     1      41.534  -8.419   6.176  1.00  0.00     0.157 HD
ENDBRANCH   5  19
BRANCH   4  22
HETATM   22  C   UNL     1      39.433 -11.476   5.920  1.00  0.00     0.251 C 
BRANCH  22  23
HETATM   23  C   UNL     1      40.663 -12.292   5.619  1.00  0.00     0.241 C 
HETATM   24  N   UNL     1      40.769 -13.440   6.385  1.00  0.00    -0.326 N 
HETATM   25  H   UNL     1      40.235 -13.474   7.249  1.00  0.00     0.169 HD
HETATM   26  O   UNL     1      41.464 -11.926   4.761  1.00  0.00    -0.271 OA
BRANCH  24  27
HETATM   27  C   UNL     1      41.615 -14.539   6.128  1.00  0.00     0.037 A 
HETATM   28  C   UNL     1      42.934 -14.611   6.575  1.00  0.00     0.072 A 
HETATM   29  C   UNL     1      43.736 -15.690   6.208  1.00  0.00     0.124 A 
HETATM   30  F   UNL     1      45.013 -15.712   6.617  1.00  0.00    -0.205 F 
HETATM   31  C   UNL     1      43.245 -16.728   5.413  1.00  0.00    -0.023 A 
HETATM   32  C   UNL     1      44.139 -17.851   4.985  1.00  0.00     0.051 C 
HETATM   33  C   UNL     1      41.923 -16.655   4.967  1.00  0.00     0.012 A 
HETATM   34  C   UNL     1      41.115 -15.568   5.319  1.00  0.00     0.030 A 
ENDBRANCH  24  27
ENDBRANCH  22  23
ENDBRANCH   4  22
TORSDOF 8
ENDMDL
