MODEL 1
REMARK VINA RESULT:      -7.3      0.000      0.000
REMARK  8 active torsions:
REMARK  status: ('A' for Active; 'I' for Inactive)
REMARK    1  A    between atoms: C_2  and  C_3 
REMARK    2  A    between atoms: C_3  and  N_4 
REMARK    3  A    between atoms: N_4  and  C_5 
REMARK    4  A    between atoms: C_7  and  N_8 
REMARK    5  A    between atoms: N_8  and  C_9 
REMARK    6  A    between atoms: C_9  and  C_10 
REMARK    7  A    between atoms: C_10  and  C_11 
REMARK    8  A    between atoms: C_12  and  O_13 
ROOT
HETATM    1  C   UNL     1      43.802 -16.877   4.545  1.00  0.00     0.119 A 
HETATM    2  N   UNL     1      43.479 -15.899   3.675  1.00  0.00    -0.207 NA
HETATM    3  C   UNL     1      43.190 -16.255   2.418  1.00  0.00     0.181 A 
HETATM    4  N   UNL     1      43.232 -17.512   1.988  1.00  0.00    -0.330 N 
HETATM    5  H   UNL     1      43.072 -17.666   1.002  1.00  0.00     0.168 HD
HETATM    6  C   UNL     1      43.515 -18.521   2.816  1.00  0.00     0.048 A 
HETATM    7  C   UNL     1      43.808 -18.237   4.164  1.00  0.00     0.031 A 
HETATM    8  C   UNL     1      43.515 -19.842   2.343  1.00  0.00     0.030 A 
HETATM    9  C   UNL     1      43.792 -20.897   3.211  1.00  0.00     0.002 A 
HETATM   10  C   UNL     1      44.069 -20.639   4.550  1.00  0.00     0.001 A 
HETATM   11  C   UNL     1      44.078 -19.326   5.025  1.00  0.00     0.017 A 
ENDROOT
BRANCH   3  12
HETATM   12  N   UNL     1      42.921 -15.248   1.509  1.00  0.00    -0.262 NA
HETATM   13  H   UNL     1      43.485 -14.445   1.810  1.00  0.00     0.130 HD
BRANCH  12  14
HETATM   14  C   UNL     1      41.517 -14.880   1.287  1.00  0.00     0.100 C 
BRANCH  14  15
HETATM   15  C   UNL     1      41.234 -13.410   1.625  1.00  0.00     0.056 C 
BRANCH  15  16
HETATM   16  C   UNL     1      40.957 -13.029   3.068  1.00  0.00    -0.024 A 
HETATM   17  C   UNL     1      42.042 -12.608   3.870  1.00  0.00     0.074 A 
HETATM   18  C   UNL     1      41.828 -12.234   5.201  1.00  0.00     0.037 A 
HETATM   19  C   UNL     1      40.548 -12.285   5.749  1.00  0.00     0.003 A 
HETATM   20  C   UNL     1      39.476 -12.712   4.974  1.00  0.00     0.001 A 
HETATM   21  C   UNL     1      39.677 -13.083   3.644  1.00  0.00     0.010 A 
BRANCH  17  22
HETATM   22  O   UNL     1      43.267 -12.591   3.249  1.00  0.00    -0.355 OA
HETATM   23  C   UNL     1      44.233 -11.671   3.744  1.00  0.00     0.210 C 
ENDBRANCH  17  22
ENDBRANCH  15  16
ENDBRANCH  14  15
ENDBRANCH  12  14
ENDBRANCH   3  12
BRANCH   1  24
HETATM   24  N   UNL     1      44.096 -16.537   5.872  1.00  0.00    -0.277 NA
HETATM   25  H   UNL     1      45.102 -16.552   6.034  1.00  0.00     0.129 HD
BRANCH  24  26
HETATM   26  C   UNL     1      43.494 -15.306   6.388  1.00  0.00     0.093 C 
BRANCH  26  27
HETATM   27  C   UNL     1      42.325 -15.644   7.315  1.00  0.00     0.010 C 
HETATM   28  C   UNL     1      41.025 -15.893   6.563  1.00  0.00     0.006 C 
ENDBRANCH  26  27
ENDBRANCH  24  26
ENDBRANCH   1  24
TORSDOF 8
ENDMDL
MODEL 2
REMARK VINA RESULT:      -7.1      2.390      3.701
REMARK  8 active torsions:
REMARK  status: ('A' for Active; 'I' for Inactive)
REMARK    1  A    between atoms: C_2  and  C_3 
REMARK    2  A    between atoms: C_3  and  N_4 
REMARK    3  A    between atoms: N_4  and  C_5 
REMARK    4  A    between atoms: C_7  and  N_8 
REMARK    5  A    between atoms: N_8  and  C_9 
REMARK    6  A    between atoms: C_9  and  C_10 
REMARK    7  A    between atoms: C_10  and  C_11 
REMARK    8  A    between atoms: C_12  and  O_13 
ROOT
HETATM    1  C   UNL     1      43.643 -16.763   4.380  1.00  0.00     0.119 A 
HETATM    2  N   UNL     1      43.226 -15.866   3.464  1.00  0.00    -0.207 NA
HETATM    3  C   UNL     1      42.905 -16.323   2.248  1.00  0.00     0.181 A 
HETATM    4  N   UNL     1      43.002 -17.602   1.900  1.00  0.00    -0.330 N 
HETATM    5  H   UNL     1      42.810 -17.831   0.935  1.00  0.00     0.168 HD
HETATM    6  C   UNL     1      43.379 -18.534   2.779  1.00  0.00     0.048 A 
HETATM    7  C   UNL     1      43.712 -18.143   4.090  1.00  0.00     0.031 A 
HETATM    8  C   UNL     1      43.436 -19.882   2.394  1.00  0.00     0.030 A 
HETATM    9  C   UNL     1      43.811 -20.859   3.315  1.00  0.00     0.002 A 
HETATM   10  C   UNL     1      44.130 -20.495   4.621  1.00  0.00     0.001 A 
HETATM   11  C   UNL     1      44.082 -19.154   5.007  1.00  0.00     0.017 A 
ENDROOT
BRANCH   3  12
HETATM   12  N   UNL     1      42.539 -15.396   1.289  1.00  0.00    -0.262 NA
HETATM   13  H   UNL     1      43.112 -14.565   1.472  1.00  0.00     0.130 HD
BRANCH  12  14
HETATM   14  C   UNL     1      41.114 -15.064   1.162  1.00  0.00     0.100 C 
BRANCH  14  15
HETATM   15  C   UNL     1      40.884 -13.717   0.464  1.00  0.00     0.056 C 
BRANCH  15  16
HETATM   16  C   UNL     1      39.786 -13.607  -0.577  1.00  0.00    -0.024 A 
HETATM   17  C   UNL     1      38.883 -12.522  -0.488  1.00  0.00     0.074 A 
HETATM   18  C   UNL     1      37.865 -12.376  -1.436  1.00  0.00     0.037 A 
HETATM   19  C   UNL     1      37.725 -13.304  -2.467  1.00  0.00     0.003 A 
HETATM   20  C   UNL     1      38.597 -14.383  -2.555  1.00  0.00     0.001 A 
HETATM   21  C   UNL     1      39.619 -14.536  -1.617  1.00  0.00     0.010 A 
BRANCH  17  22
HETATM   22  O   UNL     1      39.095 -11.660   0.560  1.00  0.00    -0.355 OA
HETATM   23  C   UNL     1      38.049 -11.534   1.517  1.00  0.00     0.210 C 
ENDBRANCH  17  22
ENDBRANCH  15  16
ENDBRANCH  14  15
ENDBRANCH  12  14
ENDBRANCH   3  12
BRANCH   1  24
HETATM   24  N   UNL     1      43.973 -16.317   5.667  1.00  0.00    -0.277 NA
HETATM   25  H   UNL     1      44.936 -15.986   5.698  1.00  0.00     0.129 HD
BRANCH  24  26
HETATM   26  C   UNL     1      43.061 -15.355   6.287  1.00  0.00     0.093 C 
BRANCH  26  27
HETATM   27  C   UNL     1      41.948 -16.095   7.033  1.00  0.00     0.010 C 
HETATM   28  C   UNL     1      40.564 -15.809   6.468  1.00  0.00     0.006 C 
ENDBRANCH  26  27
ENDBRANCH  24  26
ENDBRANCH   1  24
TORSDOF 8
ENDMDL
MODEL 3
REMARK VINA RESULT:      -7.1      2.903      5.258
REMARK  8 active torsions:
REMARK  status: ('A' for Active; 'I' for Inactive)
REMARK    1  A    between atoms: C_2  and  C_3 
REMARK    2  A    between atoms: C_3  and  N_4 
REMARK    3  A    between atoms: N_4  and  C_5 
REMARK    4  A    between atoms: C_7  and  N_8 
REMARK    5  A    between atoms: N_8  and  C_9 
REMARK    6  A    between atoms: C_9  and  C_10 
REMARK    7  A    between atoms: C_10  and  C_11 
REMARK    8  A    between atoms: C_12  and  O_13 
ROOT
HETATM    1  C   UNL     1      42.755 -17.297   3.592  1.00  0.00     0.119 A 
HETATM    2  N   UNL     1      41.758 -16.821   2.820  1.00  0.00    -0.207 NA
HETATM    3  C   UNL     1      40.889 -15.972   3.380  1.00  0.00     0.181 A 
HETATM    4  N   UNL     1      40.948 -15.602   4.654  1.00  0.00    -0.330 N 
HETATM    5  H   UNL     1      40.200 -15.018   4.999  1.00  0.00     0.168 HD
HETATM    6  C   UNL     1      41.934 -16.019   5.453  1.00  0.00     0.048 A 
HETATM    7  C   UNL     1      42.907 -16.897   4.937  1.00  0.00     0.031 A 
HETATM    8  C   UNL     1      41.994 -15.581   6.785  1.00  0.00     0.030 A 
HETATM    9  C   UNL     1      43.033 -16.001   7.615  1.00  0.00     0.002 A 
HETATM   10  C   UNL     1      44.013 -16.857   7.120  1.00  0.00     0.001 A 
HETATM   11  C   UNL     1      43.955 -17.301   5.798  1.00  0.00     0.017 A 
ENDROOT
BRANCH   3  12
HETATM   12  N   UNL     1      39.829 -15.533   2.607  1.00  0.00    -0.262 NA
HETATM   13  H   UNL     1      38.983 -15.875   3.076  1.00  0.00     0.130 HD
BRANCH  12  14
HETATM   14  C   UNL     1      39.836 -15.866   1.177  1.00  0.00     0.100 C 
BRANCH  14  15
HETATM   15  C   UNL     1      40.293 -14.691   0.302  1.00  0.00     0.056 C 
BRANCH  15  16
HETATM   16  C   UNL     1      39.439 -14.286  -0.886  1.00  0.00    -0.024 A 
HETATM   17  C   UNL     1      38.880 -12.987  -0.898  1.00  0.00     0.074 A 
HETATM   18  C   UNL     1      38.099 -12.569  -1.980  1.00  0.00     0.037 A 
HETATM   19  C   UNL     1      37.858 -13.431  -3.049  1.00  0.00     0.003 A 
HETATM   20  C   UNL     1      38.391 -14.715  -3.041  1.00  0.00     0.001 A 
HETATM   21  C   UNL     1      39.174 -15.142  -1.968  1.00  0.00     0.010 A 
BRANCH  17  22
HETATM   22  O   UNL     1      39.167 -12.208   0.196  1.00  0.00    -0.355 OA
HETATM   23  C   UNL     1      38.088 -11.488   0.781  1.00  0.00     0.210 C 
ENDBRANCH  17  22
ENDBRANCH  15  16
ENDBRANCH  14  15
ENDBRANCH  12  14
ENDBRANCH   3  12
BRANCH   1  24
HETATM   24  N   UNL     1      43.690 -18.177   3.030  1.00  0.00    -0.277 NA
HETATM   25  H   UNL     1      44.330 -18.526   3.741  1.00  0.00     0.129 HD
BRANCH  24  26
HETATM   26  C   UNL     1      43.160 -19.269   2.211  1.00  0.00     0.093 C 
BRANCH  26  27
HETATM   27  C   UNL     1      43.856 -20.582   2.576  1.00  0.00     0.010 C 
HETATM   28  C   UNL     1      43.872 -20.847   4.075  1.00  0.00     0.006 C 
ENDBRANCH  26  27
ENDBRANCH  24  26
ENDBRANCH   1  24
TORSDOF 8
ENDMDL
MODEL 4
REMARK VINA RESULT:      -7.0      1.354      3.456
REMARK  8 active torsions:
REMARK  status: ('A' for Active; 'I' for Inactive)
REMARK    1  A    between atoms: C_2  and  C_3 
REMARK    2  A    between atoms: C_3  and  N_4 
REMARK    3  A    between atoms: N_4  and  C_5 
REMARK    4  A    between atoms: C_7  and  N_8 
REMARK    5  A    between atoms: N_8  and  C_9 
REMARK    6  A    between atoms: C_9  and  C_10 
REMARK    7  A    between atoms: C_10  and  C_11 
REMARK    8  A    between atoms: C_12  and  O_13 
ROOT
HETATM    1  C   UNL     1      43.296 -16.880   2.952  1.00  0.00     0.119 A 
HETATM    2  N   UNL     1      43.441 -15.990   3.953  1.00  0.00    -0.207 NA
HETATM    3  C   UNL     1      43.776 -16.461   5.160  1.00  0.00     0.181 A 
HETATM    4  N   UNL     1      43.945 -17.754   5.418  1.00  0.00    -0.330 N 
HETATM    5  H   UNL     1      44.121 -18.012   6.379  1.00  0.00     0.168 HD
HETATM    6  C   UNL     1      43.845 -18.673   4.454  1.00  0.00     0.048 A 
HETATM    7  C   UNL     1      43.519 -18.261   3.147  1.00  0.00     0.031 A 
HETATM    8  C   UNL     1      44.067 -20.027   4.747  1.00  0.00     0.030 A 
HETATM    9  C   UNL     1      43.981 -20.985   3.738  1.00  0.00     0.002 A 
HETATM   10  C   UNL     1      43.675 -20.597   2.437  1.00  0.00     0.001 A 
HETATM   11  C   UNL     1      43.446 -19.252   2.141  1.00  0.00     0.017 A 
ENDROOT
BRANCH   3  12
HETATM   12  N   UNL     1      43.861 -15.556   6.203  1.00  0.00    -0.262 NA
HETATM   13  H   UNL     1      44.530 -15.961   6.868  1.00  0.00     0.130 HD
BRANCH  12  14
HETATM   14  C   UNL     1      42.614 -15.145   6.861  1.00  0.00     0.100 C 
BRANCH  14  15
HETATM   15  C   UNL     1      42.418 -13.623   6.848  1.00  0.00     0.056 C 
BRANCH  15  16
HETATM   16  C   UNL     1      42.527 -12.880   5.530  1.00  0.00    -0.024 A 
HETATM   17  C   UNL     1      43.755 -12.256   5.211  1.00  0.00     0.074 A 
HETATM   18  C   UNL     1      43.902 -11.573   4.000  1.00  0.00     0.037 A 
HETATM   19  C   UNL     1      42.837 -11.492   3.104  1.00  0.00     0.003 A 
HETATM   20  C   UNL     1      41.620 -12.088   3.413  1.00  0.00     0.001 A 
HETATM   21  C   UNL     1      41.463 -12.776   4.618  1.00  0.00     0.010 A 
BRANCH  17  22
HETATM   22  O   UNL     1      44.746 -12.385   6.152  1.00  0.00    -0.355 OA
HETATM   23  C   UNL     1      45.368 -11.188   6.607  1.00  0.00     0.210 C 
ENDBRANCH  17  22
ENDBRANCH  15  16
ENDBRANCH  14  15
ENDBRANCH  12  14
ENDBRANCH   3  12
BRANCH   1  24
HETATM   24  N   UNL     1      42.959 -16.416   1.673  1.00  0.00    -0.277 NA
HETATM   25  H   UNL     1      42.408 -17.110   1.170  1.00  0.00     0.129 HD
BRANCH  24  26
HETATM   26  C   UNL     1      42.344 -15.090   1.592  1.00  0.00     0.093 C 
BRANCH  26  27
HETATM   27  C   UNL     1      40.886 -15.217   1.145  1.00  0.00     0.010 C 
HETATM   28  C   UNL     1      39.937 -15.522   2.296  1.00  0.00     0.006 C 
ENDBRANCH  26  27
ENDBRANCH  24  26
ENDBRANCH   1  24
TORSDOF 8
ENDMDL
MODEL 5
REMARK VINA RESULT:      -7.0      1.447      3.673
REMARK  8 active torsions:
REMARK  status: ('A' for Active; 'I' for Inactive)
REMARK    1  A    between atoms: C_2  and  C_3 
REMARK    2  A    between atoms: C_3  and  N_4 
REMARK    3  A    between atoms: N_4  and  C_5 
REMARK    4  A    between atoms: C_7  and  N_8 
REMARK    5  A    between atoms: N_8  and  C_9 
REMARK    6  A    between atoms: C_9  and  C_10 
REMARK    7  A    between atoms: C_10  and  C_11 
REMARK    8  A    between atoms: C_12  and  O_13 
ROOT
HETATM    1  C   UNL     1      43.347 -16.787   3.205  1.00  0.00     0.119 A 
HETATM    2  N   UNL     1      43.519 -15.990   4.278  1.00  0.00    -0.207 NA
HETATM    3  C   UNL     1      43.838 -16.571   5.440  1.00  0.00     0.181 A 
HETATM    4  N   UNL     1      43.966 -17.886   5.588  1.00  0.00    -0.330 N 
HETATM    5  H   UNL     1      44.133 -18.229   6.523  1.00  0.00     0.168 HD
HETATM    6  C   UNL     1      43.838 -18.717   4.550  1.00  0.00     0.048 A 
HETATM    7  C   UNL     1      43.527 -18.185   3.283  1.00  0.00     0.031 A 
HETATM    8  C   UNL     1      44.017 -20.097   4.727  1.00  0.00     0.030 A 
HETATM    9  C   UNL     1      43.902 -20.963   3.641  1.00  0.00     0.002 A 
HETATM   10  C   UNL     1      43.609 -20.457   2.378  1.00  0.00     0.001 A 
HETATM   11  C   UNL     1      43.424 -19.085   2.197  1.00  0.00     0.017 A 
ENDROOT
BRANCH   3  12
HETATM   12  N   UNL     1      43.951 -15.761   6.556  1.00  0.00    -0.262 NA
HETATM   13  H   UNL     1      43.094 -15.914   7.098  1.00  0.00     0.130 HD
BRANCH  12  14
HETATM   14  C   UNL     1      44.220 -14.333   6.344  1.00  0.00     0.100 C 
BRANCH  14  15
HETATM   15  C   UNL     1      43.021 -13.448   6.714  1.00  0.00     0.056 C 
BRANCH  15  16
HETATM   16  C   UNL     1      42.076 -12.996   5.616  1.00  0.00    -0.024 A 
HETATM   17  C   UNL     1      40.761 -13.515   5.607  1.00  0.00     0.074 A 
HETATM   18  C   UNL     1      39.854 -13.113   4.621  1.00  0.00     0.037 A 
HETATM   19  C   UNL     1      40.242 -12.207   3.635  1.00  0.00     0.003 A 
HETATM   20  C   UNL     1      41.537 -11.702   3.625  1.00  0.00     0.001 A 
HETATM   21  C   UNL     1      42.449 -12.093   4.607  1.00  0.00     0.010 A 
BRANCH  17  22
HETATM   22  O   UNL     1      40.468 -14.402   6.613  1.00  0.00    -0.355 OA
HETATM   23  C   UNL     1      40.297 -15.767   6.246  1.00  0.00     0.210 C 
ENDBRANCH  17  22
ENDBRANCH  15  16
ENDBRANCH  14  15
ENDBRANCH  12  14
ENDBRANCH   3  12
BRANCH   1  24
HETATM   24  N   UNL     1      43.026 -16.206   1.971  1.00  0.00    -0.277 NA
HETATM   25  H   UNL     1      42.607 -16.893   1.347  1.00  0.00     0.129 HD
BRANCH  24  26
HETATM   26  C   UNL     1      42.241 -14.971   2.006  1.00  0.00     0.093 C 
BRANCH  26  27
HETATM   27  C   UNL     1      40.943 -15.153   1.216  1.00  0.00     0.010 C 
HETATM   28  C   UNL     1      39.807 -15.708   2.064  1.00  0.00     0.006 C 
ENDBRANCH  26  27
ENDBRANCH  24  26
ENDBRANCH   1  24
TORSDOF 8
ENDMDL
MODEL 6
REMARK VINA RESULT:      -7.0      3.032      5.418
REMARK  8 active torsions:
REMARK  status: ('A' for Active; 'I' for Inactive)
REMARK    1  A    between atoms: C_2  and  C_3 
REMARK    2  A    between atoms: C_3  and  N_4 
REMARK    3  A    between atoms: N_4  and  C_5 
REMARK    4  A    between atoms: C_7  and  N_8 
REMARK    5  A    between atoms: N_8  and  C_9 
REMARK    6  A    between atoms: C_9  and  C_10 
REMARK    7  A    between atoms: C_10  and  C_11 
REMARK    8  A    between atoms: C_12  and  O_13 
ROOT
HETATM    1  C   UNL     1      42.388 -17.091   3.242  1.00  0.00     0.119 A 
HETATM    2  N   UNL     1      41.397 -16.535   2.518  1.00  0.00    -0.207 NA
HETATM    3  C   UNL     1      40.514 -15.763   3.162  1.00  0.00     0.181 A 
HETATM    4  N   UNL     1      40.555 -15.544   4.472  1.00  0.00    -0.330 N 
HETATM    5  H   UNL     1      39.798 -15.009   4.873  1.00  0.00     0.168 HD
HETATM    6  C   UNL     1      41.535 -16.044   5.229  1.00  0.00     0.048 A 
HETATM    7  C   UNL     1      42.521 -16.850   4.627  1.00  0.00     0.031 A 
HETATM    8  C   UNL     1      41.575 -15.765   6.603  1.00  0.00     0.030 A 
HETATM    9  C   UNL     1      42.607 -16.272   7.392  1.00  0.00     0.002 A 
HETATM   10  C   UNL     1      43.600 -17.058   6.813  1.00  0.00     0.001 A 
HETATM   11  C   UNL     1      43.562 -17.345   5.447  1.00  0.00     0.017 A 
ENDROOT
BRANCH   3  12
HETATM   12  N   UNL     1      39.460 -15.244   2.432  1.00  0.00    -0.262 NA
HETATM   13  H   UNL     1      39.085 -16.029   1.888  1.00  0.00     0.130 HD
BRANCH  12  14
HETATM   14  C   UNL     1      39.718 -14.068   1.591  1.00  0.00     0.100 C 
BRANCH  14  15
HETATM   15  C   UNL     1      39.873 -14.428   0.108  1.00  0.00     0.056 C 
BRANCH  15  16
HETATM   16  C   UNL     1      40.276 -13.343  -0.873  1.00  0.00    -0.024 A 
HETATM   17  C   UNL     1      40.022 -13.552  -2.248  1.00  0.00     0.074 A 
HETATM   18  C   UNL     1      40.365 -12.571  -3.183  1.00  0.00     0.037 A 
HETATM   19  C   UNL     1      40.970 -11.385  -2.769  1.00  0.00     0.003 A 
HETATM   20  C   UNL     1      41.237 -11.174  -1.422  1.00  0.00     0.001 A 
HETATM   21  C   UNL     1      40.896 -12.145  -0.479  1.00  0.00     0.010 A 
BRANCH  17  22
HETATM   22  O   UNL     1      39.428 -14.749  -2.564  1.00  0.00    -0.355 OA
HETATM   23  C   UNL     1      38.287 -14.702  -3.415  1.00  0.00     0.210 C 
ENDBRANCH  17  22
ENDBRANCH  15  16
ENDBRANCH  14  15
ENDBRANCH  12  14
ENDBRANCH   3  12
BRANCH   1  24
HETATM   24  N   UNL     1      43.337 -17.894   2.593  1.00  0.00    -0.277 NA
HETATM   25  H   UNL     1      44.184 -17.974   3.152  1.00  0.00     0.129 HD
BRANCH  24  26
HETATM   26  C   UNL     1      42.883 -19.204   2.125  1.00  0.00     0.093 C 
BRANCH  26  27
HETATM   27  C   UNL     1      43.969 -20.253   2.373  1.00  0.00     0.010 C 
HETATM   28  C   UNL     1      43.845 -20.923   3.735  1.00  0.00     0.006 C 
ENDBRANCH  26  27
ENDBRANCH  24  26
ENDBRANCH   1  24
TORSDOF 8
ENDMDL
MODEL 7
REMARK VINA RESULT:      -7.0      2.048      3.040
REMARK  8 active torsions:
REMARK  status: ('A' for Active; 'I' for Inactive)
REMARK    1  A    between atoms: C_2  and  C_3 
REMARK    2  A    between atoms: C_3  and  N_4 
REMARK    3  A    between atoms: N_4  and  C_5 
REMARK    4  A    between atoms: C_7  and  N_8 
REMARK    5  A    between atoms: N_8  and  C_9 
REMARK    6  A    between atoms: C_9  and  C_10 
REMARK    7  A    between atoms: C_10  and  C_11 
REMARK    8  A    between atoms: C_12  and  O_13 
ROOT
HETATM    1  C   UNL     1      43.735 -16.821   4.477  1.00  0.00     0.119 A 
HETATM    2  N   UNL     1      43.436 -15.947   3.495  1.00  0.00    -0.207 NA
HETATM    3  C   UNL     1      43.212 -16.440   2.272  1.00  0.00     0.181 A 
HETATM    4  N   UNL     1      43.295 -17.733   1.979  1.00  0.00    -0.330 N 
HETATM    5  H   UNL     1      43.184 -17.994   1.009  1.00  0.00     0.168 HD
HETATM    6  C   UNL     1      43.556 -18.643   2.921  1.00  0.00     0.048 A 
HETATM    7  C   UNL     1      43.782 -18.213   4.243  1.00  0.00     0.031 A 
HETATM    8  C   UNL     1      43.600 -20.006   2.591  1.00  0.00     0.030 A 
HETATM    9  C   UNL     1      43.854 -20.958   3.578  1.00  0.00     0.002 A 
HETATM   10  C   UNL     1      44.065 -20.555   4.893  1.00  0.00     0.001 A 
HETATM   11  C   UNL     1      44.029 -19.199   5.226  1.00  0.00     0.017 A 
ENDROOT
BRANCH   3  12
HETATM   12  N   UNL     1      42.969 -15.539   1.250  1.00  0.00    -0.262 NA
HETATM   13  H   UNL     1      43.889 -15.305   0.861  1.00  0.00     0.130 HD
BRANCH  12  14
HETATM   14  C   UNL     1      42.184 -14.338   1.564  1.00  0.00     0.100 C 
BRANCH  14  15
HETATM   15  C   UNL     1      40.672 -14.587   1.486  1.00  0.00     0.056 C 
BRANCH  15  16
HETATM   16  C   UNL     1      39.764 -13.454   1.045  1.00  0.00    -0.024 A 
HETATM   17  C   UNL     1      39.509 -13.298  -0.337  1.00  0.00     0.074 A 
HETATM   18  C   UNL     1      38.666 -12.276  -0.785  1.00  0.00     0.037 A 
HETATM   19  C   UNL     1      38.081 -11.397   0.125  1.00  0.00     0.003 A 
HETATM   20  C   UNL     1      38.335 -11.532   1.484  1.00  0.00     0.001 A 
HETATM   21  C   UNL     1      39.172 -12.551   1.943  1.00  0.00     0.010 A 
BRANCH  17  22
HETATM   22  O   UNL     1      40.129 -14.206  -1.160  1.00  0.00    -0.355 OA
HETATM   23  C   UNL     1      40.136 -13.919  -2.554  1.00  0.00     0.210 C 
ENDBRANCH  17  22
ENDBRANCH  15  16
ENDBRANCH  14  15
ENDBRANCH  12  14
ENDBRANCH   3  12
BRANCH   1  24
HETATM   24  N   UNL     1      43.962 -16.337   5.773  1.00  0.00    -0.277 NA
HETATM   25  H   UNL     1      44.912 -15.980   5.864  1.00  0.00     0.129 HD
BRANCH  24  26
HETATM   26  C   UNL     1      42.985 -15.384   6.302  1.00  0.00     0.093 C 
BRANCH  26  27
HETATM   27  C   UNL     1      41.819 -16.134   6.949  1.00  0.00     0.010 C 
HETATM   28  C   UNL     1      40.479 -15.825   6.296  1.00  0.00     0.006 C 
ENDBRANCH  26  27
ENDBRANCH  24  26
ENDBRANCH   1  24
TORSDOF 8
ENDMDL
MODEL 8
REMARK VINA RESULT:      -6.8      2.928      7.867
REMARK  8 active torsions:
REMARK  status: ('A' for Active; 'I' for Inactive)
REMARK    1  A    between atoms: C_2  and  C_3 
REMARK    2  A    between atoms: C_3  and  N_4 
REMARK    3  A    between atoms: N_4  and  C_5 
REMARK    4  A    between atoms: C_7  and  N_8 
REMARK    5  A    between atoms: N_8  and  C_9 
REMARK    6  A    between atoms: C_9  and  C_10 
REMARK    7  A    between atoms: C_10  and  C_11 
REMARK    8  A    between atoms: C_12  and  O_13 
ROOT
HETATM    1  C   UNL     1      39.756 -13.529   0.395  1.00  0.00     0.119 A 
HETATM    2  N   UNL     1      40.191 -14.726   0.836  1.00  0.00    -0.207 NA
HETATM    3  C   UNL     1      40.266 -14.912   2.159  1.00  0.00     0.181 A 
HETATM    4  N   UNL     1      39.959 -13.972   3.046  1.00  0.00    -0.330 N 
HETATM    5  H   UNL     1      40.123 -14.187   4.020  1.00  0.00     0.168 HD
HETATM    6  C   UNL     1      39.492 -12.781   2.663  1.00  0.00     0.048 A 
HETATM    7  C   UNL     1      39.359 -12.509   1.287  1.00  0.00     0.031 A 
HETATM    8  C   UNL     1      39.139 -11.820   3.623  1.00  0.00     0.030 A 
HETATM    9  C   UNL     1      38.635 -10.583   3.224  1.00  0.00     0.002 A 
HETATM   10  C   UNL     1      38.481 -10.301   1.869  1.00  0.00     0.001 A 
HETATM   11  C   UNL     1      38.837 -11.250   0.909  1.00  0.00     0.017 A 
ENDROOT
BRANCH   3  12
HETATM   12  N   UNL     1      40.773 -16.116   2.612  1.00  0.00    -0.262 NA
HETATM   13  H   UNL     1      39.958 -16.677   2.882  1.00  0.00     0.130 HD
BRANCH  12  14
HETATM   14  C   UNL     1      41.789 -16.079   3.672  1.00  0.00     0.100 C 
BRANCH  14  15
HETATM   15  C   UNL     1      43.147 -16.621   3.204  1.00  0.00     0.056 C 
BRANCH  15  16
HETATM   16  C   UNL     1      43.392 -18.118   3.240  1.00  0.00    -0.024 A 
HETATM   17  C   UNL     1      43.935 -18.681   4.418  1.00  0.00     0.074 A 
HETATM   18  C   UNL     1      44.163 -20.058   4.498  1.00  0.00     0.037 A 
HETATM   19  C   UNL     1      43.866 -20.885   3.416  1.00  0.00     0.003 A 
HETATM   20  C   UNL     1      43.345 -20.341   2.248  1.00  0.00     0.001 A 
HETATM   21  C   UNL     1      43.110 -18.968   2.157  1.00  0.00     0.010 A 
BRANCH  17  22
HETATM   22  O   UNL     1      44.198 -17.792   5.431  1.00  0.00    -0.355 OA
HETATM   23  C   UNL     1      43.431 -17.922   6.623  1.00  0.00     0.210 C 
ENDBRANCH  17  22
ENDBRANCH  15  16
ENDBRANCH  14  15
ENDBRANCH  12  14
ENDBRANCH   3  12
BRANCH   1  24
HETATM   24  N   UNL     1      39.654 -13.309  -0.985  1.00  0.00    -0.277 NA
HETATM   25  H   UNL     1      40.480 -12.827  -1.336  1.00  0.00     0.129 HD
BRANCH  24  26
HETATM   26  C   UNL     1      39.322 -14.468  -1.816  1.00  0.00     0.093 C 
BRANCH  26  27
HETATM   27  C   UNL     1      38.539 -14.020  -3.052  1.00  0.00     0.010 C 
HETATM   28  C   UNL     1      37.225 -13.334  -2.704  1.00  0.00     0.006 C 
ENDBRANCH  26  27
ENDBRANCH  24  26
ENDBRANCH   1  24
TORSDOF 8
ENDMDL
MODEL 9
REMARK VINA RESULT:      -6.8      3.159      4.605
REMARK  8 active torsions:
REMARK  status: ('A' for Active; 'I' for Inactive)
REMARK    1  A    between atoms: C_2  and  C_3 
REMARK    2  A    between atoms: C_3  and  N_4 
REMARK    3  A    between atoms: N_4  and  C_5 
REMARK    4  A    between atoms: C_7  and  N_8 
REMARK    5  A    between atoms: N_8  and  C_9 
REMARK    6  A    between atoms: C_9  and  C_10 
REMARK    7  A    between atoms: C_10  and  C_11 
REMARK    8  A    between atoms: C_12  and  O_13 
ROOT
HETATM    1  C   UNL     1      42.007 -15.411   4.676  1.00  0.00     0.119 A 
HETATM    2  N   UNL     1      40.926 -14.856   4.093  1.00  0.00    -0.207 NA
HETATM    3  C   UNL     1      40.495 -15.391   2.945  1.00  0.00     0.181 A 
HETATM    4  N   UNL     1      41.093 -16.417   2.348  1.00  0.00    -0.330 N 
HETATM    5  H   UNL     1      40.735 -16.696   1.445  1.00  0.00     0.168 HD
HETATM    6  C   UNL     1      42.148 -17.023   2.900  1.00  0.00     0.048 A 
HETATM    7  C   UNL     1      42.652 -16.539   4.123  1.00  0.00     0.031 A 
HETATM    8  C   UNL     1      42.736 -18.129   2.267  1.00  0.00     0.030 A 
HETATM    9  C   UNL     1      43.824 -18.774   2.851  1.00  0.00     0.002 A 
HETATM   10  C   UNL     1      44.329 -18.320   4.067  1.00  0.00     0.001 A 
HETATM   11  C   UNL     1      43.752 -17.217   4.698  1.00  0.00     0.017 A 
ENDROOT
BRANCH   3  12
HETATM   12  N   UNL     1      39.426 -14.783   2.313  1.00  0.00    -0.262 NA
HETATM   13  H   UNL     1      39.288 -15.302   1.439  1.00  0.00     0.130 HD
BRANCH  12  14
HETATM   14  C   UNL     1      39.496 -13.334   2.085  1.00  0.00     0.100 C 
BRANCH  14  15
HETATM   15  C   UNL     1      40.118 -12.982   0.726  1.00  0.00     0.056 C 
BRANCH  15  16
HETATM   16  C   UNL     1      39.379 -13.369  -0.541  1.00  0.00    -0.024 A 
HETATM   17  C   UNL     1      38.409 -12.477  -1.052  1.00  0.00     0.074 A 
HETATM   18  C   UNL     1      37.716 -12.790  -2.226  1.00  0.00     0.037 A 
HETATM   19  C   UNL     1      37.968 -13.987  -2.895  1.00  0.00     0.003 A 
HETATM   20  C   UNL     1      38.910 -14.878  -2.394  1.00  0.00     0.001 A 
HETATM   21  C   UNL     1      39.610 -14.575  -1.225  1.00  0.00     0.010 A 
BRANCH  17  22
HETATM   22  O   UNL     1      38.224 -11.325  -0.328  1.00  0.00    -0.355 OA
HETATM   23  C   UNL     1      37.212 -10.431  -0.778  1.00  0.00     0.210 C 
ENDBRANCH  17  22
ENDBRANCH  15  16
ENDBRANCH  14  15
ENDBRANCH  12  14
ENDBRANCH   3  12
BRANCH   1  24
HETATM   24  N   UNL     1      42.474 -14.882   5.887  1.00  0.00    -0.277 NA
HETATM   25  H   UNL     1      43.447 -15.140   6.042  1.00  0.00     0.129 HD
BRANCH  24  26
HETATM   26  C   UNL     1      42.263 -13.450   6.107  1.00  0.00     0.093 C 
BRANCH  26  27
HETATM   27  C   UNL     1      43.536 -12.674   5.760  1.00  0.00     0.010 C 
HETATM   28  C   UNL     1      44.332 -12.262   6.990  1.00  0.00     0.006 C 
ENDBRANCH  26  27
ENDBRANCH  24  26
ENDBRANCH   1  24
TORSDOF 8
ENDMDL
MODEL 10
REMARK VINA RESULT:      -6.6      2.863      5.437
REMARK  8 active torsions:
REMARK  status: ('A' for Active; 'I' for Inactive)
REMARK    1  A    between atoms: C_2  and  C_3 
REMARK    2  A    between atoms: C_3  and  N_4 
REMARK    3  A    between atoms: N_4  and  C_5 
REMARK    4  A    between atoms: C_7  and  N_8 
REMARK    5  A    between atoms: N_8  and  C_9 
REMARK    6  A    between atoms: C_9  and  C_10 
REMARK    7  A    between atoms: C_10  and  C_11 
REMARK    8  A    between atoms: C_12  and  O_13 
ROOT
HETATM    1  C   UNL     1      43.097 -16.756   3.766  1.00  0.00     0.119 A 
HETATM    2  N   UNL     1      43.720 -16.314   4.876  1.00  0.00    -0.207 NA
HETATM    3  C   UNL     1      43.249 -15.201   5.451  1.00  0.00     0.181 A 
HETATM    4  N   UNL     1      42.224 -14.507   4.968  1.00  0.00    -0.330 N 
HETATM    5  H   UNL     1      41.996 -13.639   5.433  1.00  0.00     0.168 HD
HETATM    6  C   UNL     1      41.552 -14.921   3.890  1.00  0.00     0.048 A 
HETATM    7  C   UNL     1      41.966 -16.097   3.236  1.00  0.00     0.031 A 
HETATM    8  C   UNL     1      40.449 -14.189   3.424  1.00  0.00     0.030 A 
HETATM    9  C   UNL     1      39.737 -14.629   2.310  1.00  0.00     0.002 A 
HETATM   10  C   UNL     1      40.120 -15.798   1.658  1.00  0.00     0.001 A 
HETATM   11  C   UNL     1      41.221 -16.526   2.113  1.00  0.00     0.017 A 
ENDROOT
BRANCH   3  12
HETATM   12  N   UNL     1      43.926 -14.710   6.553  1.00  0.00    -0.262 NA
HETATM   13  H   UNL     1      43.855 -15.439   7.271  1.00  0.00     0.130 HD
BRANCH  12  14
HETATM   14  C   UNL     1      43.536 -13.391   7.068  1.00  0.00     0.100 C 
BRANCH  14  15
HETATM   15  C   UNL     1      44.229 -12.241   6.325  1.00  0.00     0.056 C 
BRANCH  15  16
HETATM   16  C   UNL     1      44.631 -11.001   7.103  1.00  0.00    -0.024 A 
HETATM   17  C   UNL     1      43.630 -10.053   7.418  1.00  0.00     0.074 A 
HETATM   18  C   UNL     1      43.955  -8.904   8.146  1.00  0.00     0.037 A 
HETATM   19  C   UNL     1      45.269  -8.680   8.556  1.00  0.00     0.003 A 
HETATM   20  C   UNL     1      46.263  -9.597   8.240  1.00  0.00     0.001 A 
HETATM   21  C   UNL     1      45.949 -10.750   7.517  1.00  0.00     0.010 A 
BRANCH  17  22
HETATM   22  O   UNL     1      42.367 -10.355   6.971  1.00  0.00    -0.355 OA
HETATM   23  C   UNL     1      41.288  -9.608   7.524  1.00  0.00     0.210 C 
ENDBRANCH  17  22
ENDBRANCH  15  16
ENDBRANCH  14  15
ENDBRANCH  12  14
ENDBRANCH   3  12
BRANCH   1  24
HETATM   24  N   UNL     1      43.558 -17.927   3.149  1.00  0.00    -0.277 NA
HETATM   25  H   UNL     1      44.230 -17.708   2.415  1.00  0.00     0.129 HD
BRANCH  24  26
HETATM   26  C   UNL     1      44.059 -18.984   4.029  1.00  0.00     0.093 C 
BRANCH  26  27
HETATM   27  C   UNL     1      43.852 -20.352   3.374  1.00  0.00     0.010 C 
HETATM   28  C   UNL     1      43.274 -20.254   1.969  1.00  0.00     0.006 C 
ENDBRANCH  26  27
ENDBRANCH  24  26
ENDBRANCH   1  24
TORSDOF 8
ENDMDL
