MODEL 1
REMARK VINA RESULT:      -9.8      0.000      0.000
REMARK  5 active torsions:
REMARK  status: ('A' for Active; 'I' for Inactive)
REMARK    1  A    between atoms: C_4  and  C_5 
REMARK    2  A    between atoms: C_17  and  C_18 
REMARK    3  A    between atoms: C_18  and  N_19 
REMARK       I    between atoms: N_19  and  C_20 
REMARK    4  A    between atoms: C_20  and  C_21 
REMARK    5  A    between atoms: C_21  and  C_22 
ROOT
HETATM    1  C   UNL     1      41.000 -12.736   0.163  1.00  0.00     0.048 C 
HETATM    2  C   UNL     1      41.660 -13.000   1.484  1.00  0.00    -0.060 A 
HETATM    3  C   UNL     1      42.047 -14.308   1.844  1.00  0.00     0.024 A 
HETATM    4  C   UNL     1      42.694 -14.589   3.066  1.00  0.00     0.034 A 
HETATM    5  C   UNL     1      42.955 -13.502   3.892  1.00  0.00     0.088 A 
HETATM    6  C   UNL     1      42.583 -12.209   3.546  1.00  0.00    -0.021 A 
HETATM    7  C   UNL     1      43.054 -11.250   4.568  1.00  0.00     0.075 C 
HETATM    8  C   UNL     1      43.506 -12.226   5.663  1.00  0.00     0.151 C 
HETATM    9  O   UNL     1      43.645 -13.550   5.079  1.00  0.00    -0.342 OA
HETATM   10  C   UNL     1      41.938 -11.938   2.350  1.00  0.00     0.017 A 
ENDROOT
BRANCH   8  11
HETATM   11  C   UNL     1      44.849 -11.829   6.287  1.00  0.00     0.155 C 
BRANCH  11  12
HETATM   12  N   UNL     1      44.768 -11.483   7.697  1.00  0.00    -0.359 N 
HETATM   13  C   UNL     1      45.431 -10.394   8.219  1.00  0.00     0.219 C 
HETATM   14  O   UNL     1      46.141  -9.658   7.545  1.00  0.00    -0.274 OA
HETATM   15  H   UNL     1      44.135 -12.010   8.285  1.00  0.00     0.162 HD
BRANCH  13  16
HETATM   16  C   UNL     1      45.199 -10.224   9.705  1.00  0.00     0.128 C 
BRANCH  16  17
HETATM   17  C   UNL     1      44.381  -8.974  10.058  1.00  0.00     0.094 C 
HETATM   18  N   UNL     1      43.365  -8.755   9.030  1.00  0.00    -0.362 N 
HETATM   19  C   UNL     1      42.113  -9.274   9.073  1.00  0.00     0.168 C 
HETATM   20  H   UNL     1      43.639  -8.337   8.147  1.00  0.00     0.162 HD
HETATM   21  S   UNL     1      41.107  -9.200   7.756  1.00  0.00    -0.041 SA
HETATM   22  N   UNL     1      41.704  -9.829  10.239  1.00  0.00    -0.363 N 
HETATM   23  C   UNL     1      42.552 -10.039  11.400  1.00  0.00     0.081 C 
HETATM   24  H   UNL     1      40.788 -10.262  10.216  1.00  0.00     0.162 HD
HETATM   25  C   UNL     1      41.729  -9.969  12.683  1.00  0.00     0.032 C 
HETATM   26  C   UNL     1      43.692  -9.022  11.425  1.00  0.00     0.050 C 
ENDBRANCH  16  17
ENDBRANCH  13  16
ENDBRANCH  11  12
ENDBRANCH   8  11
BRANCH   4  27
HETATM   27  C   UNL     1      43.064 -15.979   3.365  1.00  0.00     0.112 A 
HETATM   28  S   UNL     1      43.458 -16.485   4.963  1.00  0.00    -0.067 SA
HETATM   29  C   UNL     1      43.645 -18.105   4.421  1.00  0.00     0.035 A 
HETATM   30  C   UNL     1      43.374 -18.157   3.055  1.00  0.00     0.075 A 
HETATM   31  C   UNL     1      43.998 -19.252   5.153  1.00  0.00     0.021 A 
HETATM   32  N   UNL     1      43.033 -16.950   2.471  1.00  0.00    -0.239 NA
HETATM   33  C   UNL     1      43.461 -19.400   2.393  1.00  0.00     0.033 A 
HETATM   34  C   UNL     1      43.812 -20.548   3.110  1.00  0.00     0.002 A 
HETATM   35  C   UNL     1      44.076 -20.472   4.474  1.00  0.00     0.002 A 
ENDBRANCH   4  27
TORSDOF 5
ENDMDL
MODEL 2
REMARK VINA RESULT:      -9.7      3.874      6.163
REMARK  5 active torsions:
REMARK  status: ('A' for Active; 'I' for Inactive)
REMARK    1  A    between atoms: C_4  and  C_5 
REMARK    2  A    between atoms: C_17  and  C_18 
REMARK    3  A    between atoms: C_18  and  N_19 
REMARK       I    between atoms: N_19  and  C_20 
REMARK    4  A    between atoms: C_20  and  C_21 
REMARK    5  A    between atoms: C_21  and  C_22 
ROOT
HETATM    1  C   UNL     1      43.712 -20.165   2.201  1.00  0.00     0.048 C 
HETATM    2  C   UNL     1      43.526 -18.814   2.829  1.00  0.00    -0.060 A 
HETATM    3  C   UNL     1      42.887 -17.775   2.119  1.00  0.00     0.024 A 
HETATM    4  C   UNL     1      42.671 -16.503   2.687  1.00  0.00     0.034 A 
HETATM    5  C   UNL     1      43.098 -16.329   3.998  1.00  0.00     0.088 A 
HETATM    6  C   UNL     1      43.724 -17.347   4.708  1.00  0.00    -0.021 A 
HETATM    7  C   UNL     1      43.997 -16.910   6.095  1.00  0.00     0.075 C 
HETATM    8  C   UNL     1      43.677 -15.414   5.972  1.00  0.00     0.151 C 
HETATM    9  O   UNL     1      42.909 -15.199   4.757  1.00  0.00    -0.342 OA
HETATM   10  C   UNL     1      43.945 -18.592   4.144  1.00  0.00     0.017 A 
ENDROOT
BRANCH   8  11
HETATM   11  C   UNL     1      42.860 -14.888   7.159  1.00  0.00     0.155 C 
BRANCH  11  12
HETATM   12  N   UNL     1      41.886 -13.870   6.803  1.00  0.00    -0.359 N 
HETATM   13  C   UNL     1      40.589 -14.189   6.466  1.00  0.00     0.219 C 
HETATM   14  O   UNL     1      40.173 -15.341   6.426  1.00  0.00    -0.274 OA
HETATM   15  H   UNL     1      42.152 -12.897   6.893  1.00  0.00     0.162 HD
BRANCH  13  16
HETATM   16  C   UNL     1      39.752 -12.972   6.137  1.00  0.00     0.128 C 
BRANCH  16  17
HETATM   17  C   UNL     1      40.542 -11.857   5.437  1.00  0.00     0.094 C 
HETATM   18  N   UNL     1      40.003 -11.653   4.094  1.00  0.00    -0.362 N 
HETATM   19  C   UNL     1      39.006 -10.782   3.797  1.00  0.00     0.168 C 
HETATM   20  H   UNL     1      40.252 -12.305   3.358  1.00  0.00     0.162 HD
HETATM   21  S   UNL     1      38.272 -10.793   2.309  1.00  0.00    -0.041 SA
HETATM   22  N   UNL     1      38.652  -9.886   4.750  1.00  0.00    -0.363 N 
HETATM   23  C   UNL     1      39.159  -9.880   6.111  1.00  0.00     0.081 C 
HETATM   24  H   UNL     1      37.863  -9.294   4.516  1.00  0.00     0.162 HD
HETATM   25  C   UNL     1      39.182  -8.459   6.666  1.00  0.00     0.032 C 
HETATM   26  C   UNL     1      40.547 -10.513   6.173  1.00  0.00     0.050 C 
ENDBRANCH  16  17
ENDBRANCH  13  16
ENDBRANCH  11  12
ENDBRANCH   8  11
BRANCH   4  27
HETATM   27  C   UNL     1      41.999 -15.475   1.880  1.00  0.00     0.112 A 
HETATM   28  S   UNL     1      42.511 -13.831   1.903  1.00  0.00    -0.067 SA
HETATM   29  C   UNL     1      41.332 -13.431   0.717  1.00  0.00     0.035 A 
HETATM   30  C   UNL     1      40.635 -14.587   0.367  1.00  0.00     0.075 A 
HETATM   31  C   UNL     1      41.048 -12.186   0.132  1.00  0.00     0.021 A 
HETATM   32  N   UNL     1      41.031 -15.739   1.022  1.00  0.00    -0.239 NA
HETATM   33  C   UNL     1      39.616 -14.496  -0.603  1.00  0.00     0.033 A 
HETATM   34  C   UNL     1      39.323 -13.262  -1.192  1.00  0.00     0.002 A 
HETATM   35  C   UNL     1      40.033 -12.122  -0.828  1.00  0.00     0.002 A 
ENDBRANCH   4  27
TORSDOF 5
ENDMDL
MODEL 3
REMARK VINA RESULT:      -9.6      2.124      5.129
REMARK  5 active torsions:
REMARK  status: ('A' for Active; 'I' for Inactive)
REMARK    1  A    between atoms: C_4  and  C_5 
REMARK    2  A    between atoms: C_17  and  C_18 
REMARK    3  A    between atoms: C_18  and  N_19 
REMARK       I    between atoms: N_19  and  C_20 
REMARK    4  A    between atoms: C_20  and  C_21 
REMARK    5  A    between atoms: C_21  and  C_22 
ROOT
HETATM    1  C   UNL     1      43.620 -19.990   2.651  1.00  0.00     0.048 C 
HETATM    2  C   UNL     1      43.501 -18.577   3.143  1.00  0.00    -0.060 A 
HETATM    3  C   UNL     1      42.838 -17.601   2.369  1.00  0.00     0.024 A 
HETATM    4  C   UNL     1      42.684 -16.271   2.812  1.00  0.00     0.034 A 
HETATM    5  C   UNL     1      43.199 -15.973   4.068  1.00  0.00     0.088 A 
HETATM    6  C   UNL     1      43.850 -16.927   4.840  1.00  0.00    -0.021 A 
HETATM    7  C   UNL     1      44.221 -16.355   6.153  1.00  0.00     0.075 C 
HETATM    8  C   UNL     1      43.922 -14.872   5.893  1.00  0.00     0.151 C 
HETATM    9  O   UNL     1      43.081 -14.766   4.713  1.00  0.00    -0.342 OA
HETATM   10  C   UNL     1      44.009 -18.230   4.398  1.00  0.00     0.017 A 
ENDROOT
BRANCH   8  11
HETATM   11  C   UNL     1      43.195 -14.205   7.067  1.00  0.00     0.155 C 
BRANCH  11  12
HETATM   12  N   UNL     1      42.781 -12.836   6.806  1.00  0.00    -0.359 N 
HETATM   13  C   UNL     1      43.579 -11.760   7.128  1.00  0.00     0.219 C 
HETATM   14  O   UNL     1      44.673 -11.877   7.666  1.00  0.00    -0.274 OA
HETATM   15  H   UNL     1      41.921 -12.683   6.295  1.00  0.00     0.162 HD
BRANCH  13  16
HETATM   16  C   UNL     1      42.950 -10.433   6.763  1.00  0.00     0.128 C 
BRANCH  16  17
HETATM   17  C   UNL     1      41.916  -9.943   7.786  1.00  0.00     0.094 C 
HETATM   18  N   UNL     1      42.498  -9.997   9.125  1.00  0.00    -0.362 N 
HETATM   19  C   UNL     1      43.176  -8.974   9.703  1.00  0.00     0.168 C 
HETATM   20  H   UNL     1      42.560 -10.891   9.601  1.00  0.00     0.162 HD
HETATM   21  S   UNL     1      44.028  -9.195  11.109  1.00  0.00    -0.041 SA
HETATM   22  N   UNL     1      43.109  -7.760   9.105  1.00  0.00    -0.363 N 
HETATM   23  C   UNL     1      42.485  -7.504   7.818  1.00  0.00     0.081 C 
HETATM   24  H   UNL     1      43.677  -7.036   9.529  1.00  0.00     0.162 HD
HETATM   25  C   UNL     1      41.933  -6.082   7.767  1.00  0.00     0.032 C 
HETATM   26  C   UNL     1      41.386  -8.527   7.538  1.00  0.00     0.050 C 
ENDBRANCH  16  17
ENDBRANCH  13  16
ENDBRANCH  11  12
ENDBRANCH   8  11
BRANCH   4  27
HETATM   27  C   UNL     1      41.980 -15.316   1.944  1.00  0.00     0.112 A 
HETATM   28  S   UNL     1      42.424 -13.653   1.885  1.00  0.00    -0.067 SA
HETATM   29  C   UNL     1      41.245 -13.366   0.668  1.00  0.00     0.035 A 
HETATM   30  C   UNL     1      40.601 -14.566   0.372  1.00  0.00     0.075 A 
HETATM   31  C   UNL     1      40.918 -12.166   0.014  1.00  0.00     0.021 A 
HETATM   32  N   UNL     1      41.035 -15.665   1.091  1.00  0.00    -0.239 NA
HETATM   33  C   UNL     1      39.590 -14.569  -0.612  1.00  0.00     0.033 A 
HETATM   34  C   UNL     1      39.255 -13.380  -1.269  1.00  0.00     0.002 A 
HETATM   35  C   UNL     1      39.913 -12.195  -0.958  1.00  0.00     0.002 A 
ENDBRANCH   4  27
TORSDOF 5
ENDMDL
MODEL 4
REMARK VINA RESULT:      -9.6      2.832      5.677
REMARK  5 active torsions:
REMARK  status: ('A' for Active; 'I' for Inactive)
REMARK    1  A    between atoms: C_4  and  C_5 
REMARK    2  A    between atoms: C_17  and  C_18 
REMARK    3  A    between atoms: C_18  and  N_19 
REMARK       I    between atoms: N_19  and  C_20 
REMARK    4  A    between atoms: C_20  and  C_21 
REMARK    5  A    between atoms: C_21  and  C_22 
ROOT
HETATM    1  C   UNL     1      43.573 -20.248   2.297  1.00  0.00     0.048 C 
HETATM    2  C   UNL     1      43.495 -18.883   2.917  1.00  0.00    -0.060 A 
HETATM    3  C   UNL     1      42.857 -17.823   2.240  1.00  0.00     0.024 A 
HETATM    4  C   UNL     1      42.742 -16.536   2.805  1.00  0.00     0.034 A 
HETATM    5  C   UNL     1      43.269 -16.369   4.080  1.00  0.00     0.088 A 
HETATM    6  C   UNL     1      43.896 -17.407   4.758  1.00  0.00    -0.021 A 
HETATM    7  C   UNL     1      44.287 -16.970   6.115  1.00  0.00     0.075 C 
HETATM    8  C   UNL     1      44.029 -15.461   5.995  1.00  0.00     0.151 C 
HETATM    9  O   UNL     1      43.188 -15.223   4.834  1.00  0.00    -0.342 OA
HETATM   10  C   UNL     1      44.017 -18.668   4.196  1.00  0.00     0.017 A 
ENDROOT
BRANCH   8  11
HETATM   11  C   UNL     1      43.325 -14.885   7.230  1.00  0.00     0.155 C 
BRANCH  11  12
HETATM   12  N   UNL     1      42.798 -13.544   7.038  1.00  0.00    -0.359 N 
HETATM   13  C   UNL     1      43.624 -12.456   6.857  1.00  0.00     0.219 C 
HETATM   14  O   UNL     1      44.847 -12.538   6.860  1.00  0.00    -0.274 OA
HETATM   15  H   UNL     1      41.796 -13.428   6.951  1.00  0.00     0.162 HD
BRANCH  13  16
HETATM   16  C   UNL     1      42.860 -11.163   6.674  1.00  0.00     0.128 C 
BRANCH  16  17
HETATM   17  C   UNL     1      41.407 -11.369   6.224  1.00  0.00     0.094 C 
HETATM   18  N   UNL     1      40.533 -10.488   6.995  1.00  0.00    -0.362 N 
HETATM   19  C   UNL     1      40.200  -9.227   6.621  1.00  0.00     0.168 C 
HETATM   20  H   UNL     1      40.286 -10.746   7.944  1.00  0.00     0.162 HD
HETATM   21  S   UNL     1      39.421  -8.200   7.665  1.00  0.00    -0.041 SA
HETATM   22  N   UNL     1      40.501  -8.849   5.356  1.00  0.00    -0.363 N 
HETATM   23  C   UNL     1      41.279  -9.639   4.417  1.00  0.00     0.081 C 
HETATM   24  H   UNL     1      40.295  -7.882   5.132  1.00  0.00     0.162 HD
HETATM   25  C   UNL     1      40.845  -9.346   2.984  1.00  0.00     0.032 C 
HETATM   26  C   UNL     1      41.154 -11.128   4.733  1.00  0.00     0.050 C 
ENDBRANCH  16  17
ENDBRANCH  13  16
ENDBRANCH  11  12
ENDBRANCH   8  11
BRANCH   4  27
HETATM   27  C   UNL     1      42.062 -15.485   2.033  1.00  0.00     0.112 A 
HETATM   28  S   UNL     1      42.527 -13.831   2.156  1.00  0.00    -0.067 SA
HETATM   29  C   UNL     1      41.370 -13.402   0.959  1.00  0.00     0.035 A 
HETATM   30  C   UNL     1      40.716 -14.556   0.530  1.00  0.00     0.075 A 
HETATM   31  C   UNL     1      41.066 -12.136   0.431  1.00  0.00     0.021 A 
HETATM   32  N   UNL     1      41.127 -15.730   1.135  1.00  0.00    -0.239 NA
HETATM   33  C   UNL     1      39.721 -14.442  -0.463  1.00  0.00     0.033 A 
HETATM   34  C   UNL     1      39.409 -13.187  -0.996  1.00  0.00     0.002 A 
HETATM   35  C   UNL     1      40.076 -12.050  -0.553  1.00  0.00     0.002 A 
ENDBRANCH   4  27
TORSDOF 5
ENDMDL
MODEL 5
REMARK VINA RESULT:      -9.6      1.882      4.818
REMARK  5 active torsions:
REMARK  status: ('A' for Active; 'I' for Inactive)
REMARK    1  A    between atoms: C_4  and  C_5 
REMARK    2  A    between atoms: C_17  and  C_18 
REMARK    3  A    between atoms: C_18  and  N_19 
REMARK       I    between atoms: N_19  and  C_20 
REMARK    4  A    between atoms: C_20  and  C_21 
REMARK    5  A    between atoms: C_21  and  C_22 
ROOT
HETATM    1  C   UNL     1      43.542 -19.591   2.496  1.00  0.00     0.048 C 
HETATM    2  C   UNL     1      43.336 -18.177   2.954  1.00  0.00    -0.060 A 
HETATM    3  C   UNL     1      42.656 -17.249   2.137  1.00  0.00     0.024 A 
HETATM    4  C   UNL     1      42.421 -15.921   2.547  1.00  0.00     0.034 A 
HETATM    5  C   UNL     1      42.873 -15.574   3.814  1.00  0.00     0.088 A 
HETATM    6  C   UNL     1      43.540 -16.481   4.630  1.00  0.00    -0.021 A 
HETATM    7  C   UNL     1      43.833 -15.868   5.943  1.00  0.00     0.075 C 
HETATM    8  C   UNL     1      43.473 -14.406   5.643  1.00  0.00     0.151 C 
HETATM    9  O   UNL     1      42.672 -14.363   4.430  1.00  0.00    -0.342 OA
HETATM   10  C   UNL     1      43.779 -17.782   4.220  1.00  0.00     0.017 A 
ENDROOT
BRANCH   8  11
HETATM   11  C   UNL     1      42.670 -13.754   6.776  1.00  0.00     0.155 C 
BRANCH  11  12
HETATM   12  N   UNL     1      43.448 -12.850   7.607  1.00  0.00    -0.359 N 
HETATM   13  C   UNL     1      43.842 -11.608   7.161  1.00  0.00     0.219 C 
HETATM   14  O   UNL     1      43.584 -11.188   6.040  1.00  0.00    -0.274 OA
HETATM   15  H   UNL     1      43.624 -13.113   8.569  1.00  0.00     0.162 HD
BRANCH  13  16
HETATM   16  C   UNL     1      44.637 -10.839   8.194  1.00  0.00     0.128 C 
BRANCH  16  17
HETATM   17  C   UNL     1      44.245  -9.358   8.291  1.00  0.00     0.094 C 
HETATM   18  N   UNL     1      42.835  -9.208   7.941  1.00  0.00    -0.362 N 
HETATM   19  C   UNL     1      41.816  -9.271   8.834  1.00  0.00     0.168 C 
HETATM   20  H   UNL     1      42.565  -9.225   6.963  1.00  0.00     0.162 HD
HETATM   21  S   UNL     1      40.237  -9.351   8.332  1.00  0.00    -0.041 SA
HETATM   22  N   UNL     1      42.134  -9.237  10.151  1.00  0.00    -0.363 N 
HETATM   23  C   UNL     1      43.488  -9.282  10.678  1.00  0.00     0.081 C 
HETATM   24  H   UNL     1      41.354  -9.349  10.788  1.00  0.00     0.162 HD
HETATM   25  C   UNL     1      43.570  -8.527  12.001  1.00  0.00     0.032 C 
HETATM   26  C   UNL     1      44.480  -8.719   9.663  1.00  0.00     0.050 C 
ENDBRANCH  16  17
ENDBRANCH  13  16
ENDBRANCH  11  12
ENDBRANCH   8  11
BRANCH   4  27
HETATM   27  C   UNL     1      41.704 -15.017   1.635  1.00  0.00     0.112 A 
HETATM   28  S   UNL     1      42.038 -13.328   1.591  1.00  0.00    -0.067 SA
HETATM   29  C   UNL     1      40.914 -13.124   0.307  1.00  0.00     0.035 A 
HETATM   30  C   UNL     1      40.370 -14.366  -0.017  1.00  0.00     0.075 A 
HETATM   31  C   UNL     1      40.543 -11.951  -0.371  1.00  0.00     0.021 A 
HETATM   32  N   UNL     1      40.835 -15.432   0.732  1.00  0.00    -0.239 NA
HETATM   33  C   UNL     1      39.420 -14.439  -1.057  1.00  0.00     0.033 A 
HETATM   34  C   UNL     1      39.043 -13.278  -1.739  1.00  0.00     0.002 A 
HETATM   35  C   UNL     1      39.600 -12.050  -1.399  1.00  0.00     0.002 A 
ENDBRANCH   4  27
TORSDOF 5
ENDMDL
MODEL 6
REMARK VINA RESULT:      -9.3      1.544      2.048
REMARK  5 active torsions:
REMARK  status: ('A' for Active; 'I' for Inactive)
REMARK    1  A    between atoms: C_4  and  C_5 
REMARK    2  A    between atoms: C_17  and  C_18 
REMARK    3  A    between atoms: C_18  and  N_19 
REMARK       I    between atoms: N_19  and  C_20 
REMARK    4  A    between atoms: C_20  and  C_21 
REMARK    5  A    between atoms: C_21  and  C_22 
ROOT
HETATM    1  C   UNL     1      39.867 -14.257  -0.659  1.00  0.00     0.048 C 
HETATM    2  C   UNL     1      40.659 -14.167   0.613  1.00  0.00    -0.060 A 
HETATM    3  C   UNL     1      41.250 -15.318   1.173  1.00  0.00     0.024 A 
HETATM    4  C   UNL     1      42.023 -15.266   2.351  1.00  0.00     0.034 A 
HETATM    5  C   UNL     1      42.197 -14.011   2.923  1.00  0.00     0.088 A 
HETATM    6  C   UNL     1      41.623 -12.869   2.377  1.00  0.00    -0.021 A 
HETATM    7  C   UNL     1      42.037 -11.673   3.142  1.00  0.00     0.075 C 
HETATM    8  C   UNL     1      42.703 -12.345   4.350  1.00  0.00     0.151 C 
HETATM    9  O   UNL     1      42.978 -13.733   4.019  1.00  0.00    -0.342 OA
HETATM   10  C   UNL     1      40.855 -12.925   1.226  1.00  0.00     0.017 A 
ENDROOT
BRANCH   8  11
HETATM   11  C   UNL     1      44.024 -11.671   4.743  1.00  0.00     0.155 C 
BRANCH  11  12
HETATM   12  N   UNL     1      44.000 -11.039   6.051  1.00  0.00    -0.359 N 
HETATM   13  C   UNL     1      45.132 -10.929   6.828  1.00  0.00     0.219 C 
HETATM   14  O   UNL     1      46.223 -11.366   6.485  1.00  0.00    -0.274 OA
HETATM   15  H   UNL     1      43.143 -10.592   6.353  1.00  0.00     0.162 HD
BRANCH  13  16
HETATM   16  C   UNL     1      44.873 -10.232   8.146  1.00  0.00     0.128 C 
BRANCH  16  17
HETATM   17  C   UNL     1      43.391  -9.910   8.388  1.00  0.00     0.094 C 
HETATM   18  N   UNL     1      43.000 -10.399   9.708  1.00  0.00    -0.362 N 
HETATM   19  C   UNL     1      43.080  -9.667  10.847  1.00  0.00     0.168 C 
HETATM   20  H   UNL     1      42.815 -11.389   9.833  1.00  0.00     0.162 HD
HETATM   21  S   UNL     1      42.867 -10.368  12.336  1.00  0.00    -0.041 SA
HETATM   22  N   UNL     1      43.314  -8.338  10.723  1.00  0.00    -0.363 N 
HETATM   23  C   UNL     1      43.624  -7.664   9.474  1.00  0.00     0.081 C 
HETATM   24  H   UNL     1      43.429  -7.835  11.595  1.00  0.00     0.162 HD
HETATM   25  C   UNL     1      43.123  -6.224   9.505  1.00  0.00     0.032 C 
HETATM   26  C   UNL     1      43.031  -8.424   8.289  1.00  0.00     0.050 C 
ENDBRANCH  16  17
ENDBRANCH  13  16
ENDBRANCH  11  12
ENDBRANCH   8  11
BRANCH   4  27
HETATM   27  C   UNL     1      42.604 -16.512   2.871  1.00  0.00     0.112 A 
HETATM   28  S   UNL     1      43.089 -16.666   4.516  1.00  0.00    -0.067 SA
HETATM   29  C   UNL     1      43.514 -18.310   4.253  1.00  0.00     0.035 A 
HETATM   30  C   UNL     1      43.239 -18.641   2.927  1.00  0.00     0.075 A 
HETATM   31  C   UNL     1      44.046 -19.246   5.157  1.00  0.00     0.021 A 
HETATM   32  N   UNL     1      42.711 -17.618   2.158  1.00  0.00    -0.239 NA
HETATM   33  C   UNL     1      43.505 -19.953   2.486  1.00  0.00     0.033 A 
HETATM   34  C   UNL     1      44.035 -20.893   3.376  1.00  0.00     0.002 A 
HETATM   35  C   UNL     1      44.301 -20.541   4.695  1.00  0.00     0.002 A 
ENDBRANCH   4  27
TORSDOF 5
ENDMDL
MODEL 7
REMARK VINA RESULT:      -9.2      3.182      5.804
REMARK  5 active torsions:
REMARK  status: ('A' for Active; 'I' for Inactive)
REMARK    1  A    between atoms: C_4  and  C_5 
REMARK    2  A    between atoms: C_17  and  C_18 
REMARK    3  A    between atoms: C_18  and  N_19 
REMARK       I    between atoms: N_19  and  C_20 
REMARK    4  A    between atoms: C_20  and  C_21 
REMARK    5  A    between atoms: C_21  and  C_22 
ROOT
HETATM    1  C   UNL     1      43.557 -18.322   2.701  1.00  0.00     0.048 C 
HETATM    2  C   UNL     1      42.881 -17.006   2.952  1.00  0.00    -0.060 A 
HETATM    3  C   UNL     1      42.227 -16.324   1.905  1.00  0.00     0.024 A 
HETATM    4  C   UNL     1      41.558 -15.099   2.111  1.00  0.00     0.034 A 
HETATM    5  C   UNL     1      41.554 -14.607   3.411  1.00  0.00     0.088 A 
HETATM    6  C   UNL     1      42.191 -15.273   4.451  1.00  0.00    -0.021 A 
HETATM    7  C   UNL     1      41.959 -14.566   5.729  1.00  0.00     0.075 C 
HETATM    8  C   UNL     1      41.327 -13.268   5.207  1.00  0.00     0.151 C 
HETATM    9  O   UNL     1      40.893 -13.480   3.836  1.00  0.00    -0.342 OA
HETATM   10  C   UNL     1      42.856 -16.470   4.243  1.00  0.00     0.017 A 
ENDROOT
BRANCH   8  11
HETATM   11  C   UNL     1      40.114 -12.829   6.037  1.00  0.00     0.155 C 
BRANCH  11  12
HETATM   12  N   UNL     1      40.317 -11.593   6.773  1.00  0.00    -0.359 N 
HETATM   13  C   UNL     1      39.265 -10.781   7.137  1.00  0.00     0.219 C 
HETATM   14  O   UNL     1      38.099 -11.032   6.856  1.00  0.00    -0.274 OA
HETATM   15  H   UNL     1      41.251 -11.374   7.098  1.00  0.00     0.162 HD
BRANCH  13  16
HETATM   16  C   UNL     1      39.710  -9.551   7.899  1.00  0.00     0.128 C 
BRANCH  16  17
HETATM   17  C   UNL     1      39.184  -9.500   9.340  1.00  0.00     0.094 C 
HETATM   18  N   UNL     1      40.221  -9.978  10.251  1.00  0.00    -0.362 N 
HETATM   19  C   UNL     1      41.151  -9.180  10.833  1.00  0.00     0.168 C 
HETATM   20  H   UNL     1      40.381 -10.976  10.335  1.00  0.00     0.162 HD
HETATM   21  S   UNL     1      42.448  -9.824  11.643  1.00  0.00    -0.041 SA
HETATM   22  N   UNL     1      40.966  -7.840  10.754  1.00  0.00    -0.363 N 
HETATM   23  C   UNL     1      39.926  -7.192   9.972  1.00  0.00     0.081 C 
HETATM   24  H   UNL     1      41.711  -7.276  11.146  1.00  0.00     0.162 HD
HETATM   25  C   UNL     1      39.518  -5.872  10.618  1.00  0.00     0.032 C 
HETATM   26  C   UNL     1      38.721  -8.115   9.806  1.00  0.00     0.050 C 
ENDBRANCH  16  17
ENDBRANCH  13  16
ENDBRANCH  11  12
ENDBRANCH   8  11
BRANCH   4  27
HETATM   27  C   UNL     1      40.901 -14.452   0.966  1.00  0.00     0.112 A 
HETATM   28  S   UNL     1      41.171 -12.793   0.590  1.00  0.00    -0.067 SA
HETATM   29  C   UNL     1      40.173 -12.932  -0.803  1.00  0.00     0.035 A 
HETATM   30  C   UNL     1      39.713 -14.244  -0.899  1.00  0.00     0.075 A 
HETATM   31  C   UNL     1      39.826 -11.952  -1.748  1.00  0.00     0.021 A 
HETATM   32  N   UNL     1      40.143 -15.098   0.100  1.00  0.00    -0.239 NA
HETATM   33  C   UNL     1      38.875 -14.592  -1.979  1.00  0.00     0.033 A 
HETATM   34  C   UNL     1      38.522 -13.625  -2.926  1.00  0.00     0.002 A 
HETATM   35  C   UNL     1      38.994 -12.321  -2.810  1.00  0.00     0.002 A 
ENDBRANCH   4  27
TORSDOF 5
ENDMDL
MODEL 8
REMARK VINA RESULT:      -9.2      2.701      5.153
REMARK  5 active torsions:
REMARK  status: ('A' for Active; 'I' for Inactive)
REMARK    1  A    between atoms: C_4  and  C_5 
REMARK    2  A    between atoms: C_17  and  C_18 
REMARK    3  A    between atoms: C_18  and  N_19 
REMARK       I    between atoms: N_19  and  C_20 
REMARK    4  A    between atoms: C_20  and  C_21 
REMARK    5  A    between atoms: C_21  and  C_22 
ROOT
HETATM    1  C   UNL     1      47.150 -10.281   7.855  1.00  0.00     0.048 C 
HETATM    2  C   UNL     1      45.692 -10.404   7.521  1.00  0.00    -0.060 A 
HETATM    3  C   UNL     1      45.213 -11.517   6.799  1.00  0.00     0.024 A 
HETATM    4  C   UNL     1      43.846 -11.679   6.491  1.00  0.00     0.034 A 
HETATM    5  C   UNL     1      42.985 -10.692   6.957  1.00  0.00     0.088 A 
HETATM    6  C   UNL     1      43.446  -9.594   7.673  1.00  0.00    -0.021 A 
HETATM    7  C   UNL     1      42.308  -8.753   8.107  1.00  0.00     0.075 C 
HETATM    8  C   UNL     1      41.174  -9.400   7.300  1.00  0.00     0.151 C 
HETATM    9  O   UNL     1      41.617 -10.705   6.836  1.00  0.00    -0.342 OA
HETATM   10  C   UNL     1      44.790  -9.432   7.964  1.00  0.00     0.017 A 
ENDROOT
BRANCH   8  11
HETATM   11  C   UNL     1      39.897  -9.590   8.129  1.00  0.00     0.155 C 
BRANCH  11  12
HETATM   12  N   UNL     1      39.956  -8.988   9.451  1.00  0.00    -0.359 N 
HETATM   13  C   UNL     1      39.445  -9.621  10.563  1.00  0.00     0.219 C 
HETATM   14  O   UNL     1      38.897 -10.715  10.515  1.00  0.00    -0.274 OA
HETATM   15  H   UNL     1      40.464  -8.119   9.562  1.00  0.00     0.162 HD
BRANCH  13  16
HETATM   16  C   UNL     1      39.619  -8.812  11.830  1.00  0.00     0.128 C 
BRANCH  16  17
HETATM   17  C   UNL     1      40.354  -9.571  12.944  1.00  0.00     0.094 C 
HETATM   18  N   UNL     1      41.426 -10.372  12.358  1.00  0.00    -0.362 N 
HETATM   19  C   UNL     1      42.695  -9.930  12.173  1.00  0.00     0.168 C 
HETATM   20  H   UNL     1      41.193 -11.248  11.902  1.00  0.00     0.162 HD
HETATM   21  S   UNL     1      43.783 -10.797  11.270  1.00  0.00    -0.041 SA
HETATM   22  N   UNL     1      43.049  -8.770  12.776  1.00  0.00    -0.363 N 
HETATM   23  C   UNL     1      42.134  -7.893  13.487  1.00  0.00     0.081 C 
HETATM   24  H   UNL     1      43.983  -8.439  12.565  1.00  0.00     0.162 HD
HETATM   25  C   UNL     1      42.864  -7.149  14.601  1.00  0.00     0.032 C 
HETATM   26  C   UNL     1      40.951  -8.683  14.041  1.00  0.00     0.050 C 
ENDBRANCH  16  17
ENDBRANCH  13  16
ENDBRANCH  11  12
ENDBRANCH   8  11
BRANCH   4  27
HETATM   27  C   UNL     1      43.429 -12.869   5.735  1.00  0.00     0.112 A 
HETATM   28  S   UNL     1      42.826 -12.751   4.126  1.00  0.00    -0.067 SA
HETATM   29  C   UNL     1      42.699 -14.462   4.033  1.00  0.00     0.035 A 
HETATM   30  C   UNL     1      43.144 -15.014   5.233  1.00  0.00     0.075 A 
HETATM   31  C   UNL     1      42.244 -15.263   2.971  1.00  0.00     0.021 A 
HETATM   32  N   UNL     1      43.568 -14.102   6.184  1.00  0.00    -0.239 NA
HETATM   33  C   UNL     1      43.134 -16.416   5.380  1.00  0.00     0.033 A 
HETATM   34  C   UNL     1      42.684 -17.223   4.330  1.00  0.00     0.002 A 
HETATM   35  C   UNL     1      42.245 -16.651   3.141  1.00  0.00     0.002 A 
ENDBRANCH   4  27
TORSDOF 5
ENDMDL
MODEL 9
REMARK VINA RESULT:      -9.1      4.039      8.455
REMARK  5 active torsions:
REMARK  status: ('A' for Active; 'I' for Inactive)
REMARK    1  A    between atoms: C_4  and  C_5 
REMARK    2  A    between atoms: C_17  and  C_18 
REMARK    3  A    between atoms: C_18  and  N_19 
REMARK       I    between atoms: N_19  and  C_20 
REMARK    4  A    between atoms: C_20  and  C_21 
REMARK    5  A    between atoms: C_21  and  C_22 
ROOT
HETATM    1  C   UNL     1      44.365 -11.916   7.551  1.00  0.00     0.048 C 
HETATM    2  C   UNL     1      43.661 -12.637   6.438  1.00  0.00    -0.060 A 
HETATM    3  C   UNL     1      43.830 -14.026   6.264  1.00  0.00     0.024 A 
HETATM    4  C   UNL     1      43.163 -14.740   5.247  1.00  0.00     0.034 A 
HETATM    5  C   UNL     1      42.307 -14.006   4.434  1.00  0.00     0.088 A 
HETATM    6  C   UNL     1      42.130 -12.638   4.600  1.00  0.00    -0.021 A 
HETATM    7  C   UNL     1      41.109 -12.136   3.654  1.00  0.00     0.075 C 
HETATM    8  C   UNL     1      40.943 -13.373   2.759  1.00  0.00     0.151 C 
HETATM    9  O   UNL     1      41.506 -14.524   3.445  1.00  0.00    -0.342 OA
HETATM   10  C   UNL     1      42.794 -11.938   5.593  1.00  0.00     0.017 A 
ENDROOT
BRANCH   8  11
HETATM   11  C   UNL     1      39.473 -13.672   2.439  1.00  0.00     0.155 C 
BRANCH  11  12
HETATM   12  N   UNL     1      38.842 -12.685   1.579  1.00  0.00    -0.359 N 
HETATM   13  C   UNL     1      39.466 -12.195   0.453  1.00  0.00     0.219 C 
HETATM   14  O   UNL     1      40.590 -12.539   0.109  1.00  0.00    -0.274 OA
HETATM   15  H   UNL     1      37.883 -12.422   1.772  1.00  0.00     0.162 HD
BRANCH  13  16
HETATM   16  C   UNL     1      38.623 -11.182  -0.291  1.00  0.00     0.128 C 
BRANCH  16  17
HETATM   17  C   UNL     1      38.925 -11.119  -1.794  1.00  0.00     0.094 C 
HETATM   18  N   UNL     1      39.142 -12.473  -2.301  1.00  0.00    -0.362 N 
HETATM   19  C   UNL     1      38.160 -13.269  -2.792  1.00  0.00     0.168 C 
HETATM   20  H   UNL     1      40.033 -12.926  -2.131  1.00  0.00     0.162 HD
HETATM   21  S   UNL     1      38.433 -14.875  -3.104  1.00  0.00    -0.041 SA
HETATM   22  N   UNL     1      36.957 -12.698  -3.045  1.00  0.00    -0.363 N 
HETATM   23  C   UNL     1      36.598 -11.334  -2.697  1.00  0.00     0.081 C 
HETATM   24  H   UNL     1      36.231 -13.335  -3.352  1.00  0.00     0.162 HD
HETATM   25  C   UNL     1      35.576 -10.782  -3.687  1.00  0.00     0.032 C 
HETATM   26  C   UNL     1      37.840 -10.447  -2.641  1.00  0.00     0.050 C 
ENDBRANCH  16  17
ENDBRANCH  13  16
ENDBRANCH  11  12
ENDBRANCH   8  11
BRANCH   4  27
HETATM   27  C   UNL     1      43.394 -16.187   5.133  1.00  0.00     0.112 A 
HETATM   28  S   UNL     1      43.380 -17.215   6.515  1.00  0.00    -0.067 SA
HETATM   29  C   UNL     1      43.621 -18.591   5.512  1.00  0.00     0.035 A 
HETATM   30  C   UNL     1      43.678 -18.175   4.183  1.00  0.00     0.075 A 
HETATM   31  C   UNL     1      43.744 -19.943   5.874  1.00  0.00     0.021 A 
HETATM   32  N   UNL     1      43.534 -16.814   3.980  1.00  0.00    -0.239 NA
HETATM   33  C   UNL     1      43.865 -19.145   3.177  1.00  0.00     0.033 A 
HETATM   34  C   UNL     1      43.989 -20.494   3.524  1.00  0.00     0.002 A 
HETATM   35  C   UNL     1      43.928 -20.886   4.858  1.00  0.00     0.002 A 
ENDBRANCH   4  27
TORSDOF 5
ENDMDL
MODEL 10
REMARK VINA RESULT:      -8.9      2.347      4.761
REMARK  5 active torsions:
REMARK  status: ('A' for Active; 'I' for Inactive)
REMARK    1  A    between atoms: C_4  and  C_5 
REMARK    2  A    between atoms: C_17  and  C_18 
REMARK    3  A    between atoms: C_18  and  N_19 
REMARK       I    between atoms: N_19  and  C_20 
REMARK    4  A    between atoms: C_20  and  C_21 
REMARK    5  A    between atoms: C_21  and  C_22 
ROOT
HETATM    1  C   UNL     1      43.505 -17.715   5.815  1.00  0.00     0.048 C 
HETATM    2  C   UNL     1      43.294 -16.280   5.430  1.00  0.00    -0.060 A 
HETATM    3  C   UNL     1      42.698 -15.948   4.196  1.00  0.00     0.024 A 
HETATM    4  C   UNL     1      42.460 -14.612   3.814  1.00  0.00     0.034 A 
HETATM    5  C   UNL     1      42.820 -13.632   4.731  1.00  0.00     0.088 A 
HETATM    6  C   UNL     1      43.403 -13.947   5.952  1.00  0.00    -0.021 A 
HETATM    7  C   UNL     1      43.607 -12.721   6.753  1.00  0.00     0.075 C 
HETATM    8  C   UNL     1      43.301 -11.654   5.692  1.00  0.00     0.151 C 
HETATM    9  O   UNL     1      42.598 -12.283   4.587  1.00  0.00    -0.342 OA
HETATM   10  C   UNL     1      43.646 -15.260   6.320  1.00  0.00     0.017 A 
ENDROOT
BRANCH   8  11
HETATM   11  C   UNL     1      42.428 -10.517   6.238  1.00  0.00     0.155 C 
BRANCH  11  12
HETATM   12  N   UNL     1      42.378 -10.453   7.689  1.00  0.00    -0.359 N 
HETATM   13  C   UNL     1      43.243  -9.662   8.413  1.00  0.00     0.219 C 
HETATM   14  O   UNL     1      44.117  -8.978   7.893  1.00  0.00    -0.274 OA
HETATM   15  H   UNL     1      41.628 -10.937   8.167  1.00  0.00     0.162 HD
BRANCH  13  16
HETATM   16  C   UNL     1      43.007  -9.748   9.905  1.00  0.00     0.128 C 
BRANCH  16  17
HETATM   17  C   UNL     1      42.008  -8.707  10.428  1.00  0.00     0.094 C 
HETATM   18  N   UNL     1      40.877  -9.393  11.049  1.00  0.00    -0.362 N 
HETATM   19  C   UNL     1      40.819  -9.731  12.362  1.00  0.00     0.168 C 
HETATM   20  H   UNL     1      40.160  -9.798  10.457  1.00  0.00     0.162 HD
HETATM   21  S   UNL     1      39.628 -10.732  12.938  1.00  0.00    -0.041 SA
HETATM   22  N   UNL     1      41.752  -9.200  13.188  1.00  0.00    -0.363 N 
HETATM   23  C   UNL     1      42.891  -8.411  12.753  1.00  0.00     0.081 C 
HETATM   24  H   UNL     1      41.715  -9.524  14.148  1.00  0.00     0.162 HD
HETATM   25  C   UNL     1      43.287  -7.406  13.830  1.00  0.00     0.032 C 
HETATM   26  C   UNL     1      42.587  -7.707  11.433  1.00  0.00     0.050 C 
ENDBRANCH  16  17
ENDBRANCH  13  16
ENDBRANCH  11  12
ENDBRANCH   8  11
BRANCH   4  27
HETATM   27  C   UNL     1      41.834 -14.352   2.509  1.00  0.00     0.112 A 
HETATM   28  S   UNL     1      40.866 -15.537   1.719  1.00  0.00    -0.067 SA
HETATM   29  C   UNL     1      40.525 -14.432   0.447  1.00  0.00     0.035 A 
HETATM   30  C   UNL     1      41.160 -13.222   0.719  1.00  0.00     0.075 A 
HETATM   31  C   UNL     1      39.745 -14.620  -0.707  1.00  0.00     0.021 A 
HETATM   32  N   UNL     1      41.886 -13.184   1.896  1.00  0.00    -0.239 NA
HETATM   33  C   UNL     1      41.012 -12.158  -0.195  1.00  0.00     0.033 A 
HETATM   34  C   UNL     1      40.239 -12.333  -1.347  1.00  0.00     0.002 A 
HETATM   35  C   UNL     1      39.614 -13.550  -1.597  1.00  0.00     0.002 A 
ENDBRANCH   4  27
TORSDOF 5
ENDMDL
