MODEL 1
REMARK VINA RESULT:      -8.2      0.000      0.000
REMARK  8 active torsions:
REMARK  status: ('A' for Active; 'I' for Inactive)
REMARK    1  A    between atoms: C_2  and  O_3 
REMARK    2  A    between atoms: O_3  and  C_4 
REMARK       I    between atoms: C_4  and  N_5 
REMARK    3  A    between atoms: C_8  and  N_9 
REMARK       I    between atoms: N_9  and  C_10 
REMARK    4  A    between atoms: C_10  and  C_11 
REMARK    5  A    between atoms: C_12  and  C_13 
REMARK    6  A    between atoms: N_18  and  C_19 
REMARK    7  A    between atoms: C_19  and  C_20 
REMARK    8  A    between atoms: C_20  and  O_21 
ROOT
HETATM    1  C   UNL     1      42.161 -14.927   3.380  1.00  0.00     0.139 C 
HETATM    2  C   UNL     1      41.836 -14.459   4.819  1.00  0.00     0.145 C 
HETATM    3  N   UNL     1      43.027 -14.597   5.687  1.00  0.00    -0.335 N 
HETATM    4  C   UNL     1      43.745 -15.797   5.666  1.00  0.00     0.255 C 
HETATM    5  O   UNL     1      44.573 -16.098   6.521  1.00  0.00    -0.267 OA
HETATM    6  C   UNL     1      43.509 -16.725   4.524  1.00  0.00     0.039 A 
HETATM    7  C   UNL     1      42.774 -16.317   3.400  1.00  0.00    -0.027 A 
HETATM    8  C   UNL     1      44.095 -17.998   4.563  1.00  0.00     0.017 A 
HETATM    9  C   UNL     1      43.972 -18.862   3.477  1.00  0.00     0.001 A 
HETATM   10  C   UNL     1      43.283 -18.449   2.341  1.00  0.00     0.001 A 
HETATM   11  C   UNL     1      42.698 -17.183   2.295  1.00  0.00     0.009 A 
ENDROOT
BRANCH   1  12
HETATM   12  C   UNL     1      40.933 -14.829   2.476  1.00  0.00     0.229 C 
HETATM   13  N   UNL     1      41.032 -13.963   1.402  1.00  0.00    -0.356 N 
HETATM   14  H   UNL     1      41.788 -13.291   1.398  1.00  0.00     0.162 HD
HETATM   15  O   UNL     1      39.906 -15.457   2.728  1.00  0.00    -0.273 OA
BRANCH  13  16
HETATM   16  C   UNL     1      39.881 -13.704   0.537  1.00  0.00     0.087 C 
HETATM   17  C   UNL     1      39.119 -12.448   0.986  1.00  0.00     0.045 C 
HETATM   18  C   UNL     1      39.868 -11.169   0.627  1.00  0.00     0.130 C 
HETATM   19  N   UNL     1      40.214 -11.162  -0.787  1.00  0.00    -0.328 N 
HETATM   20  C   UNL     1      39.809 -10.111  -1.592  1.00  0.00     0.362 C 
HETATM   21  C   UNL     1      41.001 -12.296  -1.260  1.00  0.00     0.130 C 
HETATM   22  O   UNL     1      39.183  -9.140  -1.184  1.00  0.00    -0.238 OA
HETATM   23  C   UNL     1      40.299 -13.610  -0.935  1.00  0.00     0.045 C 
BRANCH  20  24
HETATM   24  O   UNL     1      40.172 -10.284  -2.891  1.00  0.00    -0.304 OA
BRANCH  24  25
HETATM   25  C   UNL     1      40.065  -9.131  -3.739  1.00  0.00     0.176 C 
HETATM   26  C   UNL     1      41.403  -8.423  -3.820  1.00  0.00     0.034 C 
ENDBRANCH  24  25
ENDBRANCH  20  24
ENDBRANCH  13  16
ENDBRANCH   1  12
BRANCH   2  27
HETATM   27  C   UNL     1      41.265 -13.056   4.826  1.00  0.00     0.006 A 
HETATM   28  S   UNL     1      39.793 -12.752   5.667  1.00  0.00    -0.104 SA
HETATM   29  C   UNL     1      39.802 -11.103   5.225  1.00  0.00     0.050 A 
HETATM   30  C   UNL     1      40.890 -10.783   4.447  1.00  0.00     0.008 A 
HETATM   31  C   UNL     1      41.732 -11.908   4.212  1.00  0.00     0.017 A 
ENDBRANCH   2  27
BRANCH   3  32
HETATM   32  C   UNL     1      43.272 -13.711   6.836  1.00  0.00     0.153 C 
BRANCH  32  33
HETATM   33  C   UNL     1      44.397 -12.711   6.547  1.00  0.00     0.187 C 
BRANCH  33  34
HETATM   34  O   UNL     1      44.654 -11.917   7.706  1.00  0.00    -0.394 OA
HETATM   35  C   UNL     1      45.615 -10.905   7.433  1.00  0.00     0.201 C 
ENDBRANCH  33  34
ENDBRANCH  32  33
ENDBRANCH   3  32
TORSDOF 8
ENDMDL
MODEL 2
REMARK VINA RESULT:      -7.6      3.443      8.457
REMARK  8 active torsions:
REMARK  status: ('A' for Active; 'I' for Inactive)
REMARK    1  A    between atoms: C_2  and  O_3 
REMARK    2  A    between atoms: O_3  and  C_4 
REMARK       I    between atoms: C_4  and  N_5 
REMARK    3  A    between atoms: C_8  and  N_9 
REMARK       I    between atoms: N_9  and  C_10 
REMARK    4  A    between atoms: C_10  and  C_11 
REMARK    5  A    between atoms: C_12  and  C_13 
REMARK    6  A    between atoms: N_18  and  C_19 
REMARK    7  A    between atoms: C_19  and  C_20 
REMARK    8  A    between atoms: C_20  and  O_21 
ROOT
HETATM    1  C   UNL     1      42.619 -13.185   6.082  1.00  0.00     0.139 C 
HETATM    2  C   UNL     1      41.914 -12.702   4.791  1.00  0.00     0.145 C 
HETATM    3  N   UNL     1      40.913 -13.697   4.348  1.00  0.00    -0.335 N 
HETATM    4  C   UNL     1      41.278 -15.045   4.282  1.00  0.00     0.255 C 
HETATM    5  O   UNL     1      40.615 -15.892   3.692  1.00  0.00    -0.267 OA
HETATM    6  C   UNL     1      42.515 -15.462   5.001  1.00  0.00     0.039 A 
HETATM    7  C   UNL     1      43.160 -14.593   5.895  1.00  0.00    -0.027 A 
HETATM    8  C   UNL     1      42.987 -16.769   4.820  1.00  0.00     0.017 A 
HETATM    9  C   UNL     1      44.089 -17.225   5.541  1.00  0.00     0.001 A 
HETATM   10  C   UNL     1      44.707 -16.385   6.462  1.00  0.00     0.001 A 
HETATM   11  C   UNL     1      44.241 -15.083   6.648  1.00  0.00     0.009 A 
ENDROOT
BRANCH   1  12
HETATM   12  C   UNL     1      43.686 -12.190   6.535  1.00  0.00     0.229 C 
HETATM   13  N   UNL     1      43.503 -11.624   7.783  1.00  0.00    -0.356 N 
HETATM   14  H   UNL     1      42.593 -11.710   8.219  1.00  0.00     0.162 HD
HETATM   15  O   UNL     1      44.625 -11.886   5.802  1.00  0.00    -0.273 OA
BRANCH  13  16
HETATM   16  C   UNL     1      44.398 -10.575   8.272  1.00  0.00     0.087 C 
HETATM   17  C   UNL     1      43.812  -9.179   8.016  1.00  0.00     0.045 C 
HETATM   18  C   UNL     1      42.669  -8.858   8.973  1.00  0.00     0.130 C 
HETATM   19  N   UNL     1      43.085  -9.067  10.353  1.00  0.00    -0.328 N 
HETATM   20  C   UNL     1      42.980  -8.037  11.270  1.00  0.00     0.362 C 
HETATM   21  C   UNL     1      43.585 -10.399  10.675  1.00  0.00     0.130 C 
HETATM   22  O   UNL     1      42.521  -6.932  11.006  1.00  0.00    -0.238 OA
HETATM   23  C   UNL     1      44.740 -10.778   9.753  1.00  0.00     0.045 C 
BRANCH  20  24
HETATM   24  O   UNL     1      43.455  -8.384  12.496  1.00  0.00    -0.304 OA
BRANCH  24  25
HETATM   25  C   UNL     1      42.551  -8.217  13.598  1.00  0.00     0.176 C 
HETATM   26  C   UNL     1      43.049  -7.114  14.511  1.00  0.00     0.034 C 
ENDBRANCH  24  25
ENDBRANCH  20  24
ENDBRANCH  13  16
ENDBRANCH   1  12
BRANCH   2  27
HETATM   27  C   UNL     1      41.327 -11.317   4.970  1.00  0.00     0.006 A 
HETATM   28  S   UNL     1      41.820 -10.052   3.911  1.00  0.00    -0.104 SA
HETATM   29  C   UNL     1      40.825  -8.911   4.700  1.00  0.00     0.050 A 
HETATM   30  C   UNL     1      40.137  -9.467   5.754  1.00  0.00     0.008 A 
HETATM   31  C   UNL     1      40.429 -10.853   5.914  1.00  0.00     0.017 A 
ENDBRANCH   2  27
BRANCH   3  32
HETATM   32  C   UNL     1      39.695 -13.315   3.614  1.00  0.00     0.153 C 
BRANCH  32  33
HETATM   33  C   UNL     1      40.014 -12.894   2.174  1.00  0.00     0.187 C 
BRANCH  33  34
HETATM   34  O   UNL     1      39.656 -13.941   1.270  1.00  0.00    -0.394 OA
HETATM   35  C   UNL     1      40.741 -14.267   0.410  1.00  0.00     0.201 C 
ENDBRANCH  33  34
ENDBRANCH  32  33
ENDBRANCH   3  32
TORSDOF 8
ENDMDL
MODEL 3
REMARK VINA RESULT:      -7.4      2.030      2.616
REMARK  8 active torsions:
REMARK  status: ('A' for Active; 'I' for Inactive)
REMARK    1  A    between atoms: C_2  and  O_3 
REMARK    2  A    between atoms: O_3  and  C_4 
REMARK       I    between atoms: C_4  and  N_5 
REMARK    3  A    between atoms: C_8  and  N_9 
REMARK       I    between atoms: N_9  and  C_10 
REMARK    4  A    between atoms: C_10  and  C_11 
REMARK    5  A    between atoms: C_12  and  C_13 
REMARK    6  A    between atoms: N_18  and  C_19 
REMARK    7  A    between atoms: C_19  and  C_20 
REMARK    8  A    between atoms: C_20  and  O_21 
ROOT
HETATM    1  C   UNL     1      41.545 -14.465   2.040  1.00  0.00     0.139 C 
HETATM    2  C   UNL     1      40.675 -13.893   3.186  1.00  0.00     0.145 C 
HETATM    3  N   UNL     1      41.488 -13.711   4.408  1.00  0.00    -0.335 N 
HETATM    4  C   UNL     1      42.314 -14.756   4.836  1.00  0.00     0.255 C 
HETATM    5  O   UNL     1      42.816 -14.798   5.955  1.00  0.00    -0.267 OA
HETATM    6  C   UNL     1      42.616 -15.842   3.861  1.00  0.00     0.039 A 
HETATM    7  C   UNL     1      42.282 -15.710   2.504  1.00  0.00    -0.027 A 
HETATM    8  C   UNL     1      43.308 -16.975   4.313  1.00  0.00     0.017 A 
HETATM    9  C   UNL     1      43.688 -17.971   3.416  1.00  0.00     0.001 A 
HETATM   10  C   UNL     1      43.399 -17.828   2.062  1.00  0.00     0.001 A 
HETATM   11  C   UNL     1      42.712 -16.702   1.606  1.00  0.00     0.009 A 
ENDROOT
BRANCH   1  12
HETATM   12  C   UNL     1      40.714 -14.698   0.778  1.00  0.00     0.229 C 
HETATM   13  N   UNL     1      40.982 -13.866  -0.293  1.00  0.00    -0.356 N 
HETATM   14  H   UNL     1      41.524 -13.028  -0.123  1.00  0.00     0.162 HD
HETATM   15  O   UNL     1      39.830 -15.553   0.748  1.00  0.00    -0.273 OA
BRANCH  13  16
HETATM   16  C   UNL     1      40.173 -13.923  -1.510  1.00  0.00     0.087 C 
HETATM   17  C   UNL     1      38.770 -13.343  -1.273  1.00  0.00     0.045 C 
HETATM   18  C   UNL     1      38.793 -11.821  -1.179  1.00  0.00     0.130 C 
HETATM   19  N   UNL     1      39.468 -11.248  -2.334  1.00  0.00    -0.328 N 
HETATM   20  C   UNL     1      38.819 -10.316  -3.124  1.00  0.00     0.362 C 
HETATM   21  C   UNL     1      40.833 -11.708  -2.570  1.00  0.00     0.130 C 
HETATM   22  O   UNL     1      37.687  -9.902  -2.899  1.00  0.00    -0.238 OA
HETATM   23  C   UNL     1      40.878 -13.228  -2.681  1.00  0.00     0.045 C 
BRANCH  20  24
HETATM   24  O   UNL     1      39.571  -9.921  -4.185  1.00  0.00    -0.304 OA
BRANCH  24  25
HETATM   25  C   UNL     1      39.165  -8.706  -4.833  1.00  0.00     0.176 C 
HETATM   26  C   UNL     1      40.152  -8.352  -5.928  1.00  0.00     0.034 C 
ENDBRANCH  24  25
ENDBRANCH  20  24
ENDBRANCH  13  16
ENDBRANCH   1  12
BRANCH   2  27
HETATM   27  C   UNL     1      39.965 -12.625   2.758  1.00  0.00     0.006 A 
HETATM   28  S   UNL     1      40.900 -11.263   2.273  1.00  0.00    -0.104 SA
HETATM   29  C   UNL     1      39.505 -10.320   1.992  1.00  0.00     0.050 A 
HETATM   30  C   UNL     1      38.349 -11.013   2.268  1.00  0.00     0.008 A 
HETATM   31  C   UNL     1      38.612 -12.341   2.714  1.00  0.00     0.017 A 
ENDBRANCH   2  27
BRANCH   3  32
HETATM   32  C   UNL     1      41.196 -12.664   5.400  1.00  0.00     0.153 C 
BRANCH  32  33
HETATM   33  C   UNL     1      39.968 -13.017   6.247  1.00  0.00     0.187 C 
BRANCH  33  34
HETATM   34  O   UNL     1      39.104 -11.883   6.348  1.00  0.00    -0.394 OA
HETATM   35  C   UNL     1      39.771 -10.693   5.945  1.00  0.00     0.201 C 
ENDBRANCH  33  34
ENDBRANCH  32  33
ENDBRANCH   3  32
TORSDOF 8
ENDMDL
MODEL 4
REMARK VINA RESULT:      -6.9      2.675      7.654
REMARK  8 active torsions:
REMARK  status: ('A' for Active; 'I' for Inactive)
REMARK    1  A    between atoms: C_2  and  O_3 
REMARK    2  A    between atoms: O_3  and  C_4 
REMARK       I    between atoms: C_4  and  N_5 
REMARK    3  A    between atoms: C_8  and  N_9 
REMARK       I    between atoms: N_9  and  C_10 
REMARK    4  A    between atoms: C_10  and  C_11 
REMARK    5  A    between atoms: C_12  and  C_13 
REMARK    6  A    between atoms: N_18  and  C_19 
REMARK    7  A    between atoms: C_19  and  C_20 
REMARK    8  A    between atoms: C_20  and  O_21 
ROOT
HETATM    1  C   UNL     1      39.930 -11.910   0.974  1.00  0.00     0.139 C 
HETATM    2  C   UNL     1      41.085 -10.898   1.169  1.00  0.00     0.145 C 
HETATM    3  N   UNL     1      41.173  -9.987   0.007  1.00  0.00    -0.335 N 
HETATM    4  C   UNL     1      41.151 -10.527  -1.283  1.00  0.00     0.255 C 
HETATM    5  O   UNL     1      41.474  -9.892  -2.282  1.00  0.00    -0.267 OA
HETATM    6  C   UNL     1      40.673 -11.930  -1.436  1.00  0.00     0.039 A 
HETATM    7  C   UNL     1      40.055 -12.605  -0.372  1.00  0.00    -0.027 A 
HETATM    8  C   UNL     1      40.791 -12.545  -2.691  1.00  0.00     0.017 A 
HETATM    9  C   UNL     1      40.276 -13.823  -2.899  1.00  0.00     0.001 A 
HETATM   10  C   UNL     1      39.623 -14.482  -1.861  1.00  0.00     0.001 A 
HETATM   11  C   UNL     1      39.501 -13.875  -0.611  1.00  0.00     0.009 A 
ENDROOT
BRANCH   1  12
HETATM   12  C   UNL     1      39.846 -12.886   2.146  1.00  0.00     0.229 C 
HETATM   13  N   UNL     1      40.979 -13.637   2.398  1.00  0.00    -0.356 N 
HETATM   14  H   UNL     1      41.696 -13.675   1.685  1.00  0.00     0.162 HD
HETATM   15  O   UNL     1      38.807 -13.018   2.791  1.00  0.00    -0.273 OA
BRANCH  13  16
HETATM   16  C   UNL     1      40.975 -14.683   3.421  1.00  0.00     0.087 C 
HETATM   17  C   UNL     1      40.365 -15.986   2.883  1.00  0.00     0.045 C 
HETATM   18  C   UNL     1      41.315 -16.708   1.933  1.00  0.00     0.130 C 
HETATM   19  N   UNL     1      42.617 -16.893   2.557  1.00  0.00    -0.328 N 
HETATM   20  C   UNL     1      43.159 -18.162   2.664  1.00  0.00     0.362 C 
HETATM   21  C   UNL     1      43.280 -15.681   3.026  1.00  0.00     0.130 C 
HETATM   22  O   UNL     1      42.618 -19.174   2.233  1.00  0.00    -0.238 OA
HETATM   23  C   UNL     1      42.381 -14.913   3.989  1.00  0.00     0.045 C 
BRANCH  20  24
HETATM   24  O   UNL     1      44.353 -18.163   3.313  1.00  0.00    -0.304 OA
BRANCH  24  25
HETATM   25  C   UNL     1      44.451 -19.016   4.463  1.00  0.00     0.176 C 
HETATM   26  C   UNL     1      43.771 -18.363   5.650  1.00  0.00     0.034 C 
ENDBRANCH  24  25
ENDBRANCH  20  24
ENDBRANCH  13  16
ENDBRANCH   1  12
BRANCH   2  27
HETATM   27  C   UNL     1      40.955 -10.160   2.485  1.00  0.00     0.006 A 
HETATM   28  S   UNL     1      39.492  -9.322   2.836  1.00  0.00    -0.104 SA
HETATM   29  C   UNL     1      40.083  -8.783   4.344  1.00  0.00     0.050 A 
HETATM   30  C   UNL     1      41.367  -9.216   4.580  1.00  0.00     0.008 A 
HETATM   31  C   UNL     1      41.873 -10.007   3.508  1.00  0.00     0.017 A 
ENDBRANCH   2  27
BRANCH   3  32
HETATM   32  C   UNL     1      41.666  -8.604   0.125  1.00  0.00     0.153 C 
BRANCH  32  33
HETATM   33  C   UNL     1      40.571  -7.586  -0.214  1.00  0.00     0.187 C 
BRANCH  33  34
HETATM   34  O   UNL     1      41.157  -6.410  -0.776  1.00  0.00    -0.394 OA
HETATM   35  C   UNL     1      42.511  -6.641  -1.149  1.00  0.00     0.201 C 
ENDBRANCH  33  34
ENDBRANCH  32  33
ENDBRANCH   3  32
TORSDOF 8
ENDMDL
MODEL 5
REMARK VINA RESULT:      -6.8      3.413      8.074
REMARK  8 active torsions:
REMARK  status: ('A' for Active; 'I' for Inactive)
REMARK    1  A    between atoms: C_2  and  O_3 
REMARK    2  A    between atoms: O_3  and  C_4 
REMARK       I    between atoms: C_4  and  N_5 
REMARK    3  A    between atoms: C_8  and  N_9 
REMARK       I    between atoms: N_9  and  C_10 
REMARK    4  A    between atoms: C_10  and  C_11 
REMARK    5  A    between atoms: C_12  and  C_13 
REMARK    6  A    between atoms: N_18  and  C_19 
REMARK    7  A    between atoms: C_19  and  C_20 
REMARK    8  A    between atoms: C_20  and  O_21 
ROOT
HETATM    1  C   UNL     1      42.309 -13.082   5.150  1.00  0.00     0.139 C 
HETATM    2  C   UNL     1      41.955 -12.901   3.654  1.00  0.00     0.145 C 
HETATM    3  N   UNL     1      41.173 -14.058   3.166  1.00  0.00    -0.335 N 
HETATM    4  C   UNL     1      41.621 -15.351   3.455  1.00  0.00     0.255 C 
HETATM    5  O   UNL     1      41.195 -16.351   2.886  1.00  0.00    -0.267 OA
HETATM    6  C   UNL     1      42.638 -15.505   4.533  1.00  0.00     0.039 A 
HETATM    7  C   UNL     1      42.963 -14.434   5.380  1.00  0.00    -0.027 A 
HETATM    8  C   UNL     1      43.219 -16.766   4.731  1.00  0.00     0.017 A 
HETATM    9  C   UNL     1      44.107 -16.973   5.784  1.00  0.00     0.001 A 
HETATM   10  C   UNL     1      44.401 -15.928   6.656  1.00  0.00     0.001 A 
HETATM   11  C   UNL     1      43.826 -14.672   6.464  1.00  0.00     0.009 A 
ENDROOT
BRANCH   1  12
HETATM   12  C   UNL     1      43.152 -11.915   5.664  1.00  0.00     0.229 C 
HETATM   13  N   UNL     1      42.650 -11.234   6.757  1.00  0.00    -0.356 N 
HETATM   14  H   UNL     1      41.681 -11.381   7.008  1.00  0.00     0.162 HD
HETATM   15  O   UNL     1      44.193 -11.585   5.099  1.00  0.00    -0.273 OA
BRANCH  13  16
HETATM   16  C   UNL     1      43.313 -10.032   7.263  1.00  0.00     0.087 C 
HETATM   17  C   UNL     1      42.382  -8.813   7.197  1.00  0.00     0.045 C 
HETATM   18  C   UNL     1      41.308  -8.858   8.279  1.00  0.00     0.130 C 
HETATM   19  N   UNL     1      41.911  -9.055   9.589  1.00  0.00    -0.328 N 
HETATM   20  C   UNL     1      41.662  -8.152  10.608  1.00  0.00     0.362 C 
HETATM   21  C   UNL     1      42.752 -10.238   9.735  1.00  0.00     0.130 C 
HETATM   22  O   UNL     1      40.923  -7.181  10.494  1.00  0.00    -0.238 OA
HETATM   23  C   UNL     1      43.854 -10.249   8.682  1.00  0.00     0.045 C 
BRANCH  20  24
HETATM   24  O   UNL     1      42.339  -8.456  11.747  1.00  0.00    -0.304 OA
BRANCH  24  25
HETATM   25  C   UNL     1      42.796  -7.344  12.530  1.00  0.00     0.176 C 
HETATM   26  C   UNL     1      42.836  -7.727  13.996  1.00  0.00     0.034 C 
ENDBRANCH  24  25
ENDBRANCH  20  24
ENDBRANCH  13  16
ENDBRANCH   1  12
BRANCH   2  27
HETATM   27  C   UNL     1      41.260 -11.577   3.409  1.00  0.00     0.006 A 
HETATM   28  S   UNL     1      39.813 -11.216   4.270  1.00  0.00    -0.104 SA
HETATM   29  C   UNL     1      39.649  -9.704   3.495  1.00  0.00     0.050 A 
HETATM   30  C   UNL     1      40.661  -9.473   2.592  1.00  0.00     0.008 A 
HETATM   31  C   UNL     1      41.588 -10.554   2.538  1.00  0.00     0.017 A 
ENDBRANCH   2  27
BRANCH   3  32
HETATM   32  C   UNL     1      40.180 -13.939   2.085  1.00  0.00     0.153 C 
BRANCH  32  33
HETATM   33  C   UNL     1      40.854 -13.788   0.716  1.00  0.00     0.187 C 
BRANCH  33  34
HETATM   34  O   UNL     1      39.922 -13.258  -0.229  1.00  0.00    -0.394 OA
HETATM   35  C   UNL     1      39.420 -14.280  -1.081  1.00  0.00     0.201 C 
ENDBRANCH  33  34
ENDBRANCH  32  33
ENDBRANCH   3  32
TORSDOF 8
ENDMDL
MODEL 6
REMARK VINA RESULT:      -6.8      6.364     11.355
REMARK  8 active torsions:
REMARK  status: ('A' for Active; 'I' for Inactive)
REMARK    1  A    between atoms: C_2  and  O_3 
REMARK    2  A    between atoms: O_3  and  C_4 
REMARK       I    between atoms: C_4  and  N_5 
REMARK    3  A    between atoms: C_8  and  N_9 
REMARK       I    between atoms: N_9  and  C_10 
REMARK    4  A    between atoms: C_10  and  C_11 
REMARK    5  A    between atoms: C_12  and  C_13 
REMARK    6  A    between atoms: N_18  and  C_19 
REMARK    7  A    between atoms: C_19  and  C_20 
REMARK    8  A    between atoms: C_20  and  O_21 
ROOT
HETATM    1  C   UNL     1      42.722  -9.458   8.668  1.00  0.00     0.139 C 
HETATM    2  C   UNL     1      41.657  -9.002   7.641  1.00  0.00     0.145 C 
HETATM    3  N   UNL     1      41.330 -10.107   6.713  1.00  0.00    -0.335 N 
HETATM    4  C   UNL     1      42.373 -10.823   6.117  1.00  0.00     0.255 C 
HETATM    5  O   UNL     1      42.211 -11.568   5.155  1.00  0.00    -0.267 OA
HETATM    6  C   UNL     1      43.732 -10.692   6.714  1.00  0.00     0.039 A 
HETATM    7  C   UNL     1      43.919 -10.065   7.956  1.00  0.00    -0.027 A 
HETATM    8  C   UNL     1      44.818 -11.271   6.042  1.00  0.00     0.017 A 
HETATM    9  C   UNL     1      46.090 -11.248   6.611  1.00  0.00     0.001 A 
HETATM   10  C   UNL     1      46.276 -10.667   7.862  1.00  0.00     0.001 A 
HETATM   11  C   UNL     1      45.199 -10.091   8.536  1.00  0.00     0.009 A 
ENDROOT
BRANCH   1  12
HETATM   12  C   UNL     1      43.103  -8.319   9.612  1.00  0.00     0.229 C 
HETATM   13  N   UNL     1      42.756  -8.484  10.941  1.00  0.00    -0.356 N 
HETATM   14  H   UNL     1      42.089  -9.208  11.174  1.00  0.00     0.162 HD
HETATM   15  O   UNL     1      43.648  -7.299   9.192  1.00  0.00    -0.273 OA
BRANCH  13  16
HETATM   16  C   UNL     1      42.969  -7.411  11.912  1.00  0.00     0.087 C 
HETATM   17  C   UNL     1      41.748  -6.482  11.992  1.00  0.00     0.045 C 
HETATM   18  C   UNL     1      40.587  -7.131  12.737  1.00  0.00     0.130 C 
HETATM   19  N   UNL     1      41.026  -7.623  14.035  1.00  0.00    -0.328 N 
HETATM   20  C   UNL     1      40.385  -7.202  15.187  1.00  0.00     0.362 C 
HETATM   21  C   UNL     1      42.139  -8.567  14.020  1.00  0.00     0.130 C 
HETATM   22  O   UNL     1      39.424  -6.441  15.194  1.00  0.00    -0.238 OA
HETATM   23  C   UNL     1      43.339  -7.972  13.291  1.00  0.00     0.045 C 
BRANCH  20  24
HETATM   24  O   UNL     1      40.949  -7.717  16.312  1.00  0.00    -0.304 OA
BRANCH  24  25
HETATM   25  C   UNL     1      40.643  -7.042  17.541  1.00  0.00     0.176 C 
HETATM   26  C   UNL     1      39.997  -8.010  18.514  1.00  0.00     0.034 C 
ENDBRANCH  24  25
ENDBRANCH  20  24
ENDBRANCH  13  16
ENDBRANCH   1  12
BRANCH   2  27
HETATM   27  C   UNL     1      40.434  -8.434   8.332  1.00  0.00     0.006 A 
HETATM   28  S   UNL     1      39.870  -6.868   7.889  1.00  0.00    -0.104 SA
HETATM   29  C   UNL     1      38.596  -6.932   9.022  1.00  0.00     0.050 A 
HETATM   30  C   UNL     1      38.596  -8.109   9.735  1.00  0.00     0.008 A 
HETATM   31  C   UNL     1      39.658  -8.974   9.341  1.00  0.00     0.017 A 
ENDBRANCH   2  27
BRANCH   3  32
HETATM   32  C   UNL     1      40.004 -10.246   6.089  1.00  0.00     0.153 C 
BRANCH  32  33
HETATM   33  C   UNL     1      39.197 -11.383   6.727  1.00  0.00     0.187 C 
BRANCH  33  34
HETATM   34  O   UNL     1      39.062 -12.463   5.802  1.00  0.00    -0.394 OA
HETATM   35  C   UNL     1      39.856 -13.576   6.193  1.00  0.00     0.201 C 
ENDBRANCH  33  34
ENDBRANCH  32  33
ENDBRANCH   3  32
TORSDOF 8
ENDMDL
MODEL 7
REMARK VINA RESULT:      -6.7     16.473     19.120
REMARK  8 active torsions:
REMARK  status: ('A' for Active; 'I' for Inactive)
REMARK    1  A    between atoms: C_2  and  O_3 
REMARK    2  A    between atoms: O_3  and  C_4 
REMARK       I    between atoms: C_4  and  N_5 
REMARK    3  A    between atoms: C_8  and  N_9 
REMARK       I    between atoms: N_9  and  C_10 
REMARK    4  A    between atoms: C_10  and  C_11 
REMARK    5  A    between atoms: C_12  and  C_13 
REMARK    6  A    between atoms: N_18  and  C_19 
REMARK    7  A    between atoms: C_19  and  C_20 
REMARK    8  A    between atoms: C_20  and  O_21 
ROOT
HETATM    1  C   UNL     1      47.471 -29.026   1.038  1.00  0.00     0.139 C 
HETATM    2  C   UNL     1      48.416 -30.251   1.058  1.00  0.00     0.145 C 
HETATM    3  N   UNL     1      49.402 -30.158  -0.041  1.00  0.00    -0.335 N 
HETATM    4  C   UNL     1      48.955 -29.852  -1.330  1.00  0.00     0.255 C 
HETATM    5  O   UNL     1      49.645 -30.006  -2.333  1.00  0.00    -0.267 OA
HETATM    6  C   UNL     1      47.587 -29.277  -1.469  1.00  0.00     0.039 A 
HETATM    7  C   UNL     1      46.867 -28.845  -0.344  1.00  0.00    -0.027 A 
HETATM    8  C   UNL     1      47.058 -29.110  -2.756  1.00  0.00     0.017 A 
HETATM    9  C   UNL     1      45.820 -28.495  -2.933  1.00  0.00     0.001 A 
HETATM   10  C   UNL     1      45.119 -28.024  -1.827  1.00  0.00     0.001 A 
HETATM   11  C   UNL     1      45.641 -28.186  -0.543  1.00  0.00     0.009 A 
ENDROOT
BRANCH   1  12
HETATM   12  C   UNL     1      46.419 -29.121   2.142  1.00  0.00     0.229 C 
HETATM   13  N   UNL     1      45.610 -30.242   2.121  1.00  0.00    -0.356 N 
HETATM   14  H   UNL     1      45.594 -30.804   1.280  1.00  0.00     0.162 HD
HETATM   15  O   UNL     1      46.282 -28.221   2.970  1.00  0.00    -0.273 OA
BRANCH  13  16
HETATM   16  C   UNL     1      44.496 -30.383   3.059  1.00  0.00     0.087 C 
HETATM   17  C   UNL     1      43.269 -29.588   2.591  1.00  0.00     0.045 C 
HETATM   18  C   UNL     1      42.565 -30.265   1.419  1.00  0.00     0.130 C 
HETATM   19  N   UNL     1      42.267 -31.654   1.738  1.00  0.00    -0.328 N 
HETATM   20  C   UNL     1      40.967 -32.119   1.653  1.00  0.00     0.362 C 
HETATM   21  C   UNL     1      43.406 -32.481   2.121  1.00  0.00     0.130 C 
HETATM   22  O   UNL     1      40.019 -31.432   1.290  1.00  0.00    -0.238 OA
HETATM   23  C   UNL     1      44.152 -31.859   3.298  1.00  0.00     0.045 C 
BRANCH  20  24
HETATM   24  O   UNL     1      40.857 -33.421   2.029  1.00  0.00    -0.304 OA
BRANCH  24  25
HETATM   25  C   UNL     1      40.000 -33.687   3.150  1.00  0.00     0.176 C 
HETATM   26  C   UNL     1      40.823 -33.768   4.420  1.00  0.00     0.034 C 
ENDBRANCH  24  25
ENDBRANCH  20  24
ENDBRANCH  13  16
ENDBRANCH   1  12
BRANCH   2  27
HETATM   27  C   UNL     1      49.065 -30.423   2.416  1.00  0.00     0.006 A 
HETATM   28  S   UNL     1      48.843 -31.901   3.272  1.00  0.00    -0.104 SA
HETATM   29  C   UNL     1      49.776 -31.356   4.593  1.00  0.00     0.050 A 
HETATM   30  C   UNL     1      50.242 -30.075   4.402  1.00  0.00     0.008 A 
HETATM   31  C   UNL     1      49.830 -29.534   3.150  1.00  0.00     0.017 A 
ENDBRANCH   2  27
BRANCH   3  32
HETATM   32  C   UNL     1      50.751 -30.739   0.060  1.00  0.00     0.153 C 
BRANCH  32  33
HETATM   33  C   UNL     1      50.724 -32.261  -0.129  1.00  0.00     0.187 C 
BRANCH  33  34
HETATM   34  O   UNL     1      51.517 -32.890   0.879  1.00  0.00    -0.394 OA
HETATM   35  C   UNL     1      51.049 -34.206   1.153  1.00  0.00     0.201 C 
ENDBRANCH  33  34
ENDBRANCH  32  33
ENDBRANCH   3  32
TORSDOF 8
ENDMDL
MODEL 8
REMARK VINA RESULT:      -6.7      3.050      7.751
REMARK  8 active torsions:
REMARK  status: ('A' for Active; 'I' for Inactive)
REMARK    1  A    between atoms: C_2  and  O_3 
REMARK    2  A    between atoms: O_3  and  C_4 
REMARK       I    between atoms: C_4  and  N_5 
REMARK    3  A    between atoms: C_8  and  N_9 
REMARK       I    between atoms: N_9  and  C_10 
REMARK    4  A    between atoms: C_10  and  C_11 
REMARK    5  A    between atoms: C_12  and  C_13 
REMARK    6  A    between atoms: N_18  and  C_19 
REMARK    7  A    between atoms: C_19  and  C_20 
REMARK    8  A    between atoms: C_20  and  O_21 
ROOT
HETATM    1  C   UNL     1      40.828 -12.524   2.225  1.00  0.00     0.139 C 
HETATM    2  C   UNL     1      40.784 -12.334   0.690  1.00  0.00     0.145 C 
HETATM    3  N   UNL     1      39.909 -13.354   0.070  1.00  0.00    -0.335 N 
HETATM    4  C   UNL     1      40.065 -14.695   0.437  1.00  0.00     0.255 C 
HETATM    5  O   UNL     1      39.578 -15.625  -0.198  1.00  0.00    -0.267 OA
HETATM    6  C   UNL     1      40.831 -14.986   1.681  1.00  0.00     0.039 A 
HETATM    7  C   UNL     1      41.183 -13.960   2.571  1.00  0.00    -0.027 A 
HETATM    8  C   UNL     1      41.136 -16.321   1.983  1.00  0.00     0.017 A 
HETATM    9  C   UNL     1      41.773 -16.644   3.180  1.00  0.00     0.001 A 
HETATM   10  C   UNL     1      42.086 -15.637   4.088  1.00  0.00     0.001 A 
HETATM   11  C   UNL     1      41.784 -14.307   3.795  1.00  0.00     0.009 A 
ENDROOT
BRANCH   1  12
HETATM   12  C   UNL     1      41.757 -11.504   2.882  1.00  0.00     0.229 C 
HETATM   13  N   UNL     1      41.214 -10.752   3.907  1.00  0.00    -0.356 N 
HETATM   14  H   UNL     1      40.207 -10.745   4.012  1.00  0.00     0.162 HD
HETATM   15  O   UNL     1      42.909 -11.341   2.480  1.00  0.00    -0.273 OA
BRANCH  13  16
HETATM   16  C   UNL     1      41.974  -9.669   4.530  1.00  0.00     0.087 C 
HETATM   17  C   UNL     1      41.046  -8.551   5.028  1.00  0.00     0.045 C 
HETATM   18  C   UNL     1      40.296  -8.955   6.293  1.00  0.00     0.130 C 
HETATM   19  N   UNL     1      41.226  -9.429   7.307  1.00  0.00    -0.328 N 
HETATM   20  C   UNL     1      41.245  -8.838   8.558  1.00  0.00     0.362 C 
HETATM   21  C   UNL     1      42.088 -10.540   6.917  1.00  0.00     0.130 C 
HETATM   22  O   UNL     1      40.492  -7.933   8.896  1.00  0.00    -0.238 OA
HETATM   23  C   UNL     1      42.873 -10.195   5.656  1.00  0.00     0.045 C 
BRANCH  20  24
HETATM   24  O   UNL     1      42.202  -9.367   9.367  1.00  0.00    -0.304 OA
BRANCH  24  25
HETATM   25  C   UNL     1      43.171  -8.445   9.890  1.00  0.00     0.176 C 
HETATM   26  C   UNL     1      44.331  -8.313   8.923  1.00  0.00     0.034 C 
ENDBRANCH  24  25
ENDBRANCH  20  24
ENDBRANCH  13  16
ENDBRANCH   1  12
BRANCH   2  27
HETATM   27  C   UNL     1      40.387 -10.919   0.321  1.00  0.00     0.006 A 
HETATM   28  S   UNL     1      41.427  -9.991  -0.690  1.00  0.00    -0.104 SA
HETATM   29  C   UNL     1      40.391  -8.636  -0.627  1.00  0.00     0.050 A 
HETATM   30  C   UNL     1      39.281  -8.869   0.151  1.00  0.00     0.008 A 
HETATM   31  C   UNL     1      39.279 -10.184   0.703  1.00  0.00     0.017 A 
ENDBRANCH   2  27
BRANCH   3  32
HETATM   32  C   UNL     1      39.161 -13.101  -1.173  1.00  0.00     0.153 C 
BRANCH  32  33
HETATM   33  C   UNL     1      40.077 -13.151  -2.401  1.00  0.00     0.187 C 
BRANCH  33  34
HETATM   34  O   UNL     1      39.436 -13.868  -3.458  1.00  0.00    -0.394 OA
HETATM   35  C   UNL     1      38.094 -14.193  -3.116  1.00  0.00     0.201 C 
ENDBRANCH  33  34
ENDBRANCH  32  33
ENDBRANCH   3  32
TORSDOF 8
ENDMDL
MODEL 9
REMARK VINA RESULT:      -6.6      2.376      4.963
REMARK  8 active torsions:
REMARK  status: ('A' for Active; 'I' for Inactive)
REMARK    1  A    between atoms: C_2  and  O_3 
REMARK    2  A    between atoms: O_3  and  C_4 
REMARK       I    between atoms: C_4  and  N_5 
REMARK    3  A    between atoms: C_8  and  N_9 
REMARK       I    between atoms: N_9  and  C_10 
REMARK    4  A    between atoms: C_10  and  C_11 
REMARK    5  A    between atoms: C_12  and  C_13 
REMARK    6  A    between atoms: N_18  and  C_19 
REMARK    7  A    between atoms: C_19  and  C_20 
REMARK    8  A    between atoms: C_20  and  O_21 
ROOT
HETATM    1  C   UNL     1      39.816 -13.549   2.110  1.00  0.00     0.139 C 
HETATM    2  C   UNL     1      41.181 -13.687   2.826  1.00  0.00     0.145 C 
HETATM    3  N   UNL     1      41.048 -13.344   4.259  1.00  0.00    -0.335 N 
HETATM    4  C   UNL     1      40.375 -12.171   4.617  1.00  0.00     0.255 C 
HETATM    5  O   UNL     1      40.438 -11.677   5.738  1.00  0.00    -0.267 OA
HETATM    6  C   UNL     1      39.517 -11.525   3.585  1.00  0.00     0.039 A 
HETATM    7  C   UNL     1      39.210 -12.182   2.383  1.00  0.00    -0.027 A 
HETATM    8  C   UNL     1      38.961 -10.268   3.866  1.00  0.00     0.017 A 
HETATM    9  C   UNL     1      38.082  -9.671   2.965  1.00  0.00     0.001 A 
HETATM   10  C   UNL     1      37.738 -10.335   1.792  1.00  0.00     0.001 A 
HETATM   11  C   UNL     1      38.286 -11.586   1.507  1.00  0.00     0.009 A 
ENDROOT
BRANCH   1  12
HETATM   12  C   UNL     1      39.939 -13.861   0.620  1.00  0.00     0.229 C 
HETATM   13  N   UNL     1      40.317 -12.811  -0.196  1.00  0.00    -0.356 N 
HETATM   14  H   UNL     1      40.267 -11.872   0.180  1.00  0.00     0.162 HD
HETATM   15  O   UNL     1      39.670 -14.978   0.179  1.00  0.00    -0.273 OA
BRANCH  13  16
HETATM   16  C   UNL     1      40.356 -12.965  -1.650  1.00  0.00     0.087 C 
HETATM   17  C   UNL     1      38.998 -12.626  -2.283  1.00  0.00     0.045 C 
HETATM   18  C   UNL     1      38.737 -11.123  -2.298  1.00  0.00     0.130 C 
HETATM   19  N   UNL     1      39.853 -10.418  -2.911  1.00  0.00    -0.328 N 
HETATM   20  C   UNL     1      39.633  -9.582  -3.991  1.00  0.00     0.362 C 
HETATM   21  C   UNL     1      41.162 -10.644  -2.307  1.00  0.00     0.130 C 
HETATM   22  O   UNL     1      38.527  -9.362  -4.470  1.00  0.00    -0.238 OA
HETATM   23  C   UNL     1      41.487 -12.133  -2.269  1.00  0.00     0.045 C 
BRANCH  20  24
HETATM   24  O   UNL     1      40.785  -9.041  -4.471  1.00  0.00    -0.304 OA
BRANCH  24  25
HETATM   25  C   UNL     1      40.957  -7.631  -4.268  1.00  0.00     0.176 C 
HETATM   26  C   UNL     1      42.406  -7.330  -3.941  1.00  0.00     0.034 C 
ENDBRANCH  24  25
ENDBRANCH  20  24
ENDBRANCH  13  16
ENDBRANCH   1  12
BRANCH   2  27
HETATM   27  C   UNL     1      41.782 -15.060   2.605  1.00  0.00     0.006 A 
HETATM   28  S   UNL     1      43.341 -15.188   1.883  1.00  0.00    -0.104 SA
HETATM   29  C   UNL     1      43.306 -16.893   1.949  1.00  0.00     0.050 A 
HETATM   30  C   UNL     1      42.135 -17.365   2.495  1.00  0.00     0.008 A 
HETATM   31  C   UNL     1      41.253 -16.310   2.870  1.00  0.00     0.017 A 
ENDBRANCH   2  27
BRANCH   3  32
HETATM   32  C   UNL     1      41.900 -13.948   5.297  1.00  0.00     0.153 C 
BRANCH  32  33
HETATM   33  C   UNL     1      41.081 -14.804   6.270  1.00  0.00     0.187 C 
BRANCH  33  34
HETATM   34  O   UNL     1      41.896 -15.851   6.801  1.00  0.00    -0.394 OA
HETATM   35  C   UNL     1      42.879 -15.335   7.690  1.00  0.00     0.201 C 
ENDBRANCH  33  34
ENDBRANCH  32  33
ENDBRANCH   3  32
TORSDOF 8
ENDMDL
MODEL 10
REMARK VINA RESULT:      -6.6      4.401      8.424
REMARK  8 active torsions:
REMARK  status: ('A' for Active; 'I' for Inactive)
REMARK    1  A    between atoms: C_2  and  O_3 
REMARK    2  A    between atoms: O_3  and  C_4 
REMARK       I    between atoms: C_4  and  N_5 
REMARK    3  A    between atoms: C_8  and  N_9 
REMARK       I    between atoms: N_9  and  C_10 
REMARK    4  A    between atoms: C_10  and  C_11 
REMARK    5  A    between atoms: C_12  and  C_13 
REMARK    6  A    between atoms: N_18  and  C_19 
REMARK    7  A    between atoms: C_19  and  C_20 
REMARK    8  A    between atoms: C_20  and  O_21 
ROOT
HETATM    1  C   UNL     1      41.257  -9.751   7.291  1.00  0.00     0.139 C 
HETATM    2  C   UNL     1      41.952  -8.599   8.057  1.00  0.00     0.145 C 
HETATM    3  N   UNL     1      40.960  -7.832   8.843  1.00  0.00    -0.335 N 
HETATM    4  C   UNL     1      39.774  -7.423   8.226  1.00  0.00     0.255 C 
HETATM    5  O   UNL     1      39.025  -6.579   8.706  1.00  0.00    -0.267 OA
HETATM    6  C   UNL     1      39.400  -8.081   6.942  1.00  0.00     0.039 A 
HETATM    7  C   UNL     1      40.082  -9.221   6.488  1.00  0.00    -0.027 A 
HETATM    8  C   UNL     1      38.304  -7.579   6.226  1.00  0.00     0.017 A 
HETATM    9  C   UNL     1      37.868  -8.220   5.069  1.00  0.00     0.001 A 
HETATM   10  C   UNL     1      38.510  -9.377   4.635  1.00  0.00     0.001 A 
HETATM   11  C   UNL     1      39.600  -9.882   5.344  1.00  0.00     0.009 A 
ENDROOT
BRANCH   1  12
HETATM   12  C   UNL     1      42.258 -10.533   6.441  1.00  0.00     0.229 C 
HETATM   13  N   UNL     1      42.331 -11.893   6.678  1.00  0.00    -0.356 N 
HETATM   14  H   UNL     1      41.911 -12.254   7.525  1.00  0.00     0.162 HD
HETATM   15  O   UNL     1      42.983  -9.963   5.627  1.00  0.00    -0.273 OA
BRANCH  13  16
HETATM   16  C   UNL     1      43.332 -12.720   6.005  1.00  0.00     0.087 C 
HETATM   17  C   UNL     1      43.742 -13.917   6.876  1.00  0.00     0.045 C 
HETATM   18  C   UNL     1      42.660 -14.991   6.913  1.00  0.00     0.130 C 
HETATM   19  N   UNL     1      42.267 -15.366   5.562  1.00  0.00    -0.328 N 
HETATM   20  C   UNL     1      42.338 -16.689   5.164  1.00  0.00     0.362 C 
HETATM   21  C   UNL     1      41.799 -14.281   4.707  1.00  0.00     0.130 C 
HETATM   22  O   UNL     1      42.693 -17.605   5.897  1.00  0.00    -0.238 OA
HETATM   23  C   UNL     1      42.844 -13.173   4.623  1.00  0.00     0.045 C 
BRANCH  20  24
HETATM   24  O   UNL     1      41.982 -16.858   3.863  1.00  0.00    -0.304 OA
BRANCH  24  25
HETATM   25  C   UNL     1      43.005 -17.349   2.983  1.00  0.00     0.176 C 
HETATM   26  C   UNL     1      43.250 -16.349   1.870  1.00  0.00     0.034 C 
ENDBRANCH  24  25
ENDBRANCH  20  24
ENDBRANCH  13  16
ENDBRANCH   1  12
BRANCH   2  27
HETATM   27  C   UNL     1      43.100  -9.112   8.901  1.00  0.00     0.006 A 
HETATM   28  S   UNL     1      44.677  -8.464   8.657  1.00  0.00    -0.104 SA
HETATM   29  C   UNL     1      45.352  -9.474   9.855  1.00  0.00     0.050 A 
HETATM   30  C   UNL     1      44.410 -10.298  10.427  1.00  0.00     0.008 A 
HETATM   31  C   UNL     1      43.112 -10.094   9.875  1.00  0.00     0.017 A 
ENDBRANCH   2  27
BRANCH   3  32
HETATM   32  C   UNL     1      41.309  -7.151  10.101  1.00  0.00     0.153 C 
BRANCH  32  33
HETATM   33  C   UNL     1      40.610  -7.796  11.304  1.00  0.00     0.187 C 
BRANCH  33  34
HETATM   34  O   UNL     1      40.053  -9.056  10.924  1.00  0.00    -0.394 OA
HETATM   35  C   UNL     1      40.004  -9.948  12.031  1.00  0.00     0.201 C 
ENDBRANCH  33  34
ENDBRANCH  32  33
ENDBRANCH   3  32
TORSDOF 8
ENDMDL
