MODEL 1
REMARK VINA RESULT:      -8.5      0.000      0.000
REMARK  3 active torsions:
REMARK  status: ('A' for Active; 'I' for Inactive)
REMARK    1  A    between atoms: C_3  and  N_4 
REMARK       I    between atoms: N_4  and  C_5 
REMARK    2  A    between atoms: C_5  and  C_6 
REMARK    3  A    between atoms: C_6  and  C_7 
ROOT
HETATM    1  C   UNL     1      42.060 -15.399   6.605  1.00  0.00     0.286 C 
HETATM    2  N   UNL     1      42.837 -14.272   5.927  1.00  0.00    -0.056 N 
HETATM    3  H   UNL     1      42.814 -13.467   6.567  1.00  0.00     0.278 HD
HETATM    4  H   UNL     1      43.843 -14.545   5.911  1.00  0.00     0.278 HD
HETATM    5  C   UNL     1      42.374 -13.813   4.576  1.00  0.00     0.209 C 
HETATM    6  C   UNL     1      40.845 -13.584   4.604  1.00  0.00     0.115 C 
HETATM    7  N   UNL     1      40.115 -14.691   5.218  1.00  0.00    -0.353 N 
HETATM    8  C   UNL     1      40.547 -15.335   6.350  1.00  0.00     0.249 C 
HETATM    9  O   UNL     1      39.745 -15.933   7.059  1.00  0.00    -0.271 OA
HETATM   10  C   UNL     1      42.838 -14.780   3.487  1.00  0.00     0.035 C 
HETATM   11  C   UNL     1      42.292 -14.376   2.120  1.00  0.00     0.002 C 
HETATM   12  C   UNL     1      40.770 -14.273   2.149  1.00  0.00     0.002 C 
HETATM   13  C   UNL     1      40.299 -13.274   3.205  1.00  0.00     0.027 C 
HETATM   14  H   UNL     1      39.097 -14.678   5.153  1.00  0.00     0.163 HD
ENDROOT
BRANCH   1  15
HETATM   15  C   UNL     1      42.536 -16.812   6.228  1.00  0.00     0.146 C 
BRANCH  15  16
HETATM   16  C   UNL     1      44.026 -16.938   6.103  1.00  0.00     0.224 C 
HETATM   17  N   UNL     1      44.608 -17.721   5.160  1.00  0.00    -0.325 N 
HETATM   18  H   UNL     1      45.627 -17.672   5.194  1.00  0.00     0.169 HD
HETATM   19  O   UNL     1      44.748 -16.258   6.845  1.00  0.00    -0.273 OA
BRANCH  17  20
HETATM   20  C   UNL     1      44.129 -18.551   4.123  1.00  0.00     0.073 A 
HETATM   21  C   UNL     1      43.636 -18.139   2.886  1.00  0.00     0.033 A 
HETATM   22  C   UNL     1      43.210 -19.087   1.943  1.00  0.00     0.002 A 
HETATM   23  C   UNL     1      43.268 -20.451   2.224  1.00  0.00     0.003 A 
HETATM   24  C   UNL     1      43.750 -20.878   3.456  1.00  0.00     0.044 A 
HETATM   25  C   UNL     1      44.169 -19.932   4.386  1.00  0.00     0.143 A 
HETATM   26  F   UNL     1      44.641 -20.355   5.570  1.00  0.00    -0.204 F 
ENDBRANCH  17  20
ENDBRANCH  15  16
ENDBRANCH   1  15
TORSDOF 3
ENDMDL
MODEL 2
REMARK VINA RESULT:      -8.3      1.566      1.939
REMARK  3 active torsions:
REMARK  status: ('A' for Active; 'I' for Inactive)
REMARK    1  A    between atoms: C_3  and  N_4 
REMARK       I    between atoms: N_4  and  C_5 
REMARK    2  A    between atoms: C_5  and  C_6 
REMARK    3  A    between atoms: C_6  and  C_7 
ROOT
HETATM    1  C   UNL     1      41.800 -14.337   5.995  1.00  0.00     0.286 C 
HETATM    2  N   UNL     1      42.678 -14.247   4.749  1.00  0.00    -0.056 N 
HETATM    3  H   UNL     1      43.054 -13.291   4.717  1.00  0.00     0.278 HD
HETATM    4  H   UNL     1      43.522 -14.838   4.913  1.00  0.00     0.278 HD
HETATM    5  C   UNL     1      42.049 -14.551   3.421  1.00  0.00     0.209 C 
HETATM    6  C   UNL     1      40.713 -13.782   3.295  1.00  0.00     0.115 C 
HETATM    7  N   UNL     1      39.868 -13.913   4.479  1.00  0.00    -0.353 N 
HETATM    8  C   UNL     1      40.359 -13.859   5.759  1.00  0.00     0.249 C 
HETATM    9  O   UNL     1      39.621 -13.547   6.687  1.00  0.00    -0.271 OA
HETATM   10  C   UNL     1      41.919 -16.060   3.215  1.00  0.00     0.035 C 
HETATM   11  C   UNL     1      41.193 -16.378   1.911  1.00  0.00     0.002 C 
HETATM   12  C   UNL     1      39.827 -15.700   1.867  1.00  0.00     0.002 C 
HETATM   13  C   UNL     1      39.951 -14.185   2.027  1.00  0.00     0.027 C 
HETATM   14  H   UNL     1      38.917 -13.549   4.422  1.00  0.00     0.163 HD
ENDROOT
BRANCH   1  15
HETATM   15  C   UNL     1      41.727 -15.740   6.620  1.00  0.00     0.146 C 
BRANCH  15  16
HETATM   16  C   UNL     1      42.895 -16.074   7.501  1.00  0.00     0.224 C 
HETATM   17  N   UNL     1      43.765 -17.070   7.200  1.00  0.00    -0.325 N 
HETATM   18  H   UNL     1      44.516 -17.147   7.888  1.00  0.00     0.169 HD
HETATM   19  O   UNL     1      43.107 -15.376   8.502  1.00  0.00    -0.273 OA
BRANCH  17  20
HETATM   20  C   UNL     1      43.890 -17.995   6.140  1.00  0.00     0.073 A 
HETATM   21  C   UNL     1      44.293 -17.717   4.835  1.00  0.00     0.033 A 
HETATM   22  C   UNL     1      44.388 -18.749   3.889  1.00  0.00     0.002 A 
HETATM   23  C   UNL     1      44.081 -20.064   4.232  1.00  0.00     0.003 A 
HETATM   24  C   UNL     1      43.670 -20.357   5.527  1.00  0.00     0.044 A 
HETATM   25  C   UNL     1      43.577 -19.328   6.459  1.00  0.00     0.143 A 
HETATM   26  F   UNL     1      43.188 -19.623   7.710  1.00  0.00    -0.204 F 
ENDBRANCH  17  20
ENDBRANCH  15  16
ENDBRANCH   1  15
TORSDOF 3
ENDMDL
MODEL 3
REMARK VINA RESULT:      -7.3      3.605      6.310
REMARK  3 active torsions:
REMARK  status: ('A' for Active; 'I' for Inactive)
REMARK    1  A    between atoms: C_3  and  N_4 
REMARK       I    between atoms: N_4  and  C_5 
REMARK    2  A    between atoms: C_5  and  C_6 
REMARK    3  A    between atoms: C_6  and  C_7 
ROOT
HETATM    1  C   UNL     1      40.527 -14.276   5.557  1.00  0.00     0.286 C 
HETATM    2  N   UNL     1      40.151 -14.096   4.088  1.00  0.00    -0.056 N 
HETATM    3  H   UNL     1      39.164 -14.373   3.997  1.00  0.00     0.278 HD
HETATM    4  H   UNL     1      40.139 -13.073   3.886  1.00  0.00     0.278 HD
HETATM    5  C   UNL     1      40.947 -14.846   3.061  1.00  0.00     0.209 C 
HETATM    6  C   UNL     1      41.081 -16.326   3.491  1.00  0.00     0.115 C 
HETATM    7  N   UNL     1      41.483 -16.478   4.888  1.00  0.00    -0.353 N 
HETATM    8  C   UNL     1      40.974 -15.705   5.901  1.00  0.00     0.249 C 
HETATM    9  O   UNL     1      40.992 -16.117   7.055  1.00  0.00    -0.271 OA
HETATM   10  C   UNL     1      42.283 -14.152   2.798  1.00  0.00     0.035 C 
HETATM   11  C   UNL     1      43.142 -14.957   1.827  1.00  0.00     0.002 C 
HETATM   12  C   UNL     1      43.355 -16.379   2.338  1.00  0.00     0.002 C 
HETATM   13  C   UNL     1      42.024 -17.097   2.561  1.00  0.00     0.027 C 
HETATM   14  H   UNL     1      41.724 -17.415   5.210  1.00  0.00     0.163 HD
ENDROOT
BRANCH   1  15
HETATM   15  C   UNL     1      41.621 -13.315   6.053  1.00  0.00     0.146 C 
BRANCH  15  16
HETATM   16  C   UNL     1      41.296 -11.865   5.844  1.00  0.00     0.224 C 
HETATM   17  N   UNL     1      42.158 -10.875   6.185  1.00  0.00    -0.325 N 
HETATM   18  H   UNL     1      41.795  -9.950   5.952  1.00  0.00     0.169 HD
HETATM   19  O   UNL     1      40.231 -11.565   5.287  1.00  0.00    -0.273 OA
BRANCH  17  20
HETATM   20  C   UNL     1      43.453 -10.834   6.748  1.00  0.00     0.073 A 
HETATM   21  C   UNL     1      43.786 -10.455   8.047  1.00  0.00     0.033 A 
HETATM   22  C   UNL     1      45.123 -10.482   8.471  1.00  0.00     0.002 A 
HETATM   23  C   UNL     1      46.139 -10.884   7.607  1.00  0.00     0.003 A 
HETATM   24  C   UNL     1      45.825 -11.259   6.306  1.00  0.00     0.044 A 
HETATM   25  C   UNL     1      44.497 -11.228   5.892  1.00  0.00     0.143 A 
HETATM   26  F   UNL     1      44.203 -11.600   4.636  1.00  0.00    -0.204 F 
ENDBRANCH  17  20
ENDBRANCH  15  16
ENDBRANCH   1  15
TORSDOF 3
ENDMDL
MODEL 4
REMARK VINA RESULT:      -7.3      2.347      3.391
REMARK  3 active torsions:
REMARK  status: ('A' for Active; 'I' for Inactive)
REMARK    1  A    between atoms: C_3  and  N_4 
REMARK       I    between atoms: N_4  and  C_5 
REMARK    2  A    between atoms: C_5  and  C_6 
REMARK    3  A    between atoms: C_6  and  C_7 
ROOT
HETATM    1  C   UNL     1      40.681 -15.907   2.272  1.00  0.00     0.286 C 
HETATM    2  N   UNL     1      39.449 -15.006   2.227  1.00  0.00    -0.056 N 
HETATM    3  H   UNL     1      38.923 -15.260   1.380  1.00  0.00     0.278 HD
HETATM    4  H   UNL     1      38.817 -15.294   3.005  1.00  0.00     0.278 HD
HETATM    5  C   UNL     1      39.663 -13.521   2.220  1.00  0.00     0.209 C 
HETATM    6  C   UNL     1      40.735 -13.160   1.166  1.00  0.00     0.115 C 
HETATM    7  N   UNL     1      41.924 -14.004   1.251  1.00  0.00    -0.353 N 
HETATM    8  C   UNL     1      41.866 -15.359   1.463  1.00  0.00     0.249 C 
HETATM    9  O   UNL     1      42.796 -16.076   1.112  1.00  0.00    -0.271 OA
HETATM   10  C   UNL     1      39.978 -13.012   3.626  1.00  0.00     0.035 C 
HETATM   11  C   UNL     1      40.293 -11.519   3.615  1.00  0.00     0.002 C 
HETATM   12  C   UNL     1      41.435 -11.209   2.653  1.00  0.00     0.002 C 
HETATM   13  C   UNL     1      41.110 -11.674   1.234  1.00  0.00     0.027 C 
HETATM   14  H   UNL     1      42.730 -13.744   0.682  1.00  0.00     0.163 HD
ENDROOT
BRANCH   1  15
HETATM   15  C   UNL     1      41.189 -16.215   3.691  1.00  0.00     0.146 C 
BRANCH  15  16
HETATM   16  C   UNL     1      42.623 -15.836   3.918  1.00  0.00     0.224 C 
HETATM   17  N   UNL     1      43.620 -16.755   3.930  1.00  0.00    -0.325 N 
HETATM   18  H   UNL     1      44.537 -16.328   4.070  1.00  0.00     0.169 HD
HETATM   19  O   UNL     1      42.913 -14.637   4.036  1.00  0.00    -0.273 OA
BRANCH  17  20
HETATM   20  C   UNL     1      43.684 -18.156   3.756  1.00  0.00     0.073 A 
HETATM   21  C   UNL     1      43.524 -18.855   2.561  1.00  0.00     0.033 A 
HETATM   22  C   UNL     1      43.633 -20.254   2.540  1.00  0.00     0.002 A 
HETATM   23  C   UNL     1      43.900 -20.967   3.707  1.00  0.00     0.003 A 
HETATM   24  C   UNL     1      44.054 -20.285   4.908  1.00  0.00     0.044 A 
HETATM   25  C   UNL     1      43.943 -18.899   4.921  1.00  0.00     0.143 A 
HETATM   26  F   UNL     1      44.103 -18.249   6.085  1.00  0.00    -0.204 F 
ENDBRANCH  17  20
ENDBRANCH  15  16
ENDBRANCH   1  15
TORSDOF 3
ENDMDL
MODEL 5
REMARK VINA RESULT:      -7.2      3.085      4.607
REMARK  3 active torsions:
REMARK  status: ('A' for Active; 'I' for Inactive)
REMARK    1  A    between atoms: C_3  and  N_4 
REMARK       I    between atoms: N_4  and  C_5 
REMARK    2  A    between atoms: C_5  and  C_6 
REMARK    3  A    between atoms: C_6  and  C_7 
ROOT
HETATM    1  C   UNL     1      41.186 -12.295   3.372  1.00  0.00     0.286 C 
HETATM    2  N   UNL     1      40.759 -12.353   4.838  1.00  0.00    -0.056 N 
HETATM    3  H   UNL     1      40.056 -11.615   4.973  1.00  0.00     0.278 HD
HETATM    4  H   UNL     1      40.220 -13.235   4.975  1.00  0.00     0.278 HD
HETATM    5  C   UNL     1      41.819 -12.192   5.886  1.00  0.00     0.209 C 
HETATM    6  C   UNL     1      42.701 -10.968   5.545  1.00  0.00     0.115 C 
HETATM    7  N   UNL     1      43.135 -10.951   4.150  1.00  0.00    -0.353 N 
HETATM    8  C   UNL     1      42.309 -11.281   3.106  1.00  0.00     0.249 C 
HETATM    9  O   UNL     1      42.546 -10.860   1.979  1.00  0.00    -0.271 OA
HETATM   10  C   UNL     1      42.604 -13.491   6.069  1.00  0.00     0.035 C 
HETATM   11  C   UNL     1      43.747 -13.311   7.063  1.00  0.00     0.002 C 
HETATM   12  C   UNL     1      44.667 -12.171   6.636  1.00  0.00     0.002 C 
HETATM   13  C   UNL     1      43.899 -10.858   6.495  1.00  0.00     0.027 C 
HETATM   14  H   UNL     1      43.827 -10.252   3.880  1.00  0.00     0.163 HD
ENDROOT
BRANCH   1  15
HETATM   15  C   UNL     1      41.632 -13.646   2.788  1.00  0.00     0.146 C 
BRANCH  15  16
HETATM   16  C   UNL     1      40.536 -14.669   2.720  1.00  0.00     0.224 C 
HETATM   17  N   UNL     1      40.766 -15.989   2.936  1.00  0.00    -0.325 N 
HETATM   18  H   UNL     1      39.911 -16.543   2.880  1.00  0.00     0.169 HD
HETATM   19  O   UNL     1      39.374 -14.290   2.522  1.00  0.00    -0.273 OA
BRANCH  17  20
HETATM   20  C   UNL     1      41.905 -16.760   3.258  1.00  0.00     0.073 A 
HETATM   21  C   UNL     1      42.774 -17.379   2.361  1.00  0.00     0.033 A 
HETATM   22  C   UNL     1      43.880 -18.102   2.832  1.00  0.00     0.002 A 
HETATM   23  C   UNL     1      44.129 -18.218   4.198  1.00  0.00     0.003 A 
HETATM   24  C   UNL     1      43.268 -17.613   5.106  1.00  0.00     0.044 A 
HETATM   25  C   UNL     1      42.173 -16.899   4.631  1.00  0.00     0.143 A 
HETATM   26  F   UNL     1      41.352 -16.311   5.517  1.00  0.00    -0.204 F 
ENDBRANCH  17  20
ENDBRANCH  15  16
ENDBRANCH   1  15
TORSDOF 3
ENDMDL
MODEL 6
REMARK VINA RESULT:      -7.2      3.904      6.727
REMARK  3 active torsions:
REMARK  status: ('A' for Active; 'I' for Inactive)
REMARK    1  A    between atoms: C_3  and  N_4 
REMARK       I    between atoms: N_4  and  C_5 
REMARK    2  A    between atoms: C_5  and  C_6 
REMARK    3  A    between atoms: C_6  and  C_7 
ROOT
HETATM    1  C   UNL     1      40.970 -13.442   3.847  1.00  0.00     0.286 C 
HETATM    2  N   UNL     1      40.339 -14.800   4.149  1.00  0.00    -0.056 N 
HETATM    3  H   UNL     1      40.045 -14.780   5.134  1.00  0.00     0.278 HD
HETATM    4  H   UNL     1      39.439 -14.855   3.624  1.00  0.00     0.278 HD
HETATM    5  C   UNL     1      41.173 -16.027   3.931  1.00  0.00     0.209 C 
HETATM    6  C   UNL     1      42.562 -15.830   4.583  1.00  0.00     0.115 C 
HETATM    7  N   UNL     1      43.169 -14.543   4.249  1.00  0.00    -0.353 N 
HETATM    8  C   UNL     1      42.460 -13.369   4.212  1.00  0.00     0.249 C 
HETATM    9  O   UNL     1      43.039 -12.298   4.354  1.00  0.00    -0.271 OA
HETATM   10  C   UNL     1      41.230 -16.390   2.448  1.00  0.00     0.035 C 
HETATM   11  C   UNL     1      42.154 -17.579   2.204  1.00  0.00     0.002 C 
HETATM   12  C   UNL     1      43.551 -17.307   2.754  1.00  0.00     0.002 C 
HETATM   13  C   UNL     1      43.509 -16.988   4.248  1.00  0.00     0.027 C 
HETATM   14  H   UNL     1      44.138 -14.393   4.528  1.00  0.00     0.163 HD
ENDROOT
BRANCH   1  15
HETATM   15  C   UNL     1      40.827 -12.989   2.384  1.00  0.00     0.146 C 
BRANCH  15  16
HETATM   16  C   UNL     1      39.405 -12.814   1.939  1.00  0.00     0.224 C 
HETATM   17  N   UNL     1      39.075 -12.617   0.638  1.00  0.00    -0.325 N 
HETATM   18  H   UNL     1      38.065 -12.545   0.503  1.00  0.00     0.169 HD
HETATM   19  O   UNL     1      38.499 -12.915   2.777  1.00  0.00    -0.273 OA
BRANCH  17  20
HETATM   20  C   UNL     1      39.801 -12.528  -0.570  1.00  0.00     0.073 A 
HETATM   21  C   UNL     1      40.538 -11.435  -1.022  1.00  0.00     0.033 A 
HETATM   22  C   UNL     1      41.226 -11.502  -2.243  1.00  0.00     0.002 A 
HETATM   23  C   UNL     1      41.185 -12.655  -3.024  1.00  0.00     0.003 A 
HETATM   24  C   UNL     1      40.450 -13.751  -2.591  1.00  0.00     0.044 A 
HETATM   25  C   UNL     1      39.769 -13.677  -1.381  1.00  0.00     0.143 A 
HETATM   26  F   UNL     1      39.067 -14.745  -0.968  1.00  0.00    -0.204 F 
ENDBRANCH  17  20
ENDBRANCH  15  16
ENDBRANCH   1  15
TORSDOF 3
ENDMDL
MODEL 7
REMARK VINA RESULT:      -7.1     13.512     15.346
REMARK  3 active torsions:
REMARK  status: ('A' for Active; 'I' for Inactive)
REMARK    1  A    between atoms: C_3  and  N_4 
REMARK       I    between atoms: N_4  and  C_5 
REMARK    2  A    between atoms: C_5  and  C_6 
REMARK    3  A    between atoms: C_6  and  C_7 
ROOT
HETATM    1  C   UNL     1      47.975 -28.915   1.104  1.00  0.00     0.286 C 
HETATM    2  N   UNL     1      48.126 -28.378   2.526  1.00  0.00    -0.056 N 
HETATM    3  H   UNL     1      48.565 -27.451   2.450  1.00  0.00     0.278 HD
HETATM    4  H   UNL     1      47.171 -28.169   2.889  1.00  0.00     0.278 HD
HETATM    5  C   UNL     1      48.916 -29.194   3.505  1.00  0.00     0.209 C 
HETATM    6  C   UNL     1      50.254 -29.624   2.859  1.00  0.00     0.115 C 
HETATM    7  N   UNL     1      50.085 -30.174   1.516  1.00  0.00    -0.353 N 
HETATM    8  C   UNL     1      49.230 -29.634   0.589  1.00  0.00     0.249 C 
HETATM    9  O   UNL     1      49.418 -29.831  -0.607  1.00  0.00    -0.271 OA
HETATM   10  C   UNL     1      48.082 -30.358   4.040  1.00  0.00     0.035 C 
HETATM   11  C   UNL     1      48.907 -31.251   4.963  1.00  0.00     0.002 C 
HETATM   12  C   UNL     1      50.161 -31.755   4.257  1.00  0.00     0.002 C 
HETATM   13  C   UNL     1      51.025 -30.597   3.759  1.00  0.00     0.027 C 
HETATM   14  H   UNL     1      50.899 -30.604   1.077  1.00  0.00     0.163 HD
ENDROOT
BRANCH   1  15
HETATM   15  C   UNL     1      46.781 -29.865   0.910  1.00  0.00     0.146 C 
BRANCH  15  16
HETATM   16  C   UNL     1      45.451 -29.239   1.213  1.00  0.00     0.224 C 
HETATM   17  N   UNL     1      44.612 -28.817   0.234  1.00  0.00    -0.325 N 
HETATM   18  H   UNL     1      43.740 -28.442   0.610  1.00  0.00     0.169 HD
HETATM   19  O   UNL     1      45.082 -29.162   2.392  1.00  0.00    -0.273 OA
BRANCH  17  20
HETATM   20  C   UNL     1      44.652 -28.815  -1.178  1.00  0.00     0.073 A 
HETATM   21  C   UNL     1      45.137 -27.797  -1.996  1.00  0.00     0.033 A 
HETATM   22  C   UNL     1      45.128 -27.945  -3.391  1.00  0.00     0.002 A 
HETATM   23  C   UNL     1      44.634 -29.106  -3.983  1.00  0.00     0.003 A 
HETATM   24  C   UNL     1      44.140 -30.128  -3.181  1.00  0.00     0.044 A 
HETATM   25  C   UNL     1      44.151 -29.972  -1.799  1.00  0.00     0.143 A 
HETATM   26  F   UNL     1      43.679 -30.969  -1.033  1.00  0.00    -0.204 F 
ENDBRANCH  17  20
ENDBRANCH  15  16
ENDBRANCH   1  15
TORSDOF 3
ENDMDL
MODEL 8
REMARK VINA RESULT:      -7.1      3.998      5.776
REMARK  3 active torsions:
REMARK  status: ('A' for Active; 'I' for Inactive)
REMARK    1  A    between atoms: C_3  and  N_4 
REMARK       I    between atoms: N_4  and  C_5 
REMARK    2  A    between atoms: C_5  and  C_6 
REMARK    3  A    between atoms: C_6  and  C_7 
ROOT
HETATM    1  C   UNL     1      39.602 -11.925   1.556  1.00  0.00     0.286 C 
HETATM    2  N   UNL     1      40.633 -12.287   0.490  1.00  0.00    -0.056 N 
HETATM    3  H   UNL     1      41.204 -11.447   0.328  1.00  0.00     0.278 HD
HETATM    4  H   UNL     1      41.304 -12.963   0.915  1.00  0.00     0.278 HD
HETATM    5  C   UNL     1      40.131 -12.777  -0.836  1.00  0.00     0.209 C 
HETATM    6  C   UNL     1      39.016 -11.835  -1.346  1.00  0.00     0.115 C 
HETATM    7  N   UNL     1      38.015 -11.533  -0.325  1.00  0.00    -0.353 N 
HETATM    8  C   UNL     1      38.337 -11.268   0.982  1.00  0.00     0.249 C 
HETATM    9  O   UNL     1      37.568 -10.622   1.685  1.00  0.00    -0.271 OA
HETATM   10  C   UNL     1      39.713 -14.245  -0.749  1.00  0.00     0.035 C 
HETATM   11  C   UNL     1      39.111 -14.727  -2.066  1.00  0.00     0.002 C 
HETATM   12  C   UNL     1      37.937 -13.848  -2.483  1.00  0.00     0.002 C 
HETATM   13  C   UNL     1      38.356 -12.384  -2.617  1.00  0.00     0.027 C 
HETATM   14  H   UNL     1      37.178 -11.031  -0.619  1.00  0.00     0.163 HD
ENDROOT
BRANCH   1  15
HETATM   15  C   UNL     1      39.155 -13.107   2.433  1.00  0.00     0.146 C 
BRANCH  15  16
HETATM   16  C   UNL     1      39.817 -13.149   3.779  1.00  0.00     0.224 C 
HETATM   17  N   UNL     1      40.913 -13.910   4.021  1.00  0.00    -0.325 N 
HETATM   18  H   UNL     1      41.253 -13.803   4.978  1.00  0.00     0.169 HD
HETATM   19  O   UNL     1      39.384 -12.419   4.681  1.00  0.00    -0.273 OA
BRANCH  17  20
HETATM   20  C   UNL     1      41.711 -14.780   3.245  1.00  0.00     0.073 A 
HETATM   21  C   UNL     1      42.777 -14.422   2.422  1.00  0.00     0.033 A 
HETATM   22  C   UNL     1      43.492 -15.406   1.722  1.00  0.00     0.002 A 
HETATM   23  C   UNL     1      43.150 -16.753   1.834  1.00  0.00     0.003 A 
HETATM   24  C   UNL     1      42.085 -17.125   2.644  1.00  0.00     0.044 A 
HETATM   25  C   UNL     1      41.380 -16.144   3.333  1.00  0.00     0.143 A 
HETATM   26  F   UNL     1      40.357 -16.515   4.121  1.00  0.00    -0.204 F 
ENDBRANCH  17  20
ENDBRANCH  15  16
ENDBRANCH   1  15
TORSDOF 3
ENDMDL
MODEL 9
REMARK VINA RESULT:      -7.1      4.138      6.598
REMARK  3 active torsions:
REMARK  status: ('A' for Active; 'I' for Inactive)
REMARK    1  A    between atoms: C_3  and  N_4 
REMARK       I    between atoms: N_4  and  C_5 
REMARK    2  A    between atoms: C_5  and  C_6 
REMARK    3  A    between atoms: C_6  and  C_7 
ROOT
HETATM    1  C   UNL     1      41.522 -13.802   3.462  1.00  0.00     0.286 C 
HETATM    2  N   UNL     1      40.735 -15.100   3.287  1.00  0.00    -0.056 N 
HETATM    3  H   UNL     1      39.942 -15.058   3.941  1.00  0.00     0.278 HD
HETATM    4  H   UNL     1      40.282 -15.071   2.348  1.00  0.00     0.278 HD
HETATM    5  C   UNL     1      41.458 -16.396   3.505  1.00  0.00     0.209 C 
HETATM    6  C   UNL     1      42.254 -16.327   4.829  1.00  0.00     0.115 C 
HETATM    7  N   UNL     1      43.034 -15.099   4.960  1.00  0.00    -0.353 N 
HETATM    8  C   UNL     1      42.554 -13.865   4.599  1.00  0.00     0.249 C 
HETATM    9  O   UNL     1      43.030 -12.851   5.097  1.00  0.00    -0.271 OA
HETATM   10  C   UNL     1      42.308 -16.754   2.286  1.00  0.00     0.035 C 
HETATM   11  C   UNL     1      43.123 -18.020   2.534  1.00  0.00     0.002 C 
HETATM   12  C   UNL     1      43.988 -17.878   3.782  1.00  0.00     0.002 C 
HETATM   13  C   UNL     1      43.141 -17.564   5.015  1.00  0.00     0.027 C 
HETATM   14  H   UNL     1      43.690 -15.037   5.739  1.00  0.00     0.163 HD
ENDROOT
BRANCH   1  15
HETATM   15  C   UNL     1      42.255 -13.330   2.195  1.00  0.00     0.146 C 
BRANCH  15  16
HETATM   16  C   UNL     1      41.831 -11.972   1.719  1.00  0.00     0.224 C 
HETATM   17  N   UNL     1      41.135 -11.794   0.569  1.00  0.00    -0.325 N 
HETATM   18  H   UNL     1      40.903 -10.813   0.406  1.00  0.00     0.169 HD
HETATM   19  O   UNL     1      42.072 -10.987   2.431  1.00  0.00    -0.273 OA
BRANCH  17  20
HETATM   20  C   UNL     1      40.626 -12.655  -0.429  1.00  0.00     0.073 A 
HETATM   21  C   UNL     1      39.817 -13.773  -0.232  1.00  0.00     0.033 A 
HETATM   22  C   UNL     1      39.372 -14.526  -1.330  1.00  0.00     0.002 A 
HETATM   23  C   UNL     1      39.730 -14.175  -2.630  1.00  0.00     0.003 A 
HETATM   24  C   UNL     1      40.542 -13.067  -2.842  1.00  0.00     0.044 A 
HETATM   25  C   UNL     1      40.981 -12.327  -1.749  1.00  0.00     0.143 A 
HETATM   26  F   UNL     1      41.759 -11.254  -1.966  1.00  0.00    -0.204 F 
ENDBRANCH  17  20
ENDBRANCH  15  16
ENDBRANCH   1  15
TORSDOF 3
ENDMDL
MODEL 10
REMARK VINA RESULT:      -7.1      2.568      4.006
REMARK  3 active torsions:
REMARK  status: ('A' for Active; 'I' for Inactive)
REMARK    1  A    between atoms: C_3  and  N_4 
REMARK       I    between atoms: N_4  and  C_5 
REMARK    2  A    between atoms: C_5  and  C_6 
REMARK    3  A    between atoms: C_6  and  C_7 
ROOT
HETATM    1  C   UNL     1      40.474 -14.235   3.710  1.00  0.00     0.286 C 
HETATM    2  N   UNL     1      40.030 -13.960   5.146  1.00  0.00    -0.056 N 
HETATM    3  H   UNL     1      39.634 -13.011   5.158  1.00  0.00     0.278 HD
HETATM    4  H   UNL     1      39.211 -14.573   5.347  1.00  0.00     0.278 HD
HETATM    5  C   UNL     1      41.061 -14.054   6.231  1.00  0.00     0.209 C 
HETATM    6  C   UNL     1      42.326 -13.269   5.811  1.00  0.00     0.115 C 
HETATM    7  N   UNL     1      42.761 -13.577   4.450  1.00  0.00    -0.353 N 
HETATM    8  C   UNL     1      41.888 -13.721   3.401  1.00  0.00     0.249 C 
HETATM    9  O   UNL     1      42.278 -13.552   2.251  1.00  0.00    -0.271 OA
HETATM   10  C   UNL     1      41.330 -15.513   6.599  1.00  0.00     0.035 C 
HETATM   11  C   UNL     1      42.446 -15.626   7.633  1.00  0.00     0.002 C 
HETATM   12  C   UNL     1      43.718 -14.943   7.140  1.00  0.00     0.002 C 
HETATM   13  C   UNL     1      43.470 -13.471   6.812  1.00  0.00     0.027 C 
HETATM   14  H   UNL     1      43.661 -13.204   4.147  1.00  0.00     0.163 HD
ENDROOT
BRANCH   1  15
HETATM   15  C   UNL     1      40.419 -15.718   3.303  1.00  0.00     0.146 C 
BRANCH  15  16
HETATM   16  C   UNL     1      41.109 -16.017   2.005  1.00  0.00     0.224 C 
HETATM   17  N   UNL     1      42.229 -16.778   1.941  1.00  0.00    -0.325 N 
HETATM   18  H   UNL     1      42.554 -16.906   0.981  1.00  0.00     0.169 HD
HETATM   19  O   UNL     1      40.604 -15.606   0.951  1.00  0.00    -0.273 OA
BRANCH  17  20
HETATM   20  C   UNL     1      43.022 -17.463   2.888  1.00  0.00     0.073 A 
HETATM   21  C   UNL     1      43.624 -16.919   4.021  1.00  0.00     0.033 A 
HETATM   22  C   UNL     1      44.373 -17.733   4.885  1.00  0.00     0.002 A 
HETATM   23  C   UNL     1      44.529 -19.093   4.628  1.00  0.00     0.003 A 
HETATM   24  C   UNL     1      43.940 -19.651   3.499  1.00  0.00     0.044 A 
HETATM   25  C   UNL     1      43.201 -18.837   2.647  1.00  0.00     0.143 A 
HETATM   26  F   UNL     1      42.630 -19.387   1.563  1.00  0.00    -0.204 F 
ENDBRANCH  17  20
ENDBRANCH  15  16
ENDBRANCH   1  15
TORSDOF 3
ENDMDL
