MODEL 1
REMARK VINA RESULT:      -8.6      0.000      0.000
REMARK  5 active torsions:
REMARK  status: ('A' for Active; 'I' for Inactive)
REMARK    1  A    between atoms: C_5  and  C_6 
REMARK    2  A    between atoms: C_6  and  N_7 
REMARK    3  A    between atoms: C_9  and  C_10 
REMARK       I    between atoms: C_10  and  N_11 
REMARK    4  A    between atoms: N_11  and  C_12 
REMARK    5  A    between atoms: C_12  and  O_13 
ROOT
HETATM    1  N   UNL     1      42.170 -15.570   2.499  1.00  0.00    -0.361 N 
HETATM    2  C   UNL     1      42.057 -14.725   1.445  1.00  0.00     0.107 A 
HETATM    3  C   UNL     1      40.805 -14.396   0.920  1.00  0.00     0.047 A 
HETATM    4  C   UNL     1      39.667 -14.972   1.482  1.00  0.00     0.020 A 
HETATM    5  C   UNL     1      39.804 -15.841   2.563  1.00  0.00     0.018 A 
HETATM    6  C   UNL     1      41.071 -16.120   3.067  1.00  0.00     0.090 A 
ENDROOT
BRANCH   1   7
HETATM    7  C   UNL     1      43.514 -15.849   3.068  1.00  0.00     0.167 C 
BRANCH   7   8
HETATM    8  C   UNL     1      43.521 -16.809   4.237  1.00  0.00    -0.029 A 
HETATM    9  C   UNL     1      43.652 -18.211   3.984  1.00  0.00    -0.018 A 
HETATM   10  C   UNL     1      43.680 -19.108   5.082  1.00  0.00    -0.025 A 
HETATM   11  C   UNL     1      43.754 -18.776   2.687  1.00  0.00     0.013 A 
HETATM   12  C   UNL     1      43.805 -20.490   4.867  1.00  0.00     0.012 A 
HETATM   13  C   UNL     1      43.582 -18.618   6.389  1.00  0.00     0.012 A 
HETATM   14  C   UNL     1      43.900 -21.011   3.580  1.00  0.00     0.001 A 
HETATM   15  C   UNL     1      43.874 -20.155   2.490  1.00  0.00     0.001 A 
HETATM   16  C   UNL     1      43.446 -17.257   6.631  1.00  0.00     0.002 A 
HETATM   17  C   UNL     1      43.412 -16.359   5.568  1.00  0.00     0.010 A 
ENDBRANCH   7   8
ENDBRANCH   1   7
BRANCH   3  18
HETATM   18  C   UNL     1      40.790 -13.447  -0.218  1.00  0.00     0.254 C 
HETATM   19  N   UNL     1      40.567 -13.944  -1.472  1.00  0.00    -0.336 N 
HETATM   20  H   UNL     1      40.345 -14.905  -1.676  1.00  0.00     0.164 HD
HETATM   21  O   UNL     1      40.953 -12.255   0.021  1.00  0.00    -0.268 OA
BRANCH  19  22
HETATM   22  C   UNL     1      40.496 -13.084  -2.606  1.00  0.00     0.290 C 
BRANCH  22  23
HETATM   23  O   UNL     1      41.562 -13.496  -3.424  1.00  0.00    -0.382 OA
HETATM   24  H   UNL     1      42.306 -13.688  -2.826  1.00  0.00     0.211 HD
ENDBRANCH  22  23
ENDBRANCH  19  22
ENDBRANCH   3  18
TORSDOF 5
ENDMDL
MODEL 2
REMARK VINA RESULT:      -8.5      1.757      3.516
REMARK  5 active torsions:
REMARK  status: ('A' for Active; 'I' for Inactive)
REMARK    1  A    between atoms: C_5  and  C_6 
REMARK    2  A    between atoms: C_6  and  N_7 
REMARK    3  A    between atoms: C_9  and  C_10 
REMARK       I    between atoms: C_10  and  N_11 
REMARK    4  A    between atoms: N_11  and  C_12 
REMARK    5  A    between atoms: C_12  and  O_13 
ROOT
HETATM    1  N   UNL     1      40.474 -14.832   1.558  1.00  0.00    -0.361 N 
HETATM    2  C   UNL     1      39.996 -14.866   0.289  1.00  0.00     0.107 A 
HETATM    3  C   UNL     1      40.226 -13.808  -0.593  1.00  0.00     0.047 A 
HETATM    4  C   UNL     1      40.938 -12.698  -0.142  1.00  0.00     0.020 A 
HETATM    5  C   UNL     1      41.419 -12.680   1.166  1.00  0.00     0.018 A 
HETATM    6  C   UNL     1      41.185 -13.769   2.001  1.00  0.00     0.090 A 
ENDROOT
BRANCH   1   7
HETATM    7  C   UNL     1      40.261 -16.002   2.448  1.00  0.00     0.167 C 
BRANCH   7   8
HETATM    8  C   UNL     1      41.527 -16.607   3.015  1.00  0.00    -0.029 A 
HETATM    9  C   UNL     1      41.790 -16.481   4.416  1.00  0.00    -0.018 A 
HETATM   10  C   UNL     1      42.967 -17.067   4.950  1.00  0.00    -0.025 A 
HETATM   11  C   UNL     1      40.942 -15.796   5.323  1.00  0.00     0.013 A 
HETATM   12  C   UNL     1      43.255 -16.959   6.319  1.00  0.00     0.012 A 
HETATM   13  C   UNL     1      43.849 -17.755   4.110  1.00  0.00     0.012 A 
HETATM   14  C   UNL     1      42.401 -16.276   7.181  1.00  0.00     0.001 A 
HETATM   15  C   UNL     1      41.246 -15.694   6.684  1.00  0.00     0.001 A 
HETATM   16  C   UNL     1      43.595 -17.868   2.749  1.00  0.00     0.002 A 
HETATM   17  C   UNL     1      42.448 -17.298   2.203  1.00  0.00     0.010 A 
ENDBRANCH   7   8
ENDBRANCH   1   7
BRANCH   3  18
HETATM   18  C   UNL     1      39.678 -13.954  -1.962  1.00  0.00     0.254 C 
HETATM   19  N   UNL     1      38.323 -14.070  -2.108  1.00  0.00    -0.336 N 
HETATM   20  H   UNL     1      37.658 -13.998  -1.356  1.00  0.00     0.164 HD
HETATM   21  O   UNL     1      40.463 -13.938  -2.904  1.00  0.00    -0.268 OA
BRANCH  19  22
HETATM   22  C   UNL     1      37.725 -14.169  -3.397  1.00  0.00     0.290 C 
BRANCH  22  23
HETATM   23  O   UNL     1      38.311 -15.313  -3.967  1.00  0.00    -0.382 OA
HETATM   24  H   UNL     1      39.119 -15.011  -4.417  1.00  0.00     0.211 HD
ENDBRANCH  22  23
ENDBRANCH  19  22
ENDBRANCH   3  18
TORSDOF 5
ENDMDL
MODEL 3
REMARK VINA RESULT:      -8.4      4.291      5.884
REMARK  5 active torsions:
REMARK  status: ('A' for Active; 'I' for Inactive)
REMARK    1  A    between atoms: C_5  and  C_6 
REMARK    2  A    between atoms: C_6  and  N_7 
REMARK    3  A    between atoms: C_9  and  C_10 
REMARK       I    between atoms: C_10  and  N_11 
REMARK    4  A    between atoms: N_11  and  C_12 
REMARK    5  A    between atoms: C_12  and  O_13 
ROOT
HETATM    1  N   UNL     1      42.531 -13.639   4.792  1.00  0.00    -0.361 N 
HETATM    2  C   UNL     1      43.267 -13.152   5.821  1.00  0.00     0.107 A 
HETATM    3  C   UNL     1      44.065 -12.018   5.659  1.00  0.00     0.047 A 
HETATM    4  C   UNL     1      44.116 -11.404   4.408  1.00  0.00     0.020 A 
HETATM    5  C   UNL     1      43.355 -11.921   3.362  1.00  0.00     0.018 A 
HETATM    6  C   UNL     1      42.556 -13.039   3.578  1.00  0.00     0.090 A 
ENDROOT
BRANCH   1   7
HETATM    7  C   UNL     1      41.647 -14.811   5.019  1.00  0.00     0.167 C 
BRANCH   7   8
HETATM    8  C   UNL     1      42.365 -16.077   5.433  1.00  0.00    -0.029 A 
HETATM    9  C   UNL     1      42.814 -16.983   4.421  1.00  0.00    -0.018 A 
HETATM   10  C   UNL     1      43.506 -18.159   4.810  1.00  0.00    -0.025 A 
HETATM   11  C   UNL     1      42.609 -16.785   3.032  1.00  0.00     0.013 A 
HETATM   12  C   UNL     1      43.958 -19.069   3.841  1.00  0.00     0.012 A 
HETATM   13  C   UNL     1      43.741 -18.418   6.165  1.00  0.00     0.012 A 
HETATM   14  C   UNL     1      43.737 -18.845   2.486  1.00  0.00     0.001 A 
HETATM   15  C   UNL     1      43.062 -17.704   2.080  1.00  0.00     0.001 A 
HETATM   16  C   UNL     1      43.295 -17.540   7.145  1.00  0.00     0.002 A 
HETATM   17  C   UNL     1      42.611 -16.382   6.786  1.00  0.00     0.010 A 
ENDBRANCH   7   8
ENDBRANCH   1   7
BRANCH   3  18
HETATM   18  C   UNL     1      44.812 -11.555   6.852  1.00  0.00     0.254 C 
HETATM   19  N   UNL     1      45.969 -10.852   6.658  1.00  0.00    -0.336 N 
HETATM   20  H   UNL     1      46.322 -10.566   5.759  1.00  0.00     0.164 HD
HETATM   21  O   UNL     1      44.345 -11.801   7.959  1.00  0.00    -0.268 OA
BRANCH  19  22
HETATM   22  C   UNL     1      46.715 -10.339   7.758  1.00  0.00     0.290 C 
BRANCH  22  23
HETATM   23  O   UNL     1      46.868  -8.972   7.469  1.00  0.00    -0.382 OA
HETATM   24  H   UNL     1      47.825  -8.817   7.379  1.00  0.00     0.211 HD
ENDBRANCH  22  23
ENDBRANCH  19  22
ENDBRANCH   3  18
TORSDOF 5
ENDMDL
MODEL 4
REMARK VINA RESULT:      -8.3      4.541      6.322
REMARK  5 active torsions:
REMARK  status: ('A' for Active; 'I' for Inactive)
REMARK    1  A    between atoms: C_5  and  C_6 
REMARK    2  A    between atoms: C_6  and  N_7 
REMARK    3  A    between atoms: C_9  and  C_10 
REMARK       I    between atoms: C_10  and  N_11 
REMARK    4  A    between atoms: N_11  and  C_12 
REMARK    5  A    between atoms: C_12  and  O_13 
ROOT
HETATM    1  N   UNL     1      42.742 -13.899   6.098  1.00  0.00    -0.361 N 
HETATM    2  C   UNL     1      43.833 -13.173   6.447  1.00  0.00     0.107 A 
HETATM    3  C   UNL     1      43.753 -11.788   6.602  1.00  0.00     0.047 A 
HETATM    4  C   UNL     1      42.534 -11.153   6.368  1.00  0.00     0.020 A 
HETATM    5  C   UNL     1      41.425 -11.916   6.008  1.00  0.00     0.018 A 
HETATM    6  C   UNL     1      41.548 -13.298   5.888  1.00  0.00     0.090 A 
ENDROOT
BRANCH   1   7
HETATM    7  C   UNL     1      42.852 -15.378   6.001  1.00  0.00     0.167 C 
BRANCH   7   8
HETATM    8  C   UNL     1      43.018 -15.911   4.594  1.00  0.00    -0.029 A 
HETATM    9  C   UNL     1      43.365 -17.287   4.410  1.00  0.00    -0.018 A 
HETATM   10  C   UNL     1      43.499 -17.790   3.090  1.00  0.00    -0.025 A 
HETATM   11  C   UNL     1      43.592 -18.197   5.473  1.00  0.00     0.013 A 
HETATM   12  C   UNL     1      43.842 -19.135   2.875  1.00  0.00     0.012 A 
HETATM   13  C   UNL     1      43.292 -16.946   1.994  1.00  0.00     0.012 A 
HETATM   14  C   UNL     1      44.060 -20.000   3.943  1.00  0.00     0.001 A 
HETATM   15  C   UNL     1      43.936 -19.532   5.242  1.00  0.00     0.001 A 
HETATM   16  C   UNL     1      42.963 -15.608   2.177  1.00  0.00     0.002 A 
HETATM   17  C   UNL     1      42.830 -15.092   3.463  1.00  0.00     0.010 A 
ENDBRANCH   7   8
ENDBRANCH   1   7
BRANCH   3  18
HETATM   18  C   UNL     1      44.997 -11.091   7.006  1.00  0.00     0.254 C 
HETATM   19  N   UNL     1      44.939 -10.223   8.061  1.00  0.00    -0.336 N 
HETATM   20  H   UNL     1      44.123 -10.067   8.631  1.00  0.00     0.164 HD
HETATM   21  O   UNL     1      46.028 -11.345   6.392  1.00  0.00    -0.268 OA
BRANCH  19  22
HETATM   22  C   UNL     1      46.104  -9.552   8.531  1.00  0.00     0.290 C 
BRANCH  22  23
HETATM   23  O   UNL     1      46.457  -8.687   7.480  1.00  0.00    -0.382 OA
HETATM   24  H   UNL     1      47.319  -8.304   7.719  1.00  0.00     0.211 HD
ENDBRANCH  22  23
ENDBRANCH  19  22
ENDBRANCH   3  18
TORSDOF 5
ENDMDL
MODEL 5
REMARK VINA RESULT:      -8.2      1.554      2.220
REMARK  5 active torsions:
REMARK  status: ('A' for Active; 'I' for Inactive)
REMARK    1  A    between atoms: C_5  and  C_6 
REMARK    2  A    between atoms: C_6  and  N_7 
REMARK    3  A    between atoms: C_9  and  C_10 
REMARK       I    between atoms: C_10  and  N_11 
REMARK    4  A    between atoms: N_11  and  C_12 
REMARK    5  A    between atoms: C_12  and  O_13 
ROOT
HETATM    1  N   UNL     1      40.746 -14.169   2.780  1.00  0.00    -0.361 N 
HETATM    2  C   UNL     1      40.550 -13.972   1.453  1.00  0.00     0.107 A 
HETATM    3  C   UNL     1      41.042 -12.832   0.816  1.00  0.00     0.047 A 
HETATM    4  C   UNL     1      41.721 -11.878   1.572  1.00  0.00     0.020 A 
HETATM    5  C   UNL     1      41.911 -12.096   2.935  1.00  0.00     0.018 A 
HETATM    6  C   UNL     1      41.422 -13.260   3.521  1.00  0.00     0.090 A 
ENDROOT
BRANCH   1   7
HETATM    7  C   UNL     1      40.260 -15.423   3.411  1.00  0.00     0.167 C 
BRANCH   7   8
HETATM    8  C   UNL     1      41.183 -16.004   4.460  1.00  0.00    -0.029 A 
HETATM    9  C   UNL     1      42.224 -16.896   4.052  1.00  0.00    -0.018 A 
HETATM   10  C   UNL     1      43.102 -17.423   5.035  1.00  0.00    -0.025 A 
HETATM   11  C   UNL     1      42.442 -17.300   2.711  1.00  0.00     0.013 A 
HETATM   12  C   UNL     1      44.132 -18.303   4.668  1.00  0.00     0.012 A 
HETATM   13  C   UNL     1      42.942 -17.068   6.379  1.00  0.00     0.012 A 
HETATM   14  C   UNL     1      44.315 -18.680   3.341  1.00  0.00     0.001 A 
HETATM   15  C   UNL     1      43.470 -18.180   2.362  1.00  0.00     0.001 A 
HETATM   16  C   UNL     1      41.924 -16.208   6.773  1.00  0.00     0.002 A 
HETATM   17  C   UNL     1      41.049 -15.682   5.826  1.00  0.00     0.010 A 
ENDBRANCH   7   8
ENDBRANCH   1   7
BRANCH   3  18
HETATM   18  C   UNL     1      40.791 -12.724  -0.641  1.00  0.00     0.254 C 
HETATM   19  N   UNL     1      40.574 -13.874  -1.347  1.00  0.00    -0.336 N 
HETATM   20  H   UNL     1      40.506 -14.793  -0.939  1.00  0.00     0.164 HD
HETATM   21  O   UNL     1      40.765 -11.605  -1.142  1.00  0.00    -0.268 OA
BRANCH  19  22
HETATM   22  C   UNL     1      40.284 -13.842  -2.741  1.00  0.00     0.290 C 
BRANCH  22  23
HETATM   23  O   UNL     1      41.502 -13.478  -3.343  1.00  0.00    -0.382 OA
HETATM   24  H   UNL     1      41.928 -12.848  -2.736  1.00  0.00     0.211 HD
ENDBRANCH  22  23
ENDBRANCH  19  22
ENDBRANCH   3  18
TORSDOF 5
ENDMDL
MODEL 6
REMARK VINA RESULT:      -7.8      1.954      2.642
REMARK  5 active torsions:
REMARK  status: ('A' for Active; 'I' for Inactive)
REMARK    1  A    between atoms: C_5  and  C_6 
REMARK    2  A    between atoms: C_6  and  N_7 
REMARK    3  A    between atoms: C_9  and  C_10 
REMARK       I    between atoms: C_10  and  N_11 
REMARK    4  A    between atoms: N_11  and  C_12 
REMARK    5  A    between atoms: C_12  and  O_13 
ROOT
HETATM    1  N   UNL     1      42.093 -15.445   1.984  1.00  0.00    -0.361 N 
HETATM    2  C   UNL     1      42.111 -14.092   1.905  1.00  0.00     0.107 A 
HETATM    3  C   UNL     1      40.924 -13.363   1.798  1.00  0.00     0.047 A 
HETATM    4  C   UNL     1      39.713 -14.052   1.748  1.00  0.00     0.020 A 
HETATM    5  C   UNL     1      39.715 -15.443   1.829  1.00  0.00     0.018 A 
HETATM    6  C   UNL     1      40.922 -16.125   1.958  1.00  0.00     0.090 A 
ENDROOT
BRANCH   1   7
HETATM    7  C   UNL     1      43.371 -16.182   2.158  1.00  0.00     0.167 C 
BRANCH   7   8
HETATM    8  C   UNL     1      43.547 -16.837   3.511  1.00  0.00    -0.029 A 
HETATM    9  C   UNL     1      43.663 -18.262   3.582  1.00  0.00    -0.018 A 
HETATM   10  C   UNL     1      43.849 -18.873   4.849  1.00  0.00    -0.025 A 
HETATM   11  C   UNL     1      43.600 -19.120   2.455  1.00  0.00     0.013 A 
HETATM   12  C   UNL     1      43.964 -20.268   4.954  1.00  0.00     0.012 A 
HETATM   13  C   UNL     1      43.918 -18.085   6.003  1.00  0.00     0.012 A 
HETATM   14  C   UNL     1      43.895 -21.081   3.826  1.00  0.00     0.001 A 
HETATM   15  C   UNL     1      43.712 -20.508   2.577  1.00  0.00     0.001 A 
HETATM   16  C   UNL     1      43.796 -16.703   5.931  1.00  0.00     0.002 A 
HETATM   17  C   UNL     1      43.609 -16.083   4.698  1.00  0.00     0.010 A 
ENDBRANCH   7   8
ENDBRANCH   1   7
BRANCH   3  18
HETATM   18  C   UNL     1      41.053 -11.888   1.739  1.00  0.00     0.254 C 
HETATM   19  N   UNL     1      40.861 -11.176   2.890  1.00  0.00    -0.336 N 
HETATM   20  H   UNL     1      40.701 -11.584   3.797  1.00  0.00     0.164 HD
HETATM   21  O   UNL     1      41.352 -11.376   0.666  1.00  0.00    -0.268 OA
BRANCH  19  22
HETATM   22  C   UNL     1      41.012  -9.759   2.916  1.00  0.00     0.290 C 
BRANCH  22  23
HETATM   23  O   UNL     1      42.145  -9.543   3.719  1.00  0.00    -0.382 OA
HETATM   24  H   UNL     1      41.959  -9.969   4.575  1.00  0.00     0.211 HD
ENDBRANCH  22  23
ENDBRANCH  19  22
ENDBRANCH   3  18
TORSDOF 5
ENDMDL
MODEL 7
REMARK VINA RESULT:      -7.6      4.302      5.437
REMARK  5 active torsions:
REMARK  status: ('A' for Active; 'I' for Inactive)
REMARK    1  A    between atoms: C_5  and  C_6 
REMARK    2  A    between atoms: C_6  and  N_7 
REMARK    3  A    between atoms: C_9  and  C_10 
REMARK       I    between atoms: C_10  and  N_11 
REMARK    4  A    between atoms: N_11  and  C_12 
REMARK    5  A    between atoms: C_12  and  O_13 
ROOT
HETATM    1  N   UNL     1      41.999 -13.422   4.439  1.00  0.00    -0.361 N 
HETATM    2  C   UNL     1      41.408 -12.563   5.305  1.00  0.00     0.107 A 
HETATM    3  C   UNL     1      41.869 -11.252   5.443  1.00  0.00     0.047 A 
HETATM    4  C   UNL     1      42.968 -10.842   4.690  1.00  0.00     0.020 A 
HETATM    5  C   UNL     1      43.564 -11.740   3.807  1.00  0.00     0.018 A 
HETATM    6  C   UNL     1      43.054 -13.030   3.687  1.00  0.00     0.090 A 
ENDROOT
BRANCH   1   7
HETATM    7  C   UNL     1      41.443 -14.790   4.275  1.00  0.00     0.167 C 
BRANCH   7   8
HETATM    8  C   UNL     1      42.201 -15.874   5.010  1.00  0.00    -0.029 A 
HETATM    9  C   UNL     1      42.782 -16.945   4.260  1.00  0.00    -0.018 A 
HETATM   10  C   UNL     1      43.510 -17.950   4.948  1.00  0.00    -0.025 A 
HETATM   11  C   UNL     1      42.676 -17.076   2.852  1.00  0.00     0.013 A 
HETATM   12  C   UNL     1      44.091 -19.015   4.242  1.00  0.00     0.012 A 
HETATM   13  C   UNL     1      43.652 -17.883   6.339  1.00  0.00     0.012 A 
HETATM   14  C   UNL     1      43.964 -19.114   2.859  1.00  0.00     0.001 A 
HETATM   15  C   UNL     1      43.256 -18.146   2.164  1.00  0.00     0.001 A 
HETATM   16  C   UNL     1      43.079 -16.847   7.064  1.00  0.00     0.002 A 
HETATM   17  C   UNL     1      42.357 -15.852   6.410  1.00  0.00     0.010 A 
ENDBRANCH   7   8
ENDBRANCH   1   7
BRANCH   3  18
HETATM   18  C   UNL     1      41.139 -10.388   6.401  1.00  0.00     0.254 C 
HETATM   19  N   UNL     1      40.012 -10.887   6.993  1.00  0.00    -0.336 N 
HETATM   20  H   UNL     1      39.673 -11.828   6.877  1.00  0.00     0.164 HD
HETATM   21  O   UNL     1      41.595  -9.275   6.639  1.00  0.00    -0.268 OA
BRANCH  19  22
HETATM   22  C   UNL     1      39.286 -10.129   7.956  1.00  0.00     0.290 C 
BRANCH  22  23
HETATM   23  O   UNL     1      38.767 -11.092   8.839  1.00  0.00    -0.382 OA
HETATM   24  H   UNL     1      39.210 -10.947   9.693  1.00  0.00     0.211 HD
ENDBRANCH  22  23
ENDBRANCH  19  22
ENDBRANCH   3  18
TORSDOF 5
ENDMDL
MODEL 8
REMARK VINA RESULT:      -7.4     13.950     15.963
REMARK  5 active torsions:
REMARK  status: ('A' for Active; 'I' for Inactive)
REMARK    1  A    between atoms: C_5  and  C_6 
REMARK    2  A    between atoms: C_6  and  N_7 
REMARK    3  A    between atoms: C_9  and  C_10 
REMARK       I    between atoms: C_10  and  N_11 
REMARK    4  A    between atoms: N_11  and  C_12 
REMARK    5  A    between atoms: C_12  and  O_13 
ROOT
HETATM    1  N   UNL     1      47.723 -29.040   1.199  1.00  0.00    -0.361 N 
HETATM    2  C   UNL     1      48.591 -29.599   0.320  1.00  0.00     0.107 A 
HETATM    3  C   UNL     1      49.792 -30.162   0.758  1.00  0.00     0.047 A 
HETATM    4  C   UNL     1      50.100 -30.120   2.117  1.00  0.00     0.020 A 
HETATM    5  C   UNL     1      49.196 -29.539   3.004  1.00  0.00     0.018 A 
HETATM    6  C   UNL     1      48.001 -29.011   2.523  1.00  0.00     0.090 A 
ENDROOT
BRANCH   1   7
HETATM    7  C   UNL     1      46.428 -28.506   0.704  1.00  0.00     0.167 C 
BRANCH   7   8
HETATM    8  C   UNL     1      45.566 -29.509  -0.030  1.00  0.00    -0.029 A 
HETATM    9  C   UNL     1      45.222 -29.262  -1.397  1.00  0.00    -0.018 A 
HETATM   10  C   UNL     1      44.432 -30.215  -2.090  1.00  0.00    -0.025 A 
HETATM   11  C   UNL     1      45.621 -28.108  -2.118  1.00  0.00     0.013 A 
HETATM   12  C   UNL     1      44.076 -30.000  -3.431  1.00  0.00     0.012 A 
HETATM   13  C   UNL     1      44.002 -31.375  -1.437  1.00  0.00     0.012 A 
HETATM   14  C   UNL     1      44.482 -28.854  -4.107  1.00  0.00     0.001 A 
HETATM   15  C   UNL     1      45.254 -27.907  -3.452  1.00  0.00     0.001 A 
HETATM   16  C   UNL     1      44.330 -31.608  -0.108  1.00  0.00     0.002 A 
HETATM   17  C   UNL     1      45.102 -30.685   0.593  1.00  0.00     0.010 A 
ENDBRANCH   7   8
ENDBRANCH   1   7
BRANCH   3  18
HETATM   18  C   UNL     1      50.660 -30.766  -0.281  1.00  0.00     0.254 C 
HETATM   19  N   UNL     1      50.403 -30.470  -1.591  1.00  0.00    -0.336 N 
HETATM   20  H   UNL     1      49.704 -29.816  -1.904  1.00  0.00     0.164 HD
HETATM   21  O   UNL     1      51.584 -31.484   0.084  1.00  0.00    -0.268 OA
BRANCH  19  22
HETATM   22  C   UNL     1      51.223 -30.980  -2.638  1.00  0.00     0.290 C 
BRANCH  22  23
HETATM   23  O   UNL     1      52.370 -30.168  -2.611  1.00  0.00    -0.382 OA
HETATM   24  H   UNL     1      52.681 -30.166  -1.689  1.00  0.00     0.211 HD
ENDBRANCH  22  23
ENDBRANCH  19  22
ENDBRANCH   3  18
TORSDOF 5
ENDMDL
MODEL 9
REMARK VINA RESULT:      -7.4      4.208      4.924
REMARK  5 active torsions:
REMARK  status: ('A' for Active; 'I' for Inactive)
REMARK    1  A    between atoms: C_5  and  C_6 
REMARK    2  A    between atoms: C_6  and  N_7 
REMARK    3  A    between atoms: C_9  and  C_10 
REMARK       I    between atoms: C_10  and  N_11 
REMARK    4  A    between atoms: N_11  and  C_12 
REMARK    5  A    between atoms: C_12  and  O_13 
ROOT
HETATM    1  N   UNL     1      42.468 -15.496   5.314  1.00  0.00    -0.361 N 
HETATM    2  C   UNL     1      42.559 -14.164   5.550  1.00  0.00     0.107 A 
HETATM    3  C   UNL     1      41.470 -13.448   6.052  1.00  0.00     0.047 A 
HETATM    4  C   UNL     1      40.272 -14.122   6.287  1.00  0.00     0.020 A 
HETATM    5  C   UNL     1      40.197 -15.490   6.037  1.00  0.00     0.018 A 
HETATM    6  C   UNL     1      41.317 -16.165   5.558  1.00  0.00     0.090 A 
ENDROOT
BRANCH   1   7
HETATM    7  C   UNL     1      43.665 -16.235   4.836  1.00  0.00     0.167 C 
BRANCH   7   8
HETATM    8  C   UNL     1      43.669 -17.713   5.158  1.00  0.00    -0.029 A 
HETATM    9  C   UNL     1      43.717 -18.657   4.084  1.00  0.00    -0.018 A 
HETATM   10  C   UNL     1      43.742 -20.043   4.388  1.00  0.00    -0.025 A 
HETATM   11  C   UNL     1      43.738 -18.298   2.713  1.00  0.00     0.013 A 
HETATM   12  C   UNL     1      43.786 -20.995   3.358  1.00  0.00     0.012 A 
HETATM   13  C   UNL     1      43.720 -20.468   5.722  1.00  0.00     0.012 A 
HETATM   14  C   UNL     1      43.804 -20.607   2.022  1.00  0.00     0.001 A 
HETATM   15  C   UNL     1      43.779 -19.259   1.698  1.00  0.00     0.001 A 
HETATM   16  C   UNL     1      43.665 -19.548   6.761  1.00  0.00     0.002 A 
HETATM   17  C   UNL     1      43.636 -18.184   6.486  1.00  0.00     0.010 A 
ENDBRANCH   7   8
ENDBRANCH   1   7
BRANCH   3  18
HETATM   18  C   UNL     1      41.681 -12.001   6.295  1.00  0.00     0.254 C 
HETATM   19  N   UNL     1      40.608 -11.247   6.682  1.00  0.00    -0.336 N 
HETATM   20  H   UNL     1      39.691 -11.615   6.879  1.00  0.00     0.164 HD
HETATM   21  O   UNL     1      42.814 -11.552   6.162  1.00  0.00    -0.268 OA
BRANCH  19  22
HETATM   22  C   UNL     1      40.746  -9.860   6.973  1.00  0.00     0.290 C 
BRANCH  22  23
HETATM   23  O   UNL     1      41.484  -9.827   8.170  1.00  0.00    -0.382 OA
HETATM   24  H   UNL     1      41.493 -10.738   8.510  1.00  0.00     0.211 HD
ENDBRANCH  22  23
ENDBRANCH  19  22
ENDBRANCH   3  18
TORSDOF 5
ENDMDL
MODEL 10
REMARK VINA RESULT:      -7.1      8.592     10.974
REMARK  5 active torsions:
REMARK  status: ('A' for Active; 'I' for Inactive)
REMARK    1  A    between atoms: C_5  and  C_6 
REMARK    2  A    between atoms: C_6  and  N_7 
REMARK    3  A    between atoms: C_9  and  C_10 
REMARK       I    between atoms: C_10  and  N_11 
REMARK    4  A    between atoms: N_11  and  C_12 
REMARK    5  A    between atoms: C_12  and  O_13 
ROOT
HETATM    1  N   UNL     1      43.807  -8.786   8.458  1.00  0.00    -0.361 N 
HETATM    2  C   UNL     1      43.434  -9.973   7.919  1.00  0.00     0.107 A 
HETATM    3  C   UNL     1      44.388 -10.891   7.476  1.00  0.00     0.047 A 
HETATM    4  C   UNL     1      45.738 -10.559   7.573  1.00  0.00     0.020 A 
HETATM    5  C   UNL     1      46.102  -9.333   8.128  1.00  0.00     0.018 A 
HETATM    6  C   UNL     1      45.115  -8.460   8.577  1.00  0.00     0.090 A 
ENDROOT
BRANCH   1   7
HETATM    7  C   UNL     1      42.765  -7.861   8.973  1.00  0.00     0.167 C 
BRANCH   7   8
HETATM    8  C   UNL     1      41.728  -8.506   9.867  1.00  0.00    -0.029 A 
HETATM    9  C   UNL     1      41.945  -8.524  11.281  1.00  0.00    -0.018 A 
HETATM   10  C   UNL     1      40.962  -9.111  12.119  1.00  0.00    -0.025 A 
HETATM   11  C   UNL     1      43.096  -7.990  11.913  1.00  0.00     0.013 A 
HETATM   12  C   UNL     1      41.146  -9.148  13.510  1.00  0.00     0.012 A 
HETATM   13  C   UNL     1      39.802  -9.659  11.560  1.00  0.00     0.012 A 
HETATM   14  C   UNL     1      42.290  -8.616  14.098  1.00  0.00     0.001 A 
HETATM   15  C   UNL     1      43.266  -8.038  13.300  1.00  0.00     0.001 A 
HETATM   16  C   UNL     1      39.599  -9.648  10.186  1.00  0.00     0.002 A 
HETATM   17  C   UNL     1      40.552  -9.080   9.345  1.00  0.00     0.010 A 
ENDBRANCH   7   8
ENDBRANCH   1   7
BRANCH   3  18
HETATM   18  C   UNL     1      43.876 -12.167   6.923  1.00  0.00     0.254 C 
HETATM   19  N   UNL     1      42.539 -12.266   6.654  1.00  0.00    -0.336 N 
HETATM   20  H   UNL     1      41.879 -11.509   6.743  1.00  0.00     0.164 HD
HETATM   21  O   UNL     1      44.680 -13.068   6.707  1.00  0.00    -0.268 OA
BRANCH  19  22
HETATM   22  C   UNL     1      41.985 -13.446   6.081  1.00  0.00     0.290 C 
BRANCH  22  23
HETATM   23  O   UNL     1      42.116 -14.418   7.089  1.00  0.00    -0.382 OA
HETATM   24  H   UNL     1      42.312 -13.935   7.911  1.00  0.00     0.211 HD
ENDBRANCH  22  23
ENDBRANCH  19  22
ENDBRANCH   3  18
TORSDOF 5
ENDMDL
