MODEL 1
REMARK VINA RESULT:      -8.2      0.000      0.000
REMARK  8 active torsions:
REMARK  status: ('A' for Active; 'I' for Inactive)
REMARK    1  A    between atoms: O_2  and  C_3 
REMARK    2  A    between atoms: C_5  and  O_6 
REMARK    3  A    between atoms: C_8  and  C_9 
REMARK    4  A    between atoms: N_10  and  C_12 
REMARK    5  A    between atoms: C_12  and  C_13 
REMARK       I    between atoms: C_13  and  N_14 
REMARK    6  A    between atoms: N_14  and  C_15 
REMARK    7  A    between atoms: C_16  and  C_17 
REMARK    8  A    between atoms: C_17  and  C_18 
ROOT
HETATM    1  C   UNL     1      40.058 -12.449   6.168  1.00  0.00     0.338 C 
ENDROOT
BRANCH   1   2
HETATM    2  N   UNL     1      40.254 -11.404   5.072  1.00  0.00    -0.054 N 
HETATM    3  C   UNL     1      41.225 -10.239   5.289  1.00  0.00     0.224 C 
HETATM    4  C   UNL     1      40.281  -9.047   5.452  1.00  0.00     0.040 C 
HETATM    5  C   UNL     1      39.229  -9.328   4.397  1.00  0.00     0.030 C 
HETATM    6  C   UNL     1      38.948 -10.811   4.559  1.00  0.00     0.236 C 
HETATM    7  H   UNL     1      40.686 -11.932   4.303  1.00  0.00     0.281 HD
BRANCH   3   8
HETATM    8  C   UNL     1      42.347 -10.434   6.280  1.00  0.00     0.006 A 
HETATM    9  C   UNL     1      43.368 -11.377   6.022  1.00  0.00     0.079 A 
HETATM   10  C   UNL     1      44.396 -11.586   6.952  1.00  0.00     0.074 A 
HETATM   11  C   UNL     1      44.445 -10.835   8.125  1.00  0.00     0.070 A 
HETATM   12  C   UNL     1      43.488  -9.848   8.346  1.00  0.00     0.037 A 
HETATM   13  C   UNL     1      42.447  -9.648   7.438  1.00  0.00     0.015 A 
BRANCH   9  14
HETATM   14  O   UNL     1      43.241 -12.070   4.840  1.00  0.00    -0.355 OA
HETATM   15  C   UNL     1      44.059 -11.652   3.745  1.00  0.00     0.210 C 
ENDBRANCH   9  14
BRANCH  11  16
HETATM   16  O   UNL     1      45.372 -10.954   9.120  1.00  0.00    -0.356 OA
HETATM   17  C   UNL     1      45.202 -10.140  10.275  1.00  0.00     0.210 C 
ENDBRANCH  11  16
ENDBRANCH   3   8
ENDBRANCH   1   2
BRANCH   1  18
HETATM   18  C   UNL     1      40.366 -13.908   5.818  1.00  0.00     0.248 C 
HETATM   19  N   UNL     1      41.137 -14.062   4.688  1.00  0.00    -0.325 N 
HETATM   20  H   UNL     1      41.211 -13.235   4.107  1.00  0.00     0.169 HD
HETATM   21  O   UNL     1      39.898 -14.781   6.536  1.00  0.00    -0.271 OA
BRANCH  19  22
HETATM   22  C   UNL     1      41.713 -15.210   4.083  1.00  0.00     0.041 A 
HETATM   23  C   UNL     1      41.284 -15.942   2.957  1.00  0.00    -0.027 A 
HETATM   24  C   UNL     1      42.041 -17.081   2.570  1.00  0.00     0.010 A 
HETATM   25  C   UNL     1      43.174 -17.500   3.263  1.00  0.00     0.001 A 
HETATM   26  C   UNL     1      43.589 -16.786   4.369  1.00  0.00     0.002 A 
HETATM   27  C   UNL     1      42.868 -15.661   4.767  1.00  0.00     0.030 A 
BRANCH  23  28
HETATM   28  C   UNL     1      40.070 -15.679   2.087  1.00  0.00     0.079 C 
BRANCH  28  29
HETATM   29  C   UNL     1      40.260 -14.750   0.903  1.00  0.00    -0.054 A 
HETATM   30  C   UNL     1      39.663 -15.083  -0.325  1.00  0.00     0.007 A 
HETATM   31  C   UNL     1      39.709 -14.205  -1.408  1.00  0.00     0.001 A 
HETATM   32  C   UNL     1      40.341 -12.973  -1.276  1.00  0.00     0.000 A 
HETATM   33  C   UNL     1      40.929 -12.621  -0.062  1.00  0.00     0.001 A 
HETATM   34  C   UNL     1      40.885 -13.501   1.022  1.00  0.00     0.007 A 
ENDBRANCH  28  29
ENDBRANCH  23  28
ENDBRANCH  19  22
ENDBRANCH   1  18
TORSDOF 8
ENDMDL
MODEL 2
REMARK VINA RESULT:      -8.0      1.748      5.204
REMARK  8 active torsions:
REMARK  status: ('A' for Active; 'I' for Inactive)
REMARK    1  A    between atoms: O_2  and  C_3 
REMARK    2  A    between atoms: C_5  and  O_6 
REMARK    3  A    between atoms: C_8  and  C_9 
REMARK    4  A    between atoms: N_10  and  C_12 
REMARK    5  A    between atoms: C_12  and  C_13 
REMARK       I    between atoms: C_13  and  N_14 
REMARK    6  A    between atoms: N_14  and  C_15 
REMARK    7  A    between atoms: C_16  and  C_17 
REMARK    8  A    between atoms: C_17  and  C_18 
ROOT
HETATM    1  C   UNL     1      43.344 -11.416   4.040  1.00  0.00     0.338 C 
ENDROOT
BRANCH   1   2
HETATM    2  N   UNL     1      43.676 -11.840   5.469  1.00  0.00    -0.054 N 
HETATM    3  C   UNL     1      42.858 -11.289   6.641  1.00  0.00     0.224 C 
HETATM    4  C   UNL     1      43.844 -10.333   7.312  1.00  0.00     0.040 C 
HETATM    5  C   UNL     1      45.142 -11.113   7.240  1.00  0.00     0.030 C 
HETATM    6  C   UNL     1      45.147 -11.667   5.827  1.00  0.00     0.236 C 
HETATM    7  H   UNL     1      43.462 -12.845   5.483  1.00  0.00     0.281 HD
BRANCH   3   8
HETATM    8  C   UNL     1      41.451 -10.819   6.357  1.00  0.00     0.006 A 
HETATM    9  C   UNL     1      40.485 -11.727   5.865  1.00  0.00     0.079 A 
HETATM   10  C   UNL     1      39.185 -11.291   5.569  1.00  0.00     0.074 A 
HETATM   11  C   UNL     1      38.819  -9.966   5.798  1.00  0.00     0.070 A 
HETATM   12  C   UNL     1      39.744  -9.089   6.359  1.00  0.00     0.037 A 
HETATM   13  C   UNL     1      41.047  -9.505   6.636  1.00  0.00     0.015 A 
BRANCH   9  14
HETATM   14  O   UNL     1      40.933 -13.013   5.672  1.00  0.00    -0.355 OA
HETATM   15  C   UNL     1      40.231 -14.058   6.350  1.00  0.00     0.210 C 
ENDBRANCH   9  14
BRANCH  11  16
HETATM   16  O   UNL     1      37.601  -9.409   5.533  1.00  0.00    -0.356 OA
HETATM   17  C   UNL     1      37.584  -8.196   4.788  1.00  0.00     0.210 C 
ENDBRANCH  11  16
ENDBRANCH   3   8
ENDBRANCH   1   2
BRANCH   1  18
HETATM   18  C   UNL     1      43.034 -12.522   3.027  1.00  0.00     0.248 C 
HETATM   19  N   UNL     1      41.716 -12.570   2.637  1.00  0.00    -0.325 N 
HETATM   20  H   UNL     1      41.078 -12.041   3.221  1.00  0.00     0.169 HD
HETATM   21  O   UNL     1      43.950 -13.256   2.681  1.00  0.00    -0.271 OA
BRANCH  19  22
HETATM   22  C   UNL     1      41.042 -13.362   1.669  1.00  0.00     0.041 A 
HETATM   23  C   UNL     1      40.528 -14.671   1.780  1.00  0.00    -0.027 A 
HETATM   24  C   UNL     1      39.911 -15.247   0.637  1.00  0.00     0.010 A 
HETATM   25  C   UNL     1      39.806 -14.575  -0.578  1.00  0.00     0.001 A 
HETATM   26  C   UNL     1      40.314 -13.297  -0.687  1.00  0.00     0.002 A 
HETATM   27  C   UNL     1      40.920 -12.705   0.421  1.00  0.00     0.030 A 
BRANCH  23  28
HETATM   28  C   UNL     1      40.567 -15.583   2.991  1.00  0.00     0.079 C 
BRANCH  28  29
HETATM   29  C   UNL     1      41.829 -16.397   3.199  1.00  0.00    -0.054 A 
HETATM   30  C   UNL     1      42.541 -16.253   4.402  1.00  0.00     0.007 A 
HETATM   31  C   UNL     1      43.639 -17.064   4.691  1.00  0.00     0.001 A 
HETATM   32  C   UNL     1      44.033 -18.044   3.785  1.00  0.00     0.000 A 
HETATM   33  C   UNL     1      43.333 -18.209   2.592  1.00  0.00     0.001 A 
HETATM   34  C   UNL     1      42.235 -17.395   2.302  1.00  0.00     0.007 A 
ENDBRANCH  28  29
ENDBRANCH  23  28
ENDBRANCH  19  22
ENDBRANCH   1  18
TORSDOF 8
ENDMDL
MODEL 3
REMARK VINA RESULT:      -8.0      2.571      5.736
REMARK  8 active torsions:
REMARK  status: ('A' for Active; 'I' for Inactive)
REMARK    1  A    between atoms: O_2  and  C_3 
REMARK    2  A    between atoms: C_5  and  O_6 
REMARK    3  A    between atoms: C_8  and  C_9 
REMARK    4  A    between atoms: N_10  and  C_12 
REMARK    5  A    between atoms: C_12  and  C_13 
REMARK       I    between atoms: C_13  and  N_14 
REMARK    6  A    between atoms: N_14  and  C_15 
REMARK    7  A    between atoms: C_16  and  C_17 
REMARK    8  A    between atoms: C_17  and  C_18 
ROOT
HETATM    1  C   UNL     1      39.965 -15.026   0.667  1.00  0.00     0.338 C 
ENDROOT
BRANCH   1   2
HETATM    2  N   UNL     1      39.992 -14.043  -0.502  1.00  0.00    -0.054 N 
HETATM    3  C   UNL     1      39.633 -12.571  -0.274  1.00  0.00     0.224 C 
HETATM    4  C   UNL     1      38.272 -12.453  -0.960  1.00  0.00     0.040 C 
HETATM    5  C   UNL     1      38.474 -13.281  -2.214  1.00  0.00     0.030 C 
HETATM    6  C   UNL     1      39.197 -14.518  -1.712  1.00  0.00     0.236 C 
HETATM    7  H   UNL     1      40.984 -14.006  -0.770  1.00  0.00     0.281 HD
BRANCH   3   8
HETATM    8  C   UNL     1      39.811 -12.011   1.117  1.00  0.00     0.006 A 
HETATM    9  C   UNL     1      40.819 -11.053   1.373  1.00  0.00     0.079 A 
HETATM   10  C   UNL     1      41.011 -10.552   2.669  1.00  0.00     0.074 A 
HETATM   11  C   UNL     1      40.181 -10.963   3.711  1.00  0.00     0.070 A 
HETATM   12  C   UNL     1      39.137 -11.844   3.446  1.00  0.00     0.037 A 
HETATM   13  C   UNL     1      38.951 -12.367   2.166  1.00  0.00     0.015 A 
BRANCH   9  14
HETATM   14  O   UNL     1      41.587 -10.705   0.286  1.00  0.00    -0.355 OA
HETATM   15  C   UNL     1      41.573  -9.332  -0.111  1.00  0.00     0.210 C 
ENDBRANCH   9  14
BRANCH  11  16
HETATM   16  O   UNL     1      40.275 -10.574   5.016  1.00  0.00    -0.356 OA
HETATM   17  C   UNL     1      40.160 -11.585   6.011  1.00  0.00     0.210 C 
ENDBRANCH  11  16
ENDBRANCH   3   8
ENDBRANCH   1   2
BRANCH   1  18
HETATM   18  C   UNL     1      41.276 -15.260   1.424  1.00  0.00     0.248 C 
HETATM   19  N   UNL     1      41.236 -16.324   2.295  1.00  0.00    -0.325 N 
HETATM   20  H   UNL     1      40.306 -16.672   2.503  1.00  0.00     0.169 HD
HETATM   21  O   UNL     1      42.206 -14.494   1.212  1.00  0.00    -0.271 OA
BRANCH  19  22
HETATM   22  C   UNL     1      42.237 -16.928   3.102  1.00  0.00     0.041 A 
HETATM   23  C   UNL     1      42.623 -16.631   4.425  1.00  0.00    -0.027 A 
HETATM   24  C   UNL     1      43.686 -17.383   4.997  1.00  0.00     0.010 A 
HETATM   25  C   UNL     1      44.357 -18.383   4.300  1.00  0.00     0.001 A 
HETATM   26  C   UNL     1      43.983 -18.668   3.003  1.00  0.00     0.002 A 
HETATM   27  C   UNL     1      42.940 -17.950   2.419  1.00  0.00     0.030 A 
BRANCH  23  28
HETATM   28  C   UNL     1      42.050 -15.568   5.343  1.00  0.00     0.079 C 
BRANCH  28  29
HETATM   29  C   UNL     1      42.864 -14.301   5.520  1.00  0.00    -0.054 A 
HETATM   30  C   UNL     1      42.962 -13.400   4.446  1.00  0.00     0.007 A 
HETATM   31  C   UNL     1      43.599 -12.168   4.596  1.00  0.00     0.001 A 
HETATM   32  C   UNL     1      44.134 -11.810   5.829  1.00  0.00     0.000 A 
HETATM   33  C   UNL     1      44.038 -12.686   6.909  1.00  0.00     0.001 A 
HETATM   34  C   UNL     1      43.402 -13.922   6.757  1.00  0.00     0.007 A 
ENDBRANCH  28  29
ENDBRANCH  23  28
ENDBRANCH  19  22
ENDBRANCH   1  18
TORSDOF 8
ENDMDL
MODEL 4
REMARK VINA RESULT:      -7.9      1.931      6.822
REMARK  8 active torsions:
REMARK  status: ('A' for Active; 'I' for Inactive)
REMARK    1  A    between atoms: O_2  and  C_3 
REMARK    2  A    between atoms: C_5  and  O_6 
REMARK    3  A    between atoms: C_8  and  C_9 
REMARK    4  A    between atoms: N_10  and  C_12 
REMARK    5  A    between atoms: C_12  and  C_13 
REMARK       I    between atoms: C_13  and  N_14 
REMARK    6  A    between atoms: N_14  and  C_15 
REMARK    7  A    between atoms: C_16  and  C_17 
REMARK    8  A    between atoms: C_17  and  C_18 
ROOT
HETATM    1  C   UNL     1      43.083 -13.432   2.853  1.00  0.00     0.338 C 
ENDROOT
BRANCH   1   2
HETATM    2  N   UNL     1      41.607 -13.789   2.691  1.00  0.00    -0.054 N 
HETATM    3  C   UNL     1      41.184 -15.255   2.554  1.00  0.00     0.224 C 
HETATM    4  C   UNL     1      40.770 -15.344   1.085  1.00  0.00     0.040 C 
HETATM    5  C   UNL     1      40.030 -14.036   0.884  1.00  0.00     0.030 C 
HETATM    6  C   UNL     1      40.915 -13.015   1.576  1.00  0.00     0.236 C 
HETATM    7  H   UNL     1      41.186 -13.504   3.584  1.00  0.00     0.281 HD
BRANCH   3   8
HETATM    8  C   UNL     1      42.102 -16.308   3.128  1.00  0.00     0.006 A 
HETATM    9  C   UNL     1      42.242 -16.441   4.529  1.00  0.00     0.079 A 
HETATM   10  C   UNL     1      43.116 -17.396   5.069  1.00  0.00     0.074 A 
HETATM   11  C   UNL     1      43.825 -18.253   4.229  1.00  0.00     0.070 A 
HETATM   12  C   UNL     1      43.628 -18.180   2.853  1.00  0.00     0.037 A 
HETATM   13  C   UNL     1      42.779 -17.219   2.303  1.00  0.00     0.015 A 
BRANCH   9  14
HETATM   14  O   UNL     1      41.503 -15.556   5.279  1.00  0.00    -0.355 OA
HETATM   15  C   UNL     1      41.489 -15.751   6.695  1.00  0.00     0.210 C 
ENDBRANCH   9  14
BRANCH  11  16
HETATM   16  O   UNL     1      44.721 -19.206   4.621  1.00  0.00    -0.356 OA
HETATM   17  C   UNL     1      44.201 -20.462   5.043  1.00  0.00     0.210 C 
ENDBRANCH  11  16
ENDBRANCH   3   8
ENDBRANCH   1   2
BRANCH   1  18
HETATM   18  C   UNL     1      43.423 -12.189   3.681  1.00  0.00     0.248 C 
HETATM   19  N   UNL     1      43.483 -12.418   5.036  1.00  0.00    -0.325 N 
HETATM   20  H   UNL     1      43.077 -13.297   5.339  1.00  0.00     0.169 HD
HETATM   21  O   UNL     1      43.587 -11.131   3.087  1.00  0.00    -0.271 OA
BRANCH  19  22
HETATM   22  C   UNL     1      43.849 -11.582   6.124  1.00  0.00     0.041 A 
HETATM   23  C   UNL     1      43.039 -10.774   6.948  1.00  0.00    -0.027 A 
HETATM   24  C   UNL     1      43.672 -10.007   7.965  1.00  0.00     0.010 A 
HETATM   25  C   UNL     1      45.050 -10.020   8.166  1.00  0.00     0.001 A 
HETATM   26  C   UNL     1      45.842 -10.806   7.355  1.00  0.00     0.002 A 
HETATM   27  C   UNL     1      45.247 -11.573   6.353  1.00  0.00     0.030 A 
BRANCH  23  28
HETATM   28  C   UNL     1      41.535 -10.592   6.879  1.00  0.00     0.079 C 
BRANCH  28  29
HETATM   29  C   UNL     1      40.964 -10.083   5.569  1.00  0.00    -0.054 A 
HETATM   30  C   UNL     1      41.513  -8.926   4.992  1.00  0.00     0.007 A 
HETATM   31  C   UNL     1      41.103  -8.485   3.733  1.00  0.00     0.001 A 
HETATM   32  C   UNL     1      40.145  -9.205   3.025  1.00  0.00     0.000 A 
HETATM   33  C   UNL     1      39.597 -10.361   3.578  1.00  0.00     0.001 A 
HETATM   34  C   UNL     1      40.007 -10.801   4.839  1.00  0.00     0.007 A 
ENDBRANCH  28  29
ENDBRANCH  23  28
ENDBRANCH  19  22
ENDBRANCH   1  18
TORSDOF 8
ENDMDL
MODEL 5
REMARK VINA RESULT:      -7.7      1.843      8.032
REMARK  8 active torsions:
REMARK  status: ('A' for Active; 'I' for Inactive)
REMARK    1  A    between atoms: O_2  and  C_3 
REMARK    2  A    between atoms: C_5  and  O_6 
REMARK    3  A    between atoms: C_8  and  C_9 
REMARK    4  A    between atoms: N_10  and  C_12 
REMARK    5  A    between atoms: C_12  and  C_13 
REMARK       I    between atoms: C_13  and  N_14 
REMARK    6  A    between atoms: N_14  and  C_15 
REMARK    7  A    between atoms: C_16  and  C_17 
REMARK    8  A    between atoms: C_17  and  C_18 
ROOT
HETATM    1  C   UNL     1      43.017 -13.187   2.630  1.00  0.00     0.338 C 
ENDROOT
BRANCH   1   2
HETATM    2  N   UNL     1      41.552 -13.564   2.420  1.00  0.00    -0.054 N 
HETATM    3  C   UNL     1      41.149 -15.038   2.314  1.00  0.00     0.224 C 
HETATM    4  C   UNL     1      40.796 -15.179   0.832  1.00  0.00     0.040 C 
HETATM    5  C   UNL     1      40.054 -13.886   0.558  1.00  0.00     0.030 C 
HETATM    6  C   UNL     1      40.899 -12.834   1.252  1.00  0.00     0.236 C 
HETATM    7  H   UNL     1      41.092 -13.255   3.285  1.00  0.00     0.281 HD
BRANCH   3   8
HETATM    8  C   UNL     1      42.051 -16.063   2.959  1.00  0.00     0.006 A 
HETATM    9  C   UNL     1      42.102 -16.178   4.367  1.00  0.00     0.079 A 
HETATM   10  C   UNL     1      42.961 -17.105   4.974  1.00  0.00     0.074 A 
HETATM   11  C   UNL     1      43.745 -17.953   4.193  1.00  0.00     0.070 A 
HETATM   12  C   UNL     1      43.638 -17.898   2.806  1.00  0.00     0.037 A 
HETATM   13  C   UNL     1      42.803 -16.964   2.191  1.00  0.00     0.015 A 
BRANCH   9  14
HETATM   14  O   UNL     1      41.293 -15.305   5.057  1.00  0.00    -0.355 OA
HETATM   15  C   UNL     1      41.924 -14.439   6.003  1.00  0.00     0.210 C 
ENDBRANCH   9  14
BRANCH  11  16
HETATM   16  O   UNL     1      44.636 -18.879   4.654  1.00  0.00    -0.356 OA
HETATM   17  C   UNL     1      44.166 -20.212   4.828  1.00  0.00     0.210 C 
ENDBRANCH  11  16
ENDBRANCH   3   8
ENDBRANCH   1   2
BRANCH   1  18
HETATM   18  C   UNL     1      43.311 -11.904   3.414  1.00  0.00     0.248 C 
HETATM   19  N   UNL     1      42.205 -11.349   4.014  1.00  0.00    -0.325 N 
HETATM   20  H   UNL     1      41.316 -11.707   3.685  1.00  0.00     0.169 HD
HETATM   21  O   UNL     1      44.462 -11.487   3.421  1.00  0.00    -0.271 OA
BRANCH  19  22
HETATM   22  C   UNL     1      42.057 -10.240   4.890  1.00  0.00     0.041 A 
HETATM   23  C   UNL     1      42.444 -10.103   6.238  1.00  0.00    -0.027 A 
HETATM   24  C   UNL     1      42.154  -8.878   6.898  1.00  0.00     0.010 A 
HETATM   25  C   UNL     1      41.498  -7.823   6.267  1.00  0.00     0.001 A 
HETATM   26  C   UNL     1      41.114  -7.961   4.949  1.00  0.00     0.002 A 
HETATM   27  C   UNL     1      41.392  -9.150   4.276  1.00  0.00     0.030 A 
BRANCH  23  28
HETATM   28  C   UNL     1      43.134 -11.131   7.114  1.00  0.00     0.079 C 
BRANCH  28  29
HETATM   29  C   UNL     1      44.043 -10.604   8.208  1.00  0.00    -0.054 A 
HETATM   30  C   UNL     1      45.240  -9.964   7.846  1.00  0.00     0.007 A 
HETATM   31  C   UNL     1      46.051  -9.359   8.807  1.00  0.00     0.001 A 
HETATM   32  C   UNL     1      45.669  -9.373  10.145  1.00  0.00     0.000 A 
HETATM   33  C   UNL     1      44.480  -9.995  10.521  1.00  0.00     0.001 A 
HETATM   34  C   UNL     1      43.669 -10.603   9.558  1.00  0.00     0.007 A 
ENDBRANCH  28  29
ENDBRANCH  23  28
ENDBRANCH  19  22
ENDBRANCH   1  18
TORSDOF 8
ENDMDL
MODEL 6
REMARK VINA RESULT:      -7.7      2.927      5.671
REMARK  8 active torsions:
REMARK  status: ('A' for Active; 'I' for Inactive)
REMARK    1  A    between atoms: O_2  and  C_3 
REMARK    2  A    between atoms: C_5  and  O_6 
REMARK    3  A    between atoms: C_8  and  C_9 
REMARK    4  A    between atoms: N_10  and  C_12 
REMARK    5  A    between atoms: C_12  and  C_13 
REMARK       I    between atoms: C_13  and  N_14 
REMARK    6  A    between atoms: N_14  and  C_15 
REMARK    7  A    between atoms: C_16  and  C_17 
REMARK    8  A    between atoms: C_17  and  C_18 
ROOT
HETATM    1  C   UNL     1      39.827 -14.327   0.938  1.00  0.00     0.338 C 
ENDROOT
BRANCH   1   2
HETATM    2  N   UNL     1      40.789 -13.473   0.113  1.00  0.00    -0.054 N 
HETATM    3  C   UNL     1      40.871 -11.963   0.353  1.00  0.00     0.224 C 
HETATM    4  C   UNL     1      40.205 -11.392  -0.900  1.00  0.00     0.040 C 
HETATM    5  C   UNL     1      40.753 -12.293  -1.989  1.00  0.00     0.030 C 
HETATM    6  C   UNL     1      40.647 -13.683  -1.390  1.00  0.00     0.236 C 
HETATM    7  H   UNL     1      41.718 -13.809   0.394  1.00  0.00     0.281 HD
BRANCH   3   8
HETATM    8  C   UNL     1      40.461 -11.443   1.710  1.00  0.00     0.006 A 
HETATM    9  C   UNL     1      41.353 -11.528   2.803  1.00  0.00     0.079 A 
HETATM   10  C   UNL     1      40.968 -11.076   4.073  1.00  0.00     0.074 A 
HETATM   11  C   UNL     1      39.713 -10.499   4.263  1.00  0.00     0.070 A 
HETATM   12  C   UNL     1      38.863 -10.339   3.172  1.00  0.00     0.037 A 
HETATM   13  C   UNL     1      39.227 -10.806   1.908  1.00  0.00     0.015 A 
BRANCH   9  14
HETATM   14  O   UNL     1      42.569 -12.109   2.524  1.00  0.00    -0.355 OA
HETATM   15  C   UNL     1      43.601 -11.967   3.501  1.00  0.00     0.210 C 
ENDBRANCH   9  14
BRANCH  11  16
HETATM   16  O   UNL     1      39.207 -10.043   5.445  1.00  0.00    -0.356 OA
HETATM   17  C   UNL     1      38.604  -8.753   5.446  1.00  0.00     0.210 C 
ENDBRANCH  11  16
ENDBRANCH   3   8
ENDBRANCH   1   2
BRANCH   1  18
HETATM   18  C   UNL     1      40.437 -15.300   1.952  1.00  0.00     0.248 C 
HETATM   19  N   UNL     1      40.835 -14.707   3.128  1.00  0.00    -0.325 N 
HETATM   20  H   UNL     1      40.893 -13.695   3.097  1.00  0.00     0.169 HD
HETATM   21  O   UNL     1      40.535 -16.477   1.630  1.00  0.00    -0.271 OA
BRANCH  19  22
HETATM   22  C   UNL     1      41.349 -15.248   4.337  1.00  0.00     0.041 A 
HETATM   23  C   UNL     1      42.499 -16.034   4.550  1.00  0.00    -0.027 A 
HETATM   24  C   UNL     1      42.777 -16.470   5.874  1.00  0.00     0.010 A 
HETATM   25  C   UNL     1      41.954 -16.159   6.954  1.00  0.00     0.001 A 
HETATM   26  C   UNL     1      40.825 -15.395   6.742  1.00  0.00     0.002 A 
HETATM   27  C   UNL     1      40.532 -14.949   5.454  1.00  0.00     0.030 A 
BRANCH  23  28
HETATM   28  C   UNL     1      43.503 -16.509   3.517  1.00  0.00     0.079 C 
BRANCH  28  29
HETATM   29  C   UNL     1      43.651 -18.008   3.340  1.00  0.00    -0.054 A 
HETATM   30  C   UNL     1      44.202 -18.765   4.387  1.00  0.00     0.007 A 
HETATM   31  C   UNL     1      44.251 -20.158   4.320  1.00  0.00     0.001 A 
HETATM   32  C   UNL     1      43.734 -20.817   3.209  1.00  0.00     0.000 A 
HETATM   33  C   UNL     1      43.174 -20.083   2.165  1.00  0.00     0.001 A 
HETATM   34  C   UNL     1      43.128 -18.688   2.231  1.00  0.00     0.007 A 
ENDBRANCH  28  29
ENDBRANCH  23  28
ENDBRANCH  19  22
ENDBRANCH   1  18
TORSDOF 8
ENDMDL
MODEL 7
REMARK VINA RESULT:      -7.6      1.799      4.580
REMARK  8 active torsions:
REMARK  status: ('A' for Active; 'I' for Inactive)
REMARK    1  A    between atoms: O_2  and  C_3 
REMARK    2  A    between atoms: C_5  and  O_6 
REMARK    3  A    between atoms: C_8  and  C_9 
REMARK    4  A    between atoms: N_10  and  C_12 
REMARK    5  A    between atoms: C_12  and  C_13 
REMARK       I    between atoms: C_13  and  N_14 
REMARK    6  A    between atoms: N_14  and  C_15 
REMARK    7  A    between atoms: C_16  and  C_17 
REMARK    8  A    between atoms: C_17  and  C_18 
ROOT
HETATM    1  C   UNL     1      42.427 -10.452   3.779  1.00  0.00     0.338 C 
ENDROOT
BRANCH   1   2
HETATM    2  N   UNL     1      41.224 -10.342   4.715  1.00  0.00    -0.054 N 
HETATM    3  C   UNL     1      40.755 -11.568   5.505  1.00  0.00     0.224 C 
HETATM    4  C   UNL     1      39.444 -11.930   4.806  1.00  0.00     0.040 C 
HETATM    5  C   UNL     1      38.829 -10.567   4.558  1.00  0.00     0.030 C 
HETATM    6  C   UNL     1      39.994  -9.736   4.053  1.00  0.00     0.236 C 
HETATM    7  H   UNL     1      41.542  -9.696   5.448  1.00  0.00     0.281 HD
BRANCH   3   8
HETATM    8  C   UNL     1      41.766 -12.653   5.787  1.00  0.00     0.006 A 
HETATM    9  C   UNL     1      42.891 -12.382   6.600  1.00  0.00     0.079 A 
HETATM   10  C   UNL     1      43.851 -13.375   6.840  1.00  0.00     0.074 A 
HETATM   11  C   UNL     1      43.684 -14.655   6.314  1.00  0.00     0.070 A 
HETATM   12  C   UNL     1      42.537 -14.949   5.581  1.00  0.00     0.037 A 
HETATM   13  C   UNL     1      41.587 -13.962   5.316  1.00  0.00     0.015 A 
BRANCH   9  14
HETATM   14  O   UNL     1      42.973 -11.094   7.078  1.00  0.00    -0.355 OA
HETATM   15  C   UNL     1      44.194 -10.708   7.711  1.00  0.00     0.210 C 
ENDBRANCH   9  14
BRANCH  11  16
HETATM   16  O   UNL     1      44.550 -15.702   6.451  1.00  0.00    -0.356 OA
HETATM   17  C   UNL     1      44.240 -16.904   5.755  1.00  0.00     0.210 C 
ENDBRANCH  11  16
ENDBRANCH   3   8
ENDBRANCH   1   2
BRANCH   1  18
HETATM   18  C   UNL     1      42.354 -11.487   2.652  1.00  0.00     0.248 C 
HETATM   19  N   UNL     1      41.319 -11.281   1.769  1.00  0.00    -0.325 N 
HETATM   20  H   UNL     1      40.609 -10.631   2.088  1.00  0.00     0.169 HD
HETATM   21  O   UNL     1      43.181 -12.389   2.647  1.00  0.00    -0.271 OA
BRANCH  19  22
HETATM   22  C   UNL     1      40.959 -11.936   0.561  1.00  0.00     0.041 A 
HETATM   23  C   UNL     1      40.452 -13.236   0.362  1.00  0.00    -0.027 A 
HETATM   24  C   UNL     1      40.194 -13.657  -0.971  1.00  0.00     0.010 A 
HETATM   25  C   UNL     1      40.430 -12.842  -2.075  1.00  0.00     0.001 A 
HETATM   26  C   UNL     1      40.932 -11.572  -1.878  1.00  0.00     0.002 A 
HETATM   27  C   UNL     1      41.190 -11.131  -0.581  1.00  0.00     0.030 A 
BRANCH  23  28
HETATM   28  C   UNL     1      40.156 -14.288   1.414  1.00  0.00     0.079 C 
BRANCH  28  29
HETATM   29  C   UNL     1      41.283 -15.235   1.776  1.00  0.00    -0.054 A 
HETATM   30  C   UNL     1      40.982 -16.407   2.491  1.00  0.00     0.007 A 
HETATM   31  C   UNL     1      41.963 -17.367   2.745  1.00  0.00     0.001 A 
HETATM   32  C   UNL     1      43.258 -17.175   2.274  1.00  0.00     0.000 A 
HETATM   33  C   UNL     1      43.572 -16.024   1.555  1.00  0.00     0.001 A 
HETATM   34  C   UNL     1      42.590 -15.062   1.303  1.00  0.00     0.007 A 
ENDBRANCH  28  29
ENDBRANCH  23  28
ENDBRANCH  19  22
ENDBRANCH   1  18
TORSDOF 8
ENDMDL
MODEL 8
REMARK VINA RESULT:      -7.6      2.621      6.596
REMARK  8 active torsions:
REMARK  status: ('A' for Active; 'I' for Inactive)
REMARK    1  A    between atoms: O_2  and  C_3 
REMARK    2  A    between atoms: C_5  and  O_6 
REMARK    3  A    between atoms: C_8  and  C_9 
REMARK    4  A    between atoms: N_10  and  C_12 
REMARK    5  A    between atoms: C_12  and  C_13 
REMARK       I    between atoms: C_13  and  N_14 
REMARK    6  A    between atoms: N_14  and  C_15 
REMARK    7  A    between atoms: C_16  and  C_17 
REMARK    8  A    between atoms: C_17  and  C_18 
ROOT
HETATM    1  C   UNL     1      39.743 -12.728   4.290  1.00  0.00     0.338 C 
ENDROOT
BRANCH   1   2
HETATM    2  N   UNL     1      40.608 -11.544   3.860  1.00  0.00    -0.054 N 
HETATM    3  C   UNL     1      41.355 -11.588   2.524  1.00  0.00     0.224 C 
HETATM    4  C   UNL     1      42.811 -11.747   2.964  1.00  0.00     0.040 C 
HETATM    5  C   UNL     1      42.887 -10.814   4.156  1.00  0.00     0.030 C 
HETATM    6  C   UNL     1      41.610 -11.109   4.922  1.00  0.00     0.236 C 
HETATM    7  H   UNL     1      39.933 -10.781   3.729  1.00  0.00     0.281 HD
BRANCH   3   8
HETATM    8  C   UNL     1      40.808 -12.486   1.440  1.00  0.00     0.006 A 
HETATM    9  C   UNL     1      39.982 -11.953   0.424  1.00  0.00     0.079 A 
HETATM   10  C   UNL     1      39.445 -12.786  -0.567  1.00  0.00     0.074 A 
HETATM   11  C   UNL     1      39.753 -14.146  -0.584  1.00  0.00     0.070 A 
HETATM   12  C   UNL     1      40.631 -14.660   0.367  1.00  0.00     0.037 A 
HETATM   13  C   UNL     1      41.153 -13.844   1.371  1.00  0.00     0.015 A 
BRANCH   9  14
HETATM   14  O   UNL     1      39.734 -10.603   0.519  1.00  0.00    -0.355 OA
HETATM   15  C   UNL     1      39.812  -9.838  -0.686  1.00  0.00     0.210 C 
ENDBRANCH   9  14
BRANCH  11  16
HETATM   16  O   UNL     1      39.281 -15.068  -1.474  1.00  0.00    -0.356 OA
HETATM   17  C   UNL     1      38.556 -14.582  -2.598  1.00  0.00     0.210 C 
ENDBRANCH  11  16
ENDBRANCH   3   8
ENDBRANCH   1   2
BRANCH   1  18
HETATM   18  C   UNL     1      40.319 -13.680   5.342  1.00  0.00     0.248 C 
HETATM   19  N   UNL     1      41.487 -14.298   4.958  1.00  0.00    -0.325 N 
HETATM   20  H   UNL     1      41.697 -14.235   3.969  1.00  0.00     0.169 HD
HETATM   21  O   UNL     1      39.701 -13.820   6.389  1.00  0.00    -0.271 OA
BRANCH  19  22
HETATM   22  C   UNL     1      42.376 -15.160   5.654  1.00  0.00     0.041 A 
HETATM   23  C   UNL     1      43.230 -16.163   5.151  1.00  0.00    -0.027 A 
HETATM   24  C   UNL     1      44.009 -16.907   6.079  1.00  0.00     0.010 A 
HETATM   25  C   UNL     1      43.950 -16.687   7.453  1.00  0.00     0.001 A 
HETATM   26  C   UNL     1      43.110 -15.709   7.944  1.00  0.00     0.002 A 
HETATM   27  C   UNL     1      42.339 -14.961   7.055  1.00  0.00     0.030 A 
BRANCH  23  28
HETATM   28  C   UNL     1      43.418 -16.582   3.706  1.00  0.00     0.079 C 
BRANCH  28  29
HETATM   29  C   UNL     1      43.605 -18.063   3.438  1.00  0.00    -0.054 A 
HETATM   30  C   UNL     1      44.033 -18.896   4.486  1.00  0.00     0.007 A 
HETATM   31  C   UNL     1      44.105 -20.279   4.322  1.00  0.00     0.001 A 
HETATM   32  C   UNL     1      43.736 -20.854   3.110  1.00  0.00     0.000 A 
HETATM   33  C   UNL     1      43.300 -20.045   2.062  1.00  0.00     0.001 A 
HETATM   34  C   UNL     1      43.229 -18.659   2.226  1.00  0.00     0.007 A 
ENDBRANCH  28  29
ENDBRANCH  23  28
ENDBRANCH  19  22
ENDBRANCH   1  18
TORSDOF 8
ENDMDL
MODEL 9
REMARK VINA RESULT:      -7.6      3.327      8.179
REMARK  8 active torsions:
REMARK  status: ('A' for Active; 'I' for Inactive)
REMARK    1  A    between atoms: O_2  and  C_3 
REMARK    2  A    between atoms: C_5  and  O_6 
REMARK    3  A    between atoms: C_8  and  C_9 
REMARK    4  A    between atoms: N_10  and  C_12 
REMARK    5  A    between atoms: C_12  and  C_13 
REMARK       I    between atoms: C_13  and  N_14 
REMARK    6  A    between atoms: N_14  and  C_15 
REMARK    7  A    between atoms: C_16  and  C_17 
REMARK    8  A    between atoms: C_17  and  C_18 
ROOT
HETATM    1  C   UNL     1      39.354 -10.090   7.682  1.00  0.00     0.338 C 
ENDROOT
BRANCH   1   2
HETATM    2  N   UNL     1      39.836  -9.156   6.574  1.00  0.00    -0.054 N 
HETATM    3  C   UNL     1      41.270  -9.270   6.047  1.00  0.00     0.224 C 
HETATM    4  C   UNL     1      41.928  -8.006   6.603  1.00  0.00     0.040 C 
HETATM    5  C   UNL     1      40.839  -6.970   6.410  1.00  0.00     0.030 C 
HETATM    6  C   UNL     1      39.581  -7.683   6.869  1.00  0.00     0.236 C 
HETATM    7  H   UNL     1      39.264  -9.421   5.763  1.00  0.00     0.281 HD
BRANCH   3   8
HETATM    8  C   UNL     1      41.972 -10.598   6.200  1.00  0.00     0.006 A 
HETATM    9  C   UNL     1      41.588 -11.701   5.404  1.00  0.00     0.079 A 
HETATM   10  C   UNL     1      42.214 -12.945   5.562  1.00  0.00     0.074 A 
HETATM   11  C   UNL     1      43.253 -13.097   6.479  1.00  0.00     0.070 A 
HETATM   12  C   UNL     1      43.690 -11.993   7.206  1.00  0.00     0.037 A 
HETATM   13  C   UNL     1      43.058 -10.756   7.073  1.00  0.00     0.015 A 
BRANCH   9  14
HETATM   14  O   UNL     1      40.557 -11.459   4.526  1.00  0.00    -0.355 OA
HETATM   15  C   UNL     1      39.465 -12.382   4.529  1.00  0.00     0.210 C 
ENDBRANCH   9  14
BRANCH  11  16
HETATM   16  O   UNL     1      43.928 -14.253   6.748  1.00  0.00    -0.356 OA
HETATM   17  C   UNL     1      43.534 -15.422   6.037  1.00  0.00     0.210 C 
ENDBRANCH  11  16
ENDBRANCH   3   8
ENDBRANCH   1   2
BRANCH   1  18
HETATM   18  C   UNL     1      39.286  -9.525   9.104  1.00  0.00     0.248 C 
HETATM   19  N   UNL     1      40.397  -9.798   9.869  1.00  0.00    -0.325 N 
HETATM   20  H   UNL     1      41.006 -10.516   9.494  1.00  0.00     0.169 HD
HETATM   21  O   UNL     1      38.275  -8.918   9.433  1.00  0.00    -0.271 OA
BRANCH  19  22
HETATM   22  C   UNL     1      40.772  -9.390  11.177  1.00  0.00     0.041 A 
HETATM   23  C   UNL     1      41.734  -8.442  11.579  1.00  0.00    -0.027 A 
HETATM   24  C   UNL     1      41.931  -8.237  12.972  1.00  0.00     0.010 A 
HETATM   25  C   UNL     1      41.220  -8.940  13.941  1.00  0.00     0.001 A 
HETATM   26  C   UNL     1      40.282  -9.871  13.546  1.00  0.00     0.002 A 
HETATM   27  C   UNL     1      40.065 -10.088  12.186  1.00  0.00     0.030 A 
BRANCH  23  28
HETATM   28  C   UNL     1      42.633  -7.599  10.695  1.00  0.00     0.079 C 
BRANCH  28  29
HETATM   29  C   UNL     1      43.872  -8.270  10.133  1.00  0.00    -0.054 A 
HETATM   30  C   UNL     1      44.348  -9.440  10.747  1.00  0.00     0.007 A 
HETATM   31  C   UNL     1      45.411 -10.159  10.199  1.00  0.00     0.001 A 
HETATM   32  C   UNL     1      46.005  -9.725   9.018  1.00  0.00     0.000 A 
HETATM   33  C   UNL     1      45.539  -8.572   8.389  1.00  0.00     0.001 A 
HETATM   34  C   UNL     1      44.475  -7.851   8.940  1.00  0.00     0.007 A 
ENDBRANCH  28  29
ENDBRANCH  23  28
ENDBRANCH  19  22
ENDBRANCH   1  18
TORSDOF 8
ENDMDL
MODEL 10
REMARK VINA RESULT:      -7.6      3.512      6.759
REMARK  8 active torsions:
REMARK  status: ('A' for Active; 'I' for Inactive)
REMARK    1  A    between atoms: O_2  and  C_3 
REMARK    2  A    between atoms: C_5  and  O_6 
REMARK    3  A    between atoms: C_8  and  C_9 
REMARK    4  A    between atoms: N_10  and  C_12 
REMARK    5  A    between atoms: C_12  and  C_13 
REMARK       I    between atoms: C_13  and  N_14 
REMARK    6  A    between atoms: N_14  and  C_15 
REMARK    7  A    between atoms: C_16  and  C_17 
REMARK    8  A    between atoms: C_17  and  C_18 
ROOT
HETATM    1  C   UNL     1      39.651 -14.628   0.283  1.00  0.00     0.338 C 
ENDROOT
BRANCH   1   2
HETATM    2  N   UNL     1      39.793 -13.987  -1.097  1.00  0.00    -0.054 N 
HETATM    3  C   UNL     1      39.138 -12.633  -1.383  1.00  0.00     0.224 C 
HETATM    4  C   UNL     1      37.989 -13.012  -2.317  1.00  0.00     0.040 C 
HETATM    5  C   UNL     1      38.635 -14.052  -3.210  1.00  0.00     0.030 C 
HETATM    6  C   UNL     1      39.416 -14.920  -2.240  1.00  0.00     0.236 C 
HETATM    7  H   UNL     1      40.798 -13.785  -1.171  1.00  0.00     0.281 HD
BRANCH   3   8
HETATM    8  C   UNL     1      38.868 -11.720  -0.211  1.00  0.00     0.006 A 
HETATM    9  C   UNL     1      39.908 -10.930   0.330  1.00  0.00     0.079 A 
HETATM   10  C   UNL     1      39.672 -10.104   1.438  1.00  0.00     0.074 A 
HETATM   11  C   UNL     1      38.396 -10.022   1.994  1.00  0.00     0.070 A 
HETATM   12  C   UNL     1      37.351 -10.737   1.414  1.00  0.00     0.037 A 
HETATM   13  C   UNL     1      37.579 -11.579   0.326  1.00  0.00     0.015 A 
BRANCH   9  14
HETATM   14  O   UNL     1      41.131 -11.072  -0.283  1.00  0.00    -0.355 OA
HETATM   15  C   UNL     1      41.586  -9.988  -1.096  1.00  0.00     0.210 C 
ENDBRANCH   9  14
BRANCH  11  16
HETATM   16  O   UNL     1      38.038  -9.280   3.082  1.00  0.00    -0.356 OA
HETATM   17  C   UNL     1      38.790  -9.464   4.277  1.00  0.00     0.210 C 
ENDBRANCH  11  16
ENDBRANCH   3   8
ENDBRANCH   1   2
BRANCH   1  18
HETATM   18  C   UNL     1      40.805 -14.441   1.272  1.00  0.00     0.248 C 
HETATM   19  N   UNL     1      40.532 -14.894   2.542  1.00  0.00    -0.325 N 
HETATM   20  H   UNL     1      39.552 -15.076   2.729  1.00  0.00     0.169 HD
HETATM   21  O   UNL     1      41.828 -13.905   0.867  1.00  0.00    -0.271 OA
BRANCH  19  22
HETATM   22  C   UNL     1      41.339 -14.994   3.707  1.00  0.00     0.041 A 
HETATM   23  C   UNL     1      42.556 -15.680   3.899  1.00  0.00    -0.027 A 
HETATM   24  C   UNL     1      43.152 -15.637   5.189  1.00  0.00     0.010 A 
HETATM   25  C   UNL     1      42.576 -14.957   6.260  1.00  0.00     0.001 A 
HETATM   26  C   UNL     1      41.382 -14.292   6.071  1.00  0.00     0.002 A 
HETATM   27  C   UNL     1      40.778 -14.313   4.815  1.00  0.00     0.030 A 
BRANCH  23  28
HETATM   28  C   UNL     1      43.329 -16.500   2.885  1.00  0.00     0.079 C 
BRANCH  28  29
HETATM   29  C   UNL     1      43.420 -17.994   3.135  1.00  0.00    -0.054 A 
HETATM   30  C   UNL     1      43.038 -18.878   2.112  1.00  0.00     0.007 A 
HETATM   31  C   UNL     1      43.214 -20.256   2.249  1.00  0.00     0.001 A 
HETATM   32  C   UNL     1      43.791 -20.769   3.406  1.00  0.00     0.000 A 
HETATM   33  C   UNL     1      44.186 -19.906   4.427  1.00  0.00     0.001 A 
HETATM   34  C   UNL     1      44.007 -18.526   4.290  1.00  0.00     0.007 A 
ENDBRANCH  28  29
ENDBRANCH  23  28
ENDBRANCH  19  22
ENDBRANCH   1  18
TORSDOF 8
ENDMDL
