MODEL 1
REMARK VINA RESULT:      -9.4      0.000      0.000
REMARK  6 active torsions:
REMARK  status: ('A' for Active; 'I' for Inactive)
REMARK    1  A    between atoms: C_4  and  C_5 
REMARK    2  A    between atoms: C_6  and  N_7 
REMARK    3  A    between atoms: C_9  and  C_10 
REMARK       I    between atoms: C_10  and  N_11 
REMARK    4  A    between atoms: N_11  and  C_12 
REMARK    5  A    between atoms: C_12  and  C_13 
REMARK    6  A    between atoms: C_13  and  N_14 
ROOT
HETATM    1  C   UNL     1      42.349 -16.041   3.927  1.00  0.00     0.019 A 
HETATM    2  C   UNL     1      42.337 -15.242   5.035  1.00  0.00     0.111 A 
HETATM    3  C   UNL     1      43.000 -15.787   6.313  1.00  0.00     0.273 A 
HETATM    4  O   UNL     1      43.052 -15.150   7.363  1.00  0.00    -0.266 OA
HETATM    5  N   UNL     1      43.563 -17.025   6.276  1.00  0.00    -0.321 N 
HETATM    6  C   UNL     1      43.582 -17.841   5.155  1.00  0.00     0.046 A 
HETATM    7  C   UNL     1      42.996 -17.388   3.972  1.00  0.00     0.006 A 
HETATM    8  C   UNL     1      44.197 -19.093   5.238  1.00  0.00     0.032 A 
HETATM    9  C   UNL     1      44.237 -19.919   4.117  1.00  0.00     0.026 A 
HETATM   10  C   UNL     1      43.663 -19.485   2.927  1.00  0.00     0.035 A 
HETATM   11 CL   UNL     1      43.716 -20.494   1.535  1.00  0.00    -0.084 Cl
HETATM   12  C   UNL     1      43.046 -18.233   2.850  1.00  0.00     0.038 A 
HETATM   13  H   UNL     1      43.973 -17.340   7.147  1.00  0.00     0.169 HD
ENDROOT
BRANCH   2  14
HETATM   14  N   UNL     1      41.741 -13.935   5.100  1.00  0.00    -0.375 N 
HETATM   15  C   UNL     1      42.596 -12.747   5.388  1.00  0.00     0.137 C 
HETATM   16  C   UNL     1      41.917 -11.446   4.955  1.00  0.00     0.096 C 
HETATM   17  C   UNL     1      40.448 -11.342   5.385  1.00  0.00     0.017 C 
HETATM   18  C   UNL     1      39.670 -12.651   5.270  1.00  0.00     0.021 C 
HETATM   19  C   UNL     1      40.464 -13.816   5.848  1.00  0.00     0.123 C 
BRANCH  16  20
HETATM   20  C   UNL     1      42.110 -11.191   3.471  1.00  0.00     0.223 C 
HETATM   21  N   UNL     1      40.985 -10.948   2.732  1.00  0.00    -0.359 N 
HETATM   22  H   UNL     1      40.105 -10.977   3.255  1.00  0.00     0.162 HD
HETATM   23  O   UNL     1      43.222 -11.247   2.942  1.00  0.00    -0.273 OA
BRANCH  21  24
HETATM   24  C   UNL     1      40.932 -10.406   1.377  1.00  0.00     0.150 C 
BRANCH  24  25
HETATM   25  C   UNL     1      39.571 -10.313   0.650  1.00  0.00     0.254 C 
BRANCH  25  26
HETATM   26  N   UNL     1      39.382 -11.369  -0.410  1.00  0.00    -0.066 N 
HETATM   27  H   UNL     1      39.802 -12.216   0.019  1.00  0.00     0.280 HD
HETATM   28  C   UNL     1      37.946 -11.672  -0.780  1.00  0.00     0.261 C 
HETATM   29  C   UNL     1      37.905 -12.798  -1.819  1.00  0.00     0.195 C 
HETATM   30  O   UNL     1      38.682 -12.462  -2.975  1.00  0.00    -0.388 OA
HETATM   31  C   UNL     1      40.060 -12.260  -2.637  1.00  0.00     0.195 C 
HETATM   32  C   UNL     1      40.215 -11.097  -1.651  1.00  0.00     0.261 C 
ENDBRANCH  25  26
ENDBRANCH  24  25
ENDBRANCH  21  24
ENDBRANCH  16  20
ENDBRANCH   2  14
BRANCH   1  33
HETATM   33  C   UNL     1      41.745 -15.535   2.663  1.00  0.00    -0.023 A 
HETATM   34  C   UNL     1      40.477 -15.972   2.263  1.00  0.00     0.012 A 
HETATM   35  C   UNL     1      39.882 -15.451   1.112  1.00  0.00     0.001 A 
HETATM   36  C   UNL     1      40.547 -14.481   0.361  1.00  0.00     0.000 A 
HETATM   37  C   UNL     1      41.796 -14.020   0.767  1.00  0.00     0.001 A 
HETATM   38  C   UNL     1      42.389 -14.535   1.921  1.00  0.00     0.012 A 
ENDBRANCH   1  33
TORSDOF 6
ENDMDL
MODEL 2
REMARK VINA RESULT:      -9.0      1.384      1.713
REMARK  6 active torsions:
REMARK  status: ('A' for Active; 'I' for Inactive)
REMARK    1  A    between atoms: C_4  and  C_5 
REMARK    2  A    between atoms: C_6  and  N_7 
REMARK    3  A    between atoms: C_9  and  C_10 
REMARK       I    between atoms: C_10  and  N_11 
REMARK    4  A    between atoms: N_11  and  C_12 
REMARK    5  A    between atoms: C_12  and  C_13 
REMARK    6  A    between atoms: C_13  and  N_14 
ROOT
HETATM    1  C   UNL     1      42.473 -16.081   3.947  1.00  0.00     0.019 A 
HETATM    2  C   UNL     1      42.541 -15.286   5.055  1.00  0.00     0.111 A 
HETATM    3  C   UNL     1      43.261 -15.851   6.293  1.00  0.00     0.273 A 
HETATM    4  O   UNL     1      43.386 -15.219   7.341  1.00  0.00    -0.266 OA
HETATM    5  N   UNL     1      43.792 -17.102   6.223  1.00  0.00    -0.321 N 
HETATM    6  C   UNL     1      43.729 -17.914   5.101  1.00  0.00     0.046 A 
HETATM    7  C   UNL     1      43.090 -17.443   3.953  1.00  0.00     0.006 A 
HETATM    8  C   UNL     1      44.318 -19.181   5.146  1.00  0.00     0.032 A 
HETATM    9  C   UNL     1      44.276 -20.004   4.023  1.00  0.00     0.026 A 
HETATM   10  C   UNL     1      43.647 -19.551   2.868  1.00  0.00     0.035 A 
HETATM   11 CL   UNL     1      43.600 -20.556   1.473  1.00  0.00    -0.084 Cl
HETATM   12  C   UNL     1      43.057 -18.285   2.828  1.00  0.00     0.038 A 
HETATM   13  H   UNL     1      44.241 -17.429   7.069  1.00  0.00     0.169 HD
ENDROOT
BRANCH   2  14
HETATM   14  N   UNL     1      41.981 -13.966   5.156  1.00  0.00    -0.375 N 
HETATM   15  C   UNL     1      42.865 -12.812   5.492  1.00  0.00     0.137 C 
HETATM   16  C   UNL     1      42.226 -11.479   5.094  1.00  0.00     0.096 C 
HETATM   17  C   UNL     1      40.756 -11.347   5.511  1.00  0.00     0.017 C 
HETATM   18  C   UNL     1      39.944 -12.630   5.346  1.00  0.00     0.021 C 
HETATM   19  C   UNL     1      40.699 -13.835   5.894  1.00  0.00     0.123 C 
BRANCH  16  20
HETATM   20  C   UNL     1      42.444 -11.182   3.620  1.00  0.00     0.223 C 
HETATM   21  N   UNL     1      41.420 -10.567   2.954  1.00  0.00    -0.359 N 
HETATM   22  H   UNL     1      40.585 -10.376   3.517  1.00  0.00     0.162 HD
HETATM   23  O   UNL     1      43.475 -11.522   3.035  1.00  0.00    -0.273 OA
BRANCH  21  24
HETATM   24  C   UNL     1      41.491  -9.934   1.640  1.00  0.00     0.150 C 
BRANCH  24  25
HETATM   25  C   UNL     1      41.030 -10.724   0.393  1.00  0.00     0.254 C 
BRANCH  25  26
HETATM   26  N   UNL     1      41.424 -10.073  -0.910  1.00  0.00    -0.066 N 
HETATM   27  H   UNL     1      42.224 -10.652  -1.233  1.00  0.00     0.280 HD
HETATM   28  C   UNL     1      40.360 -10.071  -1.986  1.00  0.00     0.261 C 
HETATM   29  C   UNL     1      40.917  -9.433  -3.264  1.00  0.00     0.195 C 
HETATM   30  O   UNL     1      41.407  -8.112  -3.010  1.00  0.00    -0.388 OA
HETATM   31  C   UNL     1      42.475  -8.125  -2.056  1.00  0.00     0.195 C 
HETATM   32  C   UNL     1      41.996  -8.680  -0.709  1.00  0.00     0.261 C 
ENDBRANCH  25  26
ENDBRANCH  24  25
ENDBRANCH  21  24
ENDBRANCH  16  20
ENDBRANCH   2  14
BRANCH   1  33
HETATM   33  C   UNL     1      41.812 -15.557   2.720  1.00  0.00    -0.023 A 
HETATM   34  C   UNL     1      40.470 -15.856   2.458  1.00  0.00     0.012 A 
HETATM   35  C   UNL     1      39.830 -15.313   1.341  1.00  0.00     0.001 A 
HETATM   36  C   UNL     1      40.526 -14.459   0.486  1.00  0.00     0.000 A 
HETATM   37  C   UNL     1      41.853 -14.133   0.754  1.00  0.00     0.001 A 
HETATM   38  C   UNL     1      42.491 -14.669   1.873  1.00  0.00     0.012 A 
ENDBRANCH   1  33
TORSDOF 6
ENDMDL
MODEL 3
REMARK VINA RESULT:      -8.9      2.337      3.087
REMARK  6 active torsions:
REMARK  status: ('A' for Active; 'I' for Inactive)
REMARK    1  A    between atoms: C_4  and  C_5 
REMARK    2  A    between atoms: C_6  and  N_7 
REMARK    3  A    between atoms: C_9  and  C_10 
REMARK       I    between atoms: C_10  and  N_11 
REMARK    4  A    between atoms: N_11  and  C_12 
REMARK    5  A    between atoms: C_12  and  C_13 
REMARK    6  A    between atoms: C_13  and  N_14 
ROOT
HETATM    1  C   UNL     1      42.471 -16.348   4.337  1.00  0.00     0.019 A 
HETATM    2  C   UNL     1      42.462 -15.657   5.515  1.00  0.00     0.111 A 
HETATM    3  C   UNL     1      43.063 -16.351   6.751  1.00  0.00     0.273 A 
HETATM    4  O   UNL     1      43.112 -15.819   7.859  1.00  0.00    -0.266 OA
HETATM    5  N   UNL     1      43.573 -17.605   6.610  1.00  0.00    -0.321 N 
HETATM    6  C   UNL     1      43.589 -18.310   5.417  1.00  0.00     0.046 A 
HETATM    7  C   UNL     1      43.058 -17.721   4.269  1.00  0.00     0.006 A 
HETATM    8  C   UNL     1      44.146 -19.592   5.394  1.00  0.00     0.032 A 
HETATM    9  C   UNL     1      44.183 -20.309   4.201  1.00  0.00     0.026 A 
HETATM   10  C   UNL     1      43.663 -19.738   3.044  1.00  0.00     0.035 A 
HETATM   11 CL   UNL     1      43.713 -20.612   1.564  1.00  0.00    -0.084 Cl
HETATM   12  C   UNL     1      43.104 -18.458   3.073  1.00  0.00     0.038 A 
HETATM   13  H   UNL     1      43.943 -18.018   7.457  1.00  0.00     0.169 HD
ENDROOT
BRANCH   2  14
HETATM   14  N   UNL     1      41.921 -14.337   5.691  1.00  0.00    -0.375 N 
HETATM   15  C   UNL     1      42.768 -13.266   6.291  1.00  0.00     0.137 C 
HETATM   16  C   UNL     1      42.227 -11.871   5.967  1.00  0.00     0.096 C 
HETATM   17  C   UNL     1      40.714 -11.731   6.174  1.00  0.00     0.017 C 
HETATM   18  C   UNL     1      39.908 -12.953   5.735  1.00  0.00     0.021 C 
HETATM   19  C   UNL     1      40.544 -14.242   6.240  1.00  0.00     0.123 C 
BRANCH  16  20
HETATM   20  C   UNL     1      42.673 -11.414   4.589  1.00  0.00     0.223 C 
HETATM   21  N   UNL     1      41.736 -11.443   3.593  1.00  0.00    -0.359 N 
HETATM   22  H   UNL     1      40.813 -11.791   3.872  1.00  0.00     0.162 HD
HETATM   23  O   UNL     1      43.837 -11.078   4.361  1.00  0.00    -0.273 OA
BRANCH  21  24
HETATM   24  C   UNL     1      41.834 -10.802   2.285  1.00  0.00     0.150 C 
BRANCH  24  25
HETATM   25  C   UNL     1      40.897  -9.619   1.947  1.00  0.00     0.254 C 
BRANCH  25  26
HETATM   26  N   UNL     1      40.211  -9.032   3.156  1.00  0.00    -0.066 N 
HETATM   27  H   UNL     1      40.740  -9.439   3.952  1.00  0.00     0.280 HD
HETATM   28  C   UNL     1      40.256  -7.523   3.263  1.00  0.00     0.261 C 
HETATM   29  C   UNL     1      39.575  -7.075   4.560  1.00  0.00     0.195 C 
HETATM   30  O   UNL     1      38.230  -7.564   4.633  1.00  0.00    -0.388 OA
HETATM   31  C   UNL     1      38.194  -8.997   4.620  1.00  0.00     0.195 C 
HETATM   32  C   UNL     1      38.791  -9.545   3.319  1.00  0.00     0.261 C 
ENDBRANCH  25  26
ENDBRANCH  24  25
ENDBRANCH  21  24
ENDBRANCH  16  20
ENDBRANCH   2  14
BRANCH   1  33
HETATM   33  C   UNL     1      41.926 -15.698   3.113  1.00  0.00    -0.023 A 
HETATM   34  C   UNL     1      40.575 -15.844   2.778  1.00  0.00     0.012 A 
HETATM   35  C   UNL     1      40.048 -15.183   1.666  1.00  0.00     0.001 A 
HETATM   36  C   UNL     1      40.867 -14.363   0.889  1.00  0.00     0.000 A 
HETATM   37  C   UNL     1      42.206 -14.189   1.231  1.00  0.00     0.001 A 
HETATM   38  C   UNL     1      42.732 -14.844   2.346  1.00  0.00     0.012 A 
ENDBRANCH   1  33
TORSDOF 6
ENDMDL
MODEL 4
REMARK VINA RESULT:      -8.7      2.353      7.351
REMARK  6 active torsions:
REMARK  status: ('A' for Active; 'I' for Inactive)
REMARK    1  A    between atoms: C_4  and  C_5 
REMARK    2  A    between atoms: C_6  and  N_7 
REMARK    3  A    between atoms: C_9  and  C_10 
REMARK       I    between atoms: C_10  and  N_11 
REMARK    4  A    between atoms: N_11  and  C_12 
REMARK    5  A    between atoms: C_12  and  C_13 
REMARK    6  A    between atoms: C_13  and  N_14 
ROOT
HETATM    1  C   UNL     1      40.516 -13.136   1.482  1.00  0.00     0.019 A 
HETATM    2  C   UNL     1      40.513 -12.115   2.390  1.00  0.00     0.111 A 
HETATM    3  C   UNL     1      39.576 -10.924   2.118  1.00  0.00     0.273 A 
HETATM    4  O   UNL     1      39.489  -9.956   2.871  1.00  0.00    -0.266 OA
HETATM    5  N   UNL     1      38.802 -10.948   0.999  1.00  0.00    -0.321 N 
HETATM    6  C   UNL     1      38.797 -11.982   0.075  1.00  0.00     0.046 A 
HETATM    7  C   UNL     1      39.627 -13.085   0.282  1.00  0.00     0.006 A 
HETATM    8  C   UNL     1      37.952 -11.896  -1.035  1.00  0.00     0.032 A 
HETATM    9  C   UNL     1      37.925 -12.932  -1.965  1.00  0.00     0.026 A 
HETATM   10  C   UNL     1      38.742 -14.042  -1.776  1.00  0.00     0.035 A 
HETATM   11 CL   UNL     1      38.707 -15.331  -2.914  1.00  0.00    -0.084 Cl
HETATM   12  C   UNL     1      39.587 -14.122  -0.666  1.00  0.00     0.038 A 
HETATM   13  H   UNL     1      38.216 -10.134   0.862  1.00  0.00     0.169 HD
ENDROOT
BRANCH   2  14
HETATM   14  N   UNL     1      41.328 -12.064   3.573  1.00  0.00    -0.375 N 
HETATM   15  C   UNL     1      40.749 -12.470   4.886  1.00  0.00     0.137 C 
HETATM   16  C   UNL     1      41.842 -12.807   5.904  1.00  0.00     0.096 C 
HETATM   17  C   UNL     1      42.977 -11.777   5.956  1.00  0.00     0.017 C 
HETATM   18  C   UNL     1      43.387 -11.231   4.589  1.00  0.00     0.021 C 
HETATM   19  C   UNL     1      42.167 -10.853   3.758  1.00  0.00     0.123 C 
BRANCH  16  20
HETATM   20  C   UNL     1      42.349 -14.226   5.718  1.00  0.00     0.223 C 
HETATM   21  N   UNL     1      41.914 -15.162   6.616  1.00  0.00    -0.359 N 
HETATM   22  H   UNL     1      41.292 -14.807   7.349  1.00  0.00     0.162 HD
HETATM   23  O   UNL     1      43.153 -14.518   4.830  1.00  0.00    -0.273 OA
BRANCH  21  24
HETATM   24  C   UNL     1      42.027 -16.612   6.488  1.00  0.00     0.150 C 
BRANCH  24  25
HETATM   25  C   UNL     1      43.208 -17.344   7.165  1.00  0.00     0.254 C 
BRANCH  25  26
HETATM   26  N   UNL     1      43.845 -18.395   6.291  1.00  0.00    -0.066 N 
HETATM   27  H   UNL     1      44.823 -18.433   6.639  1.00  0.00     0.280 HD
HETATM   28  C   UNL     1      43.240 -19.778   6.386  1.00  0.00     0.261 C 
HETATM   29  C   UNL     1      44.022 -20.748   5.492  1.00  0.00     0.195 C 
HETATM   30  O   UNL     1      44.058 -20.286   4.137  1.00  0.00    -0.388 OA
HETATM   31  C   UNL     1      44.710 -19.014   4.036  1.00  0.00     0.195 C 
HETATM   32  C   UNL     1      43.957 -17.950   4.843  1.00  0.00     0.261 C 
ENDBRANCH  25  26
ENDBRANCH  24  25
ENDBRANCH  21  24
ENDBRANCH  16  20
ENDBRANCH   2  14
BRANCH   1  33
HETATM   33  C   UNL     1      41.386 -14.320   1.728  1.00  0.00    -0.023 A 
HETATM   34  C   UNL     1      40.832 -15.517   2.195  1.00  0.00     0.012 A 
HETATM   35  C   UNL     1      41.635 -16.647   2.365  1.00  0.00     0.001 A 
HETATM   36  C   UNL     1      42.994 -16.590   2.058  1.00  0.00     0.000 A 
HETATM   37  C   UNL     1      43.549 -15.410   1.567  1.00  0.00     0.001 A 
HETATM   38  C   UNL     1      42.746 -14.283   1.390  1.00  0.00     0.012 A 
ENDBRANCH   1  33
TORSDOF 6
ENDMDL
MODEL 5
REMARK VINA RESULT:      -8.6      3.804      7.765
REMARK  6 active torsions:
REMARK  status: ('A' for Active; 'I' for Inactive)
REMARK    1  A    between atoms: C_4  and  C_5 
REMARK    2  A    between atoms: C_6  and  N_7 
REMARK    3  A    between atoms: C_9  and  C_10 
REMARK       I    between atoms: C_10  and  N_11 
REMARK    4  A    between atoms: N_11  and  C_12 
REMARK    5  A    between atoms: C_12  and  C_13 
REMARK    6  A    between atoms: C_13  and  N_14 
ROOT
HETATM    1  C   UNL     1      40.760 -13.644   2.145  1.00  0.00     0.019 A 
HETATM    2  C   UNL     1      40.735 -12.865   3.266  1.00  0.00     0.111 A 
HETATM    3  C   UNL     1      39.820 -11.626   3.251  1.00  0.00     0.273 A 
HETATM    4  O   UNL     1      39.716 -10.860   4.208  1.00  0.00    -0.266 OA
HETATM    5  N   UNL     1      39.086 -11.373   2.134  1.00  0.00    -0.321 N 
HETATM    6  C   UNL     1      39.104 -12.161   0.994  1.00  0.00     0.046 A 
HETATM    7  C   UNL     1      39.915 -13.297   0.962  1.00  0.00     0.006 A 
HETATM    8  C   UNL     1      38.300 -11.802  -0.092  1.00  0.00     0.032 A 
HETATM    9  C   UNL     1      38.295 -12.592  -1.240  1.00  0.00     0.026 A 
HETATM   10  C   UNL     1      39.094 -13.729  -1.290  1.00  0.00     0.035 A 
HETATM   11 CL   UNL     1      39.087 -14.715  -2.700  1.00  0.00    -0.084 Cl
HETATM   12  C   UNL     1      39.898 -14.082  -0.204  1.00  0.00     0.038 A 
HETATM   13  H   UNL     1      38.513 -10.539   2.173  1.00  0.00     0.169 HD
ENDROOT
BRANCH   2  14
HETATM   14  N   UNL     1      41.508 -13.107   4.454  1.00  0.00    -0.375 N 
HETATM   15  C   UNL     1      42.950 -12.730   4.485  1.00  0.00     0.137 C 
HETATM   16  C   UNL     1      43.471 -12.611   5.920  1.00  0.00     0.096 C 
HETATM   17  C   UNL     1      43.057 -13.777   6.827  1.00  0.00     0.017 C 
HETATM   18  C   UNL     1      41.628 -14.267   6.601  1.00  0.00     0.021 C 
HETATM   19  C   UNL     1      41.328 -14.425   5.115  1.00  0.00     0.123 C 
BRANCH  16  20
HETATM   20  C   UNL     1      43.132 -11.257   6.518  1.00  0.00     0.223 C 
HETATM   21  N   UNL     1      43.236 -11.136   7.877  1.00  0.00    -0.359 N 
HETATM   22  H   UNL     1      43.520 -11.988   8.370  1.00  0.00     0.162 HD
HETATM   23  O   UNL     1      42.734 -10.320   5.822  1.00  0.00    -0.273 OA
BRANCH  21  24
HETATM   24  C   UNL     1      43.241  -9.893   8.644  1.00  0.00     0.150 C 
BRANCH  24  25
HETATM   25  C   UNL     1      43.345  -9.954  10.185  1.00  0.00     0.254 C 
BRANCH  25  26
HETATM   26  N   UNL     1      42.012 -10.114  10.872  1.00  0.00    -0.066 N 
HETATM   27  H   UNL     1      41.755 -11.100  10.667  1.00  0.00     0.280 HD
HETATM   28  C   UNL     1      42.023  -9.917  12.372  1.00  0.00     0.261 C 
HETATM   29  C   UNL     1      40.620 -10.166  12.938  1.00  0.00     0.195 C 
HETATM   30  O   UNL     1      39.651  -9.321  12.306  1.00  0.00    -0.388 OA
HETATM   31  C   UNL     1      39.579  -9.572  10.897  1.00  0.00     0.195 C 
HETATM   32  C   UNL     1      40.924  -9.277  10.222  1.00  0.00     0.261 C 
ENDBRANCH  25  26
ENDBRANCH  24  25
ENDBRANCH  21  24
ENDBRANCH  16  20
ENDBRANCH   2  14
BRANCH   1  33
HETATM   33  C   UNL     1      41.609 -14.868   2.134  1.00  0.00    -0.023 A 
HETATM   34  C   UNL     1      41.058 -16.111   2.465  1.00  0.00     0.012 A 
HETATM   35  C   UNL     1      41.835 -17.269   2.393  1.00  0.00     0.001 A 
HETATM   36  C   UNL     1      43.165 -17.192   1.979  1.00  0.00     0.000 A 
HETATM   37  C   UNL     1      43.713 -15.963   1.621  1.00  0.00     0.001 A 
HETATM   38  C   UNL     1      42.936 -14.807   1.685  1.00  0.00     0.012 A 
ENDBRANCH   1  33
TORSDOF 6
ENDMDL
MODEL 6
REMARK VINA RESULT:      -8.5      3.340      6.457
REMARK  6 active torsions:
REMARK  status: ('A' for Active; 'I' for Inactive)
REMARK    1  A    between atoms: C_4  and  C_5 
REMARK    2  A    between atoms: C_6  and  N_7 
REMARK    3  A    between atoms: C_9  and  C_10 
REMARK       I    between atoms: C_10  and  N_11 
REMARK    4  A    between atoms: N_11  and  C_12 
REMARK    5  A    between atoms: C_12  and  C_13 
REMARK    6  A    between atoms: C_13  and  N_14 
ROOT
HETATM    1  C   UNL     1      42.416 -15.374   3.709  1.00  0.00     0.019 A 
HETATM    2  C   UNL     1      42.557 -14.409   4.665  1.00  0.00     0.111 A 
HETATM    3  C   UNL     1      43.394 -14.758   5.910  1.00  0.00     0.273 A 
HETATM    4  O   UNL     1      43.591 -13.963   6.827  1.00  0.00    -0.266 OA
HETATM    5  N   UNL     1      43.949 -15.998   5.994  1.00  0.00    -0.321 N 
HETATM    6  C   UNL     1      43.812 -16.981   5.027  1.00  0.00     0.046 A 
HETATM    7  C   UNL     1      43.066 -16.709   3.879  1.00  0.00     0.006 A 
HETATM    8  C   UNL     1      44.436 -18.217   5.222  1.00  0.00     0.032 A 
HETATM    9  C   UNL     1      44.321 -19.211   4.253  1.00  0.00     0.026 A 
HETATM   10  C   UNL     1      43.584 -18.959   3.100  1.00  0.00     0.035 A 
HETATM   11 CL   UNL     1      43.445 -20.177   1.894  1.00  0.00    -0.084 Cl
HETATM   12  C   UNL     1      42.960 -17.723   2.911  1.00  0.00     0.038 A 
HETATM   13  H   UNL     1      44.477 -16.178   6.839  1.00  0.00     0.169 HD
ENDROOT
BRANCH   2  14
HETATM   14  N   UNL     1      41.973 -13.097   4.602  1.00  0.00    -0.375 N 
HETATM   15  C   UNL     1      40.522 -12.950   4.291  1.00  0.00     0.137 C 
HETATM   16  C   UNL     1      39.988 -11.583   4.728  1.00  0.00     0.096 C 
HETATM   17  C   UNL     1      40.888 -10.409   4.323  1.00  0.00     0.017 C 
HETATM   18  C   UNL     1      42.383 -10.693   4.460  1.00  0.00     0.021 C 
HETATM   19  C   UNL     1      42.741 -12.054   3.876  1.00  0.00     0.123 C 
BRANCH  16  20
HETATM   20  C   UNL     1      39.644 -11.573   6.207  1.00  0.00     0.223 C 
HETATM   21  N   UNL     1      39.931 -10.431   6.902  1.00  0.00    -0.359 N 
HETATM   22  H   UNL     1      40.373  -9.686   6.355  1.00  0.00     0.162 HD
HETATM   23  O   UNL     1      39.173 -12.563   6.771  1.00  0.00    -0.273 OA
BRANCH  21  24
HETATM   24  C   UNL     1      39.449 -10.076   8.234  1.00  0.00     0.150 C 
BRANCH  24  25
HETATM   25  C   UNL     1      40.278  -9.108   9.108  1.00  0.00     0.254 C 
BRANCH  25  26
HETATM   26  N   UNL     1      40.713  -9.706  10.423  1.00  0.00    -0.066 N 
HETATM   27  H   UNL     1      40.666 -10.729  10.247  1.00  0.00     0.280 HD
HETATM   28  C   UNL     1      42.114  -9.353  10.870  1.00  0.00     0.261 C 
HETATM   29  C   UNL     1      42.437 -10.074  12.184  1.00  0.00     0.195 C 
HETATM   30  O   UNL     1      41.472  -9.759  13.195  1.00  0.00    -0.388 OA
HETATM   31  C   UNL     1      40.156 -10.174  12.808  1.00  0.00     0.195 C 
HETATM   32  C   UNL     1      39.708  -9.448  11.534  1.00  0.00     0.261 C 
ENDBRANCH  25  26
ENDBRANCH  24  25
ENDBRANCH  21  24
ENDBRANCH  16  20
ENDBRANCH   2  14
BRANCH   1  33
HETATM   33  C   UNL     1      41.640 -15.063   2.476  1.00  0.00    -0.023 A 
HETATM   34  C   UNL     1      42.165 -14.195   1.513  1.00  0.00     0.012 A 
HETATM   35  C   UNL     1      41.469 -13.952   0.327  1.00  0.00     0.001 A 
HETATM   36  C   UNL     1      40.248 -14.584   0.093  1.00  0.00     0.000 A 
HETATM   37  C   UNL     1      39.731 -15.471   1.034  1.00  0.00     0.001 A 
HETATM   38  C   UNL     1      40.429 -15.721   2.216  1.00  0.00     0.012 A 
ENDBRANCH   1  33
TORSDOF 6
ENDMDL
MODEL 7
REMARK VINA RESULT:      -8.3      1.849      2.559
REMARK  6 active torsions:
REMARK  status: ('A' for Active; 'I' for Inactive)
REMARK    1  A    between atoms: C_4  and  C_5 
REMARK    2  A    between atoms: C_6  and  N_7 
REMARK    3  A    between atoms: C_9  and  C_10 
REMARK       I    between atoms: C_10  and  N_11 
REMARK    4  A    between atoms: N_11  and  C_12 
REMARK    5  A    between atoms: C_12  and  C_13 
REMARK    6  A    between atoms: C_13  and  N_14 
ROOT
HETATM    1  C   UNL     1      42.008 -14.028   4.141  1.00  0.00     0.019 A 
HETATM    2  C   UNL     1      41.764 -12.789   4.661  1.00  0.00     0.111 A 
HETATM    3  C   UNL     1      42.446 -12.430   5.994  1.00  0.00     0.273 A 
HETATM    4  O   UNL     1      42.300 -11.342   6.548  1.00  0.00    -0.266 OA
HETATM    5  N   UNL     1      43.253 -13.355   6.581  1.00  0.00    -0.321 N 
HETATM    6  C   UNL     1      43.509 -14.612   6.057  1.00  0.00     0.046 A 
HETATM    7  C   UNL     1      42.915 -14.981   4.848  1.00  0.00     0.006 A 
HETATM    8  C   UNL     1      44.363 -15.476   6.749  1.00  0.00     0.032 A 
HETATM    9  C   UNL     1      44.641 -16.738   6.229  1.00  0.00     0.026 A 
HETATM   10  C   UNL     1      44.063 -17.123   5.024  1.00  0.00     0.035 A 
HETATM   11 CL   UNL     1      44.409 -18.675   4.370  1.00  0.00    -0.084 Cl
HETATM   12  C   UNL     1      43.207 -16.258   4.338  1.00  0.00     0.038 A 
HETATM   13  H   UNL     1      43.665 -13.072   7.462  1.00  0.00     0.169 HD
ENDROOT
BRANCH   2  14
HETATM   14  N   UNL     1      40.907 -11.800   4.065  1.00  0.00    -0.375 N 
HETATM   15  C   UNL     1      41.384 -10.392   3.935  1.00  0.00     0.137 C 
HETATM   16  C   UNL     1      40.581  -9.620   2.885  1.00  0.00     0.096 C 
HETATM   17  C   UNL     1      39.064  -9.811   3.003  1.00  0.00     0.017 C 
HETATM   18  C   UNL     1      38.640 -11.237   3.351  1.00  0.00     0.021 C 
HETATM   19  C   UNL     1      39.484 -11.801   4.487  1.00  0.00     0.123 C 
BRANCH  16  20
HETATM   20  C   UNL     1      41.098  -9.895   1.484  1.00  0.00     0.223 C 
HETATM   21  N   UNL     1      40.257  -9.607   0.446  1.00  0.00    -0.359 N 
HETATM   22  H   UNL     1      39.338  -9.243   0.716  1.00  0.00     0.162 HD
HETATM   23  O   UNL     1      42.206 -10.400   1.289  1.00  0.00    -0.273 OA
BRANCH  21  24
HETATM   24  C   UNL     1      40.615  -9.516  -0.967  1.00  0.00     0.150 C 
BRANCH  24  25
HETATM   25  C   UNL     1      39.605  -9.988  -2.038  1.00  0.00     0.254 C 
BRANCH  25  26
HETATM   26  N   UNL     1      39.520 -11.489  -2.165  1.00  0.00    -0.066 N 
HETATM   27  H   UNL     1      39.728 -11.822  -1.203  1.00  0.00     0.280 HD
HETATM   28  C   UNL     1      38.173 -12.033  -2.586  1.00  0.00     0.261 C 
HETATM   29  C   UNL     1      38.219 -13.565  -2.617  1.00  0.00     0.195 C 
HETATM   30  O   UNL     1      39.264 -14.032  -3.478  1.00  0.00    -0.388 OA
HETATM   31  C   UNL     1      40.550 -13.589  -3.027  1.00  0.00     0.195 C 
HETATM   32  C   UNL     1      40.630 -12.058  -3.031  1.00  0.00     0.261 C 
ENDBRANCH  25  26
ENDBRANCH  24  25
ENDBRANCH  21  24
ENDBRANCH  16  20
ENDBRANCH   2  14
BRANCH   1  33
HETATM   33  C   UNL     1      41.391 -14.399   2.837  1.00  0.00    -0.023 A 
HETATM   34  C   UNL     1      40.371 -15.356   2.786  1.00  0.00     0.012 A 
HETATM   35  C   UNL     1      39.747 -15.659   1.574  1.00  0.00     0.001 A 
HETATM   36  C   UNL     1      40.132 -14.999   0.407  1.00  0.00     0.000 A 
HETATM   37  C   UNL     1      41.127 -14.025   0.453  1.00  0.00     0.001 A 
HETATM   38  C   UNL     1      41.746 -13.716   1.665  1.00  0.00     0.012 A 
ENDBRANCH   1  33
TORSDOF 6
ENDMDL
MODEL 8
REMARK VINA RESULT:      -8.1      2.987      7.329
REMARK  6 active torsions:
REMARK  status: ('A' for Active; 'I' for Inactive)
REMARK    1  A    between atoms: C_4  and  C_5 
REMARK    2  A    between atoms: C_6  and  N_7 
REMARK    3  A    between atoms: C_9  and  C_10 
REMARK       I    between atoms: C_10  and  N_11 
REMARK    4  A    between atoms: N_11  and  C_12 
REMARK    5  A    between atoms: C_12  and  C_13 
REMARK    6  A    between atoms: C_13  and  N_14 
ROOT
HETATM    1  C   UNL     1      40.475 -12.335   1.565  1.00  0.00     0.019 A 
HETATM    2  C   UNL     1      41.506 -13.046   2.111  1.00  0.00     0.111 A 
HETATM    3  C   UNL     1      41.932 -14.342   1.397  1.00  0.00     0.273 A 
HETATM    4  O   UNL     1      42.850 -15.055   1.798  1.00  0.00    -0.266 OA
HETATM    5  N   UNL     1      41.270 -14.711   0.267  1.00  0.00    -0.321 N 
HETATM    6  C   UNL     1      40.226 -13.992  -0.294  1.00  0.00     0.046 A 
HETATM    7  C   UNL     1      39.807 -12.808   0.315  1.00  0.00     0.006 A 
HETATM    8  C   UNL     1      39.626 -14.469  -1.464  1.00  0.00     0.032 A 
HETATM    9  C   UNL     1      38.585 -13.752  -2.049  1.00  0.00     0.026 A 
HETATM   10  C   UNL     1      38.155 -12.567  -1.460  1.00  0.00     0.035 A 
HETATM   11 CL   UNL     1      36.877 -11.670  -2.181  1.00  0.00    -0.084 Cl
HETATM   12  C   UNL     1      38.756 -12.097  -0.289  1.00  0.00     0.038 A 
HETATM   13  H   UNL     1      41.582 -15.578  -0.153  1.00  0.00     0.169 HD
ENDROOT
BRANCH   2  14
HETATM   14  N   UNL     1      42.213 -12.681   3.308  1.00  0.00    -0.375 N 
HETATM   15  C   UNL     1      41.504 -12.704   4.620  1.00  0.00     0.137 C 
HETATM   16  C   UNL     1      42.488 -12.762   5.791  1.00  0.00     0.096 C 
HETATM   17  C   UNL     1      43.653 -11.771   5.670  1.00  0.00     0.017 C 
HETATM   18  C   UNL     1      44.204 -11.627   4.253  1.00  0.00     0.021 C 
HETATM   19  C   UNL     1      43.079 -11.477   3.236  1.00  0.00     0.123 C 
BRANCH  16  20
HETATM   20  C   UNL     1      42.955 -14.184   6.049  1.00  0.00     0.223 C 
HETATM   21  N   UNL     1      42.177 -15.191   5.550  1.00  0.00    -0.359 N 
HETATM   22  H   UNL     1      41.332 -14.887   5.057  1.00  0.00     0.162 HD
HETATM   23  O   UNL     1      43.962 -14.426   6.718  1.00  0.00    -0.273 OA
BRANCH  21  24
HETATM   24  C   UNL     1      42.549 -16.598   5.420  1.00  0.00     0.150 C 
BRANCH  24  25
HETATM   25  C   UNL     1      43.524 -17.023   4.299  1.00  0.00     0.254 C 
BRANCH  25  26
HETATM   26  N   UNL     1      43.340 -18.452   3.852  1.00  0.00    -0.066 N 
HETATM   27  H   UNL     1      42.384 -18.685   4.184  1.00  0.00     0.280 HD
HETATM   28  C   UNL     1      43.405 -18.682   2.358  1.00  0.00     0.261 C 
HETATM   29  C   UNL     1      43.145 -20.161   2.049  1.00  0.00     0.195 C 
HETATM   30  O   UNL     1      44.068 -21.004   2.747  1.00  0.00    -0.388 OA
HETATM   31  C   UNL     1      43.945 -20.850   4.167  1.00  0.00     0.195 C 
HETATM   32  C   UNL     1      44.261 -19.410   4.588  1.00  0.00     0.261 C 
ENDBRANCH  25  26
ENDBRANCH  24  25
ENDBRANCH  21  24
ENDBRANCH  16  20
ENDBRANCH   2  14
BRANCH   1  33
HETATM   33  C   UNL     1      40.056 -11.059   2.209  1.00  0.00    -0.023 A 
HETATM   34  C   UNL     1      40.620  -9.844   1.801  1.00  0.00     0.012 A 
HETATM   35  C   UNL     1      40.182  -8.641   2.358  1.00  0.00     0.001 A 
HETATM   36  C   UNL     1      39.170  -8.644   3.318  1.00  0.00     0.000 A 
HETATM   37  C   UNL     1      38.583  -9.845   3.709  1.00  0.00     0.001 A 
HETATM   38  C   UNL     1      39.015 -11.048   3.148  1.00  0.00     0.012 A 
ENDBRANCH   1  33
TORSDOF 6
ENDMDL
MODEL 9
REMARK VINA RESULT:      -8.1      3.685      7.314
REMARK  6 active torsions:
REMARK  status: ('A' for Active; 'I' for Inactive)
REMARK    1  A    between atoms: C_4  and  C_5 
REMARK    2  A    between atoms: C_6  and  N_7 
REMARK    3  A    between atoms: C_9  and  C_10 
REMARK       I    between atoms: C_10  and  N_11 
REMARK    4  A    between atoms: N_11  and  C_12 
REMARK    5  A    between atoms: C_12  and  C_13 
REMARK    6  A    between atoms: C_13  and  N_14 
ROOT
HETATM    1  C   UNL     1      41.768 -13.188   4.116  1.00  0.00     0.019 A 
HETATM    2  C   UNL     1      40.717 -12.395   3.754  1.00  0.00     0.111 A 
HETATM    3  C   UNL     1      39.680 -12.988   2.782  1.00  0.00     0.273 A 
HETATM    4  O   UNL     1      38.693 -12.365   2.396  1.00  0.00    -0.266 OA
HETATM    5  N   UNL     1      39.858 -14.262   2.339  1.00  0.00    -0.321 N 
HETATM    6  C   UNL     1      40.920 -15.074   2.705  1.00  0.00     0.046 A 
HETATM    7  C   UNL     1      41.883 -14.582   3.587  1.00  0.00     0.006 A 
HETATM    8  C   UNL     1      40.992 -16.371   2.188  1.00  0.00     0.032 A 
HETATM    9  C   UNL     1      42.045 -17.205   2.556  1.00  0.00     0.026 A 
HETATM   10  C   UNL     1      43.014 -16.734   3.437  1.00  0.00     0.035 A 
HETATM   11 CL   UNL     1      44.312 -17.760   3.905  1.00  0.00    -0.084 Cl
HETATM   12  C   UNL     1      42.939 -15.436   3.949  1.00  0.00     0.038 A 
HETATM   13  H   UNL     1      39.154 -14.597   1.692  1.00  0.00     0.169 HD
ENDROOT
BRANCH   2  14
HETATM   14  N   UNL     1      40.513 -11.044   4.201  1.00  0.00    -0.375 N 
HETATM   15  C   UNL     1      39.169 -10.624   4.692  1.00  0.00     0.137 C 
HETATM   16  C   UNL     1      39.252  -9.357   5.547  1.00  0.00     0.096 C 
HETATM   17  C   UNL     1      40.122  -8.253   4.934  1.00  0.00     0.017 C 
HETATM   18  C   UNL     1      41.390  -8.765   4.252  1.00  0.00     0.021 C 
HETATM   19  C   UNL     1      41.090  -9.964   3.361  1.00  0.00     0.123 C 
BRANCH  16  20
HETATM   20  C   UNL     1      39.643  -9.683   6.978  1.00  0.00     0.223 C 
HETATM   21  N   UNL     1      40.371  -8.741   7.651  1.00  0.00    -0.359 N 
HETATM   22  H   UNL     1      40.601  -7.900   7.112  1.00  0.00     0.162 HD
HETATM   23  O   UNL     1      39.361 -10.765   7.498  1.00  0.00    -0.273 OA
BRANCH  21  24
HETATM   24  C   UNL     1      40.618  -8.694   9.089  1.00  0.00     0.150 C 
BRANCH  24  25
HETATM   25  C   UNL     1      41.801  -7.858   9.629  1.00  0.00     0.254 C 
BRANCH  25  26
HETATM   26  N   UNL     1      42.880  -8.689  10.278  1.00  0.00    -0.066 N 
HETATM   27  H   UNL     1      43.301  -8.037  10.968  1.00  0.00     0.280 HD
HETATM   28  C   UNL     1      42.401  -9.925  11.007  1.00  0.00     0.261 C 
HETATM   29  C   UNL     1      43.591 -10.635  11.661  1.00  0.00     0.195 C 
HETATM   30  O   UNL     1      44.596 -10.956  10.693  1.00  0.00    -0.388 OA
HETATM   31  C   UNL     1      45.113  -9.776  10.065  1.00  0.00     0.195 C 
HETATM   32  C   UNL     1      44.005  -9.029   9.315  1.00  0.00     0.261 C 
ENDBRANCH  25  26
ENDBRANCH  24  25
ENDBRANCH  21  24
ENDBRANCH  16  20
ENDBRANCH   2  14
BRANCH   1  33
HETATM   33  C   UNL     1      42.774 -12.661   5.079  1.00  0.00    -0.023 A 
HETATM   34  C   UNL     1      42.718 -13.026   6.429  1.00  0.00     0.012 A 
HETATM   35  C   UNL     1      43.697 -12.584   7.321  1.00  0.00     0.001 A 
HETATM   36  C   UNL     1      44.745 -11.784   6.866  1.00  0.00     0.000 A 
HETATM   37  C   UNL     1      44.825 -11.439   5.519  1.00  0.00     0.001 A 
HETATM   38  C   UNL     1      43.851 -11.885   4.625  1.00  0.00     0.012 A 
ENDBRANCH   1  33
TORSDOF 6
ENDMDL
MODEL 10
REMARK VINA RESULT:      -8.0      3.752      7.347
REMARK  6 active torsions:
REMARK  status: ('A' for Active; 'I' for Inactive)
REMARK    1  A    between atoms: C_4  and  C_5 
REMARK    2  A    between atoms: C_6  and  N_7 
REMARK    3  A    between atoms: C_9  and  C_10 
REMARK       I    between atoms: C_10  and  N_11 
REMARK    4  A    between atoms: N_11  and  C_12 
REMARK    5  A    between atoms: C_12  and  C_13 
REMARK    6  A    between atoms: C_13  and  N_14 
ROOT
HETATM    1  C   UNL     1      42.116 -14.132   3.908  1.00  0.00     0.019 A 
HETATM    2  C   UNL     1      41.112 -13.434   3.300  1.00  0.00     0.111 A 
HETATM    3  C   UNL     1      40.341 -14.137   2.168  1.00  0.00     0.273 A 
HETATM    4  O   UNL     1      39.416 -13.605   1.557  1.00  0.00    -0.266 OA
HETATM    5  N   UNL     1      40.692 -15.409   1.835  1.00  0.00    -0.321 N 
HETATM    6  C   UNL     1      41.708 -16.125   2.450  1.00  0.00     0.046 A 
HETATM    7  C   UNL     1      42.432 -15.530   3.484  1.00  0.00     0.006 A 
HETATM    8  C   UNL     1      41.972 -17.430   2.024  1.00  0.00     0.032 A 
HETATM    9  C   UNL     1      42.979 -18.168   2.641  1.00  0.00     0.026 A 
HETATM   10  C   UNL     1      43.711 -17.594   3.676  1.00  0.00     0.035 A 
HETATM   11 CL   UNL     1      44.950 -18.502   4.450  1.00  0.00    -0.084 Cl
HETATM   12  C   UNL     1      43.445 -16.289   4.096  1.00  0.00     0.038 A 
HETATM   13  H   UNL     1      40.162 -15.818   1.075  1.00  0.00     0.169 HD
ENDROOT
BRANCH   2  14
HETATM   14  N   UNL     1      40.730 -12.087   3.628  1.00  0.00    -0.375 N 
HETATM   15  C   UNL     1      39.304 -11.780   3.939  1.00  0.00     0.137 C 
HETATM   16  C   UNL     1      39.167 -10.463   4.708  1.00  0.00     0.096 C 
HETATM   17  C   UNL     1      39.993  -9.313   4.119  1.00  0.00     0.017 C 
HETATM   18  C   UNL     1      41.374  -9.731   3.617  1.00  0.00     0.021 C 
HETATM   19  C   UNL     1      41.295 -11.004   2.784  1.00  0.00     0.123 C 
BRANCH  16  20
HETATM   20  C   UNL     1      39.419 -10.664   6.192  1.00  0.00     0.223 C 
HETATM   21  N   UNL     1      39.712  -9.549   6.927  1.00  0.00    -0.359 N 
HETATM   22  H   UNL     1      39.751  -8.673   6.396  1.00  0.00     0.162 HD
HETATM   23  O   UNL     1      39.409 -11.784   6.707  1.00  0.00    -0.273 OA
BRANCH  21  24
HETATM   24  C   UNL     1      39.713  -9.440   8.384  1.00  0.00     0.150 C 
BRANCH  24  25
HETATM   25  C   UNL     1      41.052  -9.228   9.127  1.00  0.00     0.254 C 
BRANCH  25  26
HETATM   26  N   UNL     1      41.063  -9.801  10.522  1.00  0.00    -0.066 N 
HETATM   27  H   UNL     1      41.177 -10.821  10.359  1.00  0.00     0.280 HD
HETATM   28  C   UNL     1      42.186  -9.324  11.416  1.00  0.00     0.261 C 
HETATM   29  C   UNL     1      42.105 -10.030  12.774  1.00  0.00     0.195 C 
HETATM   30  O   UNL     1      40.827  -9.824  13.386  1.00  0.00    -0.388 OA
HETATM   31  C   UNL     1      39.769 -10.356  12.579  1.00  0.00     0.195 C 
HETATM   32  C   UNL     1      39.719  -9.657  11.216  1.00  0.00     0.261 C 
ENDBRANCH  25  26
ENDBRANCH  24  25
ENDBRANCH  21  24
ENDBRANCH  16  20
ENDBRANCH   2  14
BRANCH   1  33
HETATM   33  C   UNL     1      42.864 -13.496   5.028  1.00  0.00    -0.023 A 
HETATM   34  C   UNL     1      43.757 -12.448   4.776  1.00  0.00     0.012 A 
HETATM   35  C   UNL     1      44.410 -11.807   5.831  1.00  0.00     0.001 A 
HETATM   36  C   UNL     1      44.166 -12.204   7.146  1.00  0.00     0.000 A 
HETATM   37  C   UNL     1      43.258 -13.227   7.409  1.00  0.00     0.001 A 
HETATM   38  C   UNL     1      42.599 -13.862   6.356  1.00  0.00     0.012 A 
ENDBRANCH   1  33
TORSDOF 6
ENDMDL
