MODEL 1
REMARK VINA RESULT:      -9.2      0.000      0.000
REMARK  4 active torsions:
REMARK  status: ('A' for Active; 'I' for Inactive)
REMARK    1  A    between atoms: C_2  and  O_3 
REMARK    2  A    between atoms: O_3  and  C_4 
REMARK    3  A    between atoms: C_9  and  N_10 
REMARK       I    between atoms: N_10  and  C_11 
REMARK       I    between atoms: C_11  and  N_12 
REMARK       I    between atoms: N_12  and  C_13 
REMARK    4  A    between atoms: C_13  and  C_14 
ROOT
HETATM    1  N   UNL     1      44.193 -13.300   6.522  1.00  0.00    -0.019 N 
HETATM    2  C   UNL     1      43.727 -14.580   6.793  1.00  0.00     0.693 C 
HETATM    3  N   UNL     1      43.987 -15.598   5.920  1.00  0.00    -0.155 N 
HETATM    4  C   UNL     1      43.505 -16.931   6.062  1.00  0.00     0.269 C 
HETATM    5  O   UNL     1      42.996 -17.292   7.114  1.00  0.00    -0.267 OA
HETATM    6  N   UNL     1      42.976 -14.807   7.894  1.00  0.00    -0.234 N 
HETATM    7  H   UNL     1      42.716 -14.011   8.479  1.00  0.00     0.174 HD
HETATM    8  H   UNL     1      42.647 -15.742   8.134  1.00  0.00     0.174 HD
HETATM    9  H   UNL     1      44.787 -13.127   5.727  1.00  0.00     0.203 HD
HETATM   10  H   UNL     1      44.534 -15.377   5.103  1.00  0.00     0.187 HD
ENDROOT
BRANCH   1  11
HETATM   11  C   UNL     1      43.742 -12.109   7.064  1.00  0.00     0.742 A 
HETATM   12  N   UNL     1      44.271 -11.750   8.232  1.00  0.00    -0.062 NA
HETATM   13  C   UNL     1      43.953 -10.541   8.717  1.00  0.00     0.088 A 
HETATM   14  C   UNL     1      43.111  -9.652   8.039  1.00  0.00     0.021 A 
HETATM   15  C   UNL     1      44.494 -10.135   9.932  1.00  0.00     0.036 A 
HETATM   16  C   UNL     1      42.867  -8.366   8.576  1.00  0.00     0.052 A 
HETATM   17  C   UNL     1      42.584 -10.136   6.838  1.00  0.00     0.062 A 
HETATM   18  C   UNL     1      43.460  -7.961   9.771  1.00  0.00     0.069 A 
HETATM   19  C   UNL     1      44.255  -8.861  10.466  1.00  0.00     0.039 A 
HETATM   20  N   UNL     1      42.887 -11.364   6.352  1.00  0.00    -0.066 NA
HETATM   21  C   UNL     1      41.671  -9.304   5.982  1.00  0.00     0.072 C 
BRANCH  18  22
HETATM   22  O   UNL     1      43.179  -6.680  10.146  1.00  0.00    -0.351 OA
BRANCH  22  23
HETATM   23  C   UNL     1      41.892  -6.444  10.719  1.00  0.00     0.171 C 
HETATM   24  C   UNL     1      42.063  -6.337  12.223  1.00  0.00     0.034 C 
ENDBRANCH  22  23
ENDBRANCH  18  22
ENDBRANCH   1  11
BRANCH   4  25
HETATM   25  C   UNL     1      43.602 -17.821   4.884  1.00  0.00     0.032 A 
HETATM   26  C   UNL     1      43.208 -17.392   3.610  1.00  0.00     0.017 A 
HETATM   27  C   UNL     1      43.228 -18.289   2.538  1.00  0.00     0.007 A 
HETATM   28  C   UNL     1      43.636 -19.614   2.726  1.00  0.00    -0.062 A 
HETATM   29  C   UNL     1      43.612 -20.597   1.590  1.00  0.00     0.048 C 
HETATM   30  C   UNL     1      44.027 -20.036   4.002  1.00  0.00     0.007 A 
HETATM   31  C   UNL     1      44.007 -19.147   5.078  1.00  0.00     0.017 A 
ENDBRANCH   4  25
TORSDOF 4
ENDMDL
MODEL 2
REMARK VINA RESULT:      -9.2      1.910     10.343
REMARK  4 active torsions:
REMARK  status: ('A' for Active; 'I' for Inactive)
REMARK    1  A    between atoms: C_2  and  O_3 
REMARK    2  A    between atoms: O_3  and  C_4 
REMARK    3  A    between atoms: C_9  and  N_10 
REMARK       I    between atoms: N_10  and  C_11 
REMARK       I    between atoms: C_11  and  N_12 
REMARK       I    between atoms: N_12  and  C_13 
REMARK    4  A    between atoms: C_13  and  C_14 
ROOT
HETATM    1  N   UNL     1      43.546 -13.075   7.421  1.00  0.00    -0.019 N 
HETATM    2  C   UNL     1      44.254 -11.896   7.609  1.00  0.00     0.693 C 
HETATM    3  N   UNL     1      43.927 -11.062   8.641  1.00  0.00    -0.155 N 
HETATM    4  C   UNL     1      44.540  -9.801   8.890  1.00  0.00     0.269 C 
HETATM    5  O   UNL     1      45.565  -9.488   8.300  1.00  0.00    -0.267 OA
HETATM    6  N   UNL     1      45.235 -11.550   6.745  1.00  0.00    -0.234 N 
HETATM    7  H   UNL     1      45.396 -12.142   5.928  1.00  0.00     0.174 HD
HETATM    8  H   UNL     1      45.792 -10.706   6.876  1.00  0.00     0.174 HD
HETATM    9  H   UNL     1      42.842 -13.362   8.081  1.00  0.00     0.203 HD
HETATM   10  H   UNL     1      43.177 -11.352   9.248  1.00  0.00     0.187 HD
ENDROOT
BRANCH   1  11
HETATM   11  C   UNL     1      43.477 -13.839   6.269  1.00  0.00     0.742 A 
HETATM   12  N   UNL     1      43.844 -15.115   6.380  1.00  0.00    -0.062 NA
HETATM   13  C   UNL     1      43.664 -15.912   5.317  1.00  0.00     0.088 A 
HETATM   14  C   UNL     1      43.096 -15.459   4.120  1.00  0.00     0.021 A 
HETATM   15  C   UNL     1      44.031 -17.250   5.404  1.00  0.00     0.036 A 
HETATM   16  C   UNL     1      42.876 -16.367   3.058  1.00  0.00     0.052 A 
HETATM   17  C   UNL     1      42.776 -14.098   4.095  1.00  0.00     0.062 A 
HETATM   18  C   UNL     1      43.206 -17.715   3.184  1.00  0.00     0.069 A 
HETATM   19  C   UNL     1      43.812 -18.152   4.354  1.00  0.00     0.039 A 
HETATM   20  N   UNL     1      42.972 -13.284   5.160  1.00  0.00    -0.066 NA
HETATM   21  C   UNL     1      42.150 -13.454   2.890  1.00  0.00     0.072 C 
BRANCH  18  22
HETATM   22  O   UNL     1      42.893 -18.487   2.104  1.00  0.00    -0.351 OA
BRANCH  22  23
HETATM   23  C   UNL     1      42.756 -19.890   2.332  1.00  0.00     0.171 C 
HETATM   24  C   UNL     1      43.884 -20.594   1.599  1.00  0.00     0.034 C 
ENDBRANCH  22  23
ENDBRANCH  18  22
ENDBRANCH   1  11
BRANCH   4  25
HETATM   25  C   UNL     1      43.862  -8.887   9.837  1.00  0.00     0.032 A 
HETATM   26  C   UNL     1      43.346  -7.654   9.419  1.00  0.00     0.017 A 
HETATM   27  C   UNL     1      42.793  -6.778  10.360  1.00  0.00     0.007 A 
HETATM   28  C   UNL     1      42.753  -7.122  11.715  1.00  0.00    -0.062 A 
HETATM   29  C   UNL     1      42.207  -6.165  12.737  1.00  0.00     0.048 C 
HETATM   30  C   UNL     1      43.272  -8.356  12.125  1.00  0.00     0.007 A 
HETATM   31  C   UNL     1      43.828  -9.234  11.193  1.00  0.00     0.017 A 
ENDBRANCH   4  25
TORSDOF 4
ENDMDL
MODEL 3
REMARK VINA RESULT:      -8.7      1.467      2.451
REMARK  4 active torsions:
REMARK  status: ('A' for Active; 'I' for Inactive)
REMARK    1  A    between atoms: C_2  and  O_3 
REMARK    2  A    between atoms: O_3  and  C_4 
REMARK    3  A    between atoms: C_9  and  N_10 
REMARK       I    between atoms: N_10  and  C_11 
REMARK       I    between atoms: C_11  and  N_12 
REMARK       I    between atoms: N_12  and  C_13 
REMARK    4  A    between atoms: C_13  and  C_14 
ROOT
HETATM    1  N   UNL     1      44.007 -13.133   7.001  1.00  0.00    -0.019 N 
HETATM    2  C   UNL     1      42.970 -13.927   6.531  1.00  0.00     0.693 C 
HETATM    3  N   UNL     1      43.249 -15.092   5.873  1.00  0.00    -0.155 N 
HETATM    4  C   UNL     1      42.270 -15.949   5.293  1.00  0.00     0.269 C 
HETATM    5  O   UNL     1      41.085 -15.790   5.546  1.00  0.00    -0.267 OA
HETATM    6  N   UNL     1      41.688 -13.525   6.682  1.00  0.00    -0.234 N 
HETATM    7  H   UNL     1      41.511 -12.606   7.091  1.00  0.00     0.174 HD
HETATM    8  H   UNL     1      40.906 -14.102   6.374  1.00  0.00     0.174 HD
HETATM    9  H   UNL     1      44.963 -13.441   6.930  1.00  0.00     0.203 HD
HETATM   10  H   UNL     1      44.219 -15.341   5.767  1.00  0.00     0.187 HD
ENDROOT
BRANCH   1  11
HETATM   11  C   UNL     1      43.950 -11.794   7.348  1.00  0.00     0.742 A 
HETATM   12  N   UNL     1      43.082 -11.043   6.673  1.00  0.00    -0.062 NA
HETATM   13  C   UNL     1      42.908  -9.775   7.073  1.00  0.00     0.088 A 
HETATM   14  C   UNL     1      43.586  -9.230   8.170  1.00  0.00     0.021 A 
HETATM   15  C   UNL     1      42.005  -8.967   6.392  1.00  0.00     0.036 A 
HETATM   16  C   UNL     1      43.309  -7.903   8.578  1.00  0.00     0.052 A 
HETATM   17  C   UNL     1      44.497 -10.090   8.790  1.00  0.00     0.062 A 
HETATM   18  C   UNL     1      42.363  -7.128   7.911  1.00  0.00     0.069 A 
HETATM   19  C   UNL     1      41.728  -7.654   6.795  1.00  0.00     0.039 A 
HETATM   20  N   UNL     1      44.690 -11.366   8.379  1.00  0.00    -0.066 NA
HETATM   21  C   UNL     1      45.298  -9.663   9.988  1.00  0.00     0.072 C 
BRANCH  18  22
HETATM   22  O   UNL     1      42.160  -5.888   8.442  1.00  0.00    -0.351 OA
BRANCH  22  23
HETATM   23  C   UNL     1      40.806  -5.440   8.535  1.00  0.00     0.171 C 
HETATM   24  C   UNL     1      40.750  -4.015   8.016  1.00  0.00     0.034 C 
ENDBRANCH  22  23
ENDBRANCH  18  22
ENDBRANCH   1  11
BRANCH   4  25
HETATM   25  C   UNL     1      42.745 -16.986   4.349  1.00  0.00     0.032 A 
HETATM   26  C   UNL     1      42.253 -17.061   3.039  1.00  0.00     0.017 A 
HETATM   27  C   UNL     1      42.657 -18.109   2.206  1.00  0.00     0.007 A 
HETATM   28  C   UNL     1      43.546 -19.085   2.668  1.00  0.00    -0.062 A 
HETATM   29  C   UNL     1      43.945 -20.240   1.794  1.00  0.00     0.048 C 
HETATM   30  C   UNL     1      44.032 -19.003   3.978  1.00  0.00     0.007 A 
HETATM   31  C   UNL     1      43.632 -17.962   4.818  1.00  0.00     0.017 A 
ENDBRANCH   4  25
TORSDOF 4
ENDMDL
MODEL 4
REMARK VINA RESULT:      -8.6      3.637      9.979
REMARK  4 active torsions:
REMARK  status: ('A' for Active; 'I' for Inactive)
REMARK    1  A    between atoms: C_2  and  O_3 
REMARK    2  A    between atoms: O_3  and  C_4 
REMARK    3  A    between atoms: C_9  and  N_10 
REMARK       I    between atoms: N_10  and  C_11 
REMARK       I    between atoms: C_11  and  N_12 
REMARK       I    between atoms: N_12  and  C_13 
REMARK    4  A    between atoms: C_13  and  C_14 
ROOT
HETATM    1  N   UNL     1      42.667 -13.657   6.665  1.00  0.00    -0.019 N 
HETATM    2  C   UNL     1      43.433 -12.508   6.813  1.00  0.00     0.693 C 
HETATM    3  N   UNL     1      43.521 -11.900   8.034  1.00  0.00    -0.155 N 
HETATM    4  C   UNL     1      44.222 -10.687   8.286  1.00  0.00     0.269 C 
HETATM    5  O   UNL     1      44.980 -10.227   7.444  1.00  0.00    -0.267 OA
HETATM    6  N   UNL     1      44.053 -11.966   5.741  1.00  0.00    -0.234 N 
HETATM    7  H   UNL     1      43.893 -12.384   4.822  1.00  0.00     0.174 HD
HETATM    8  H   UNL     1      44.647 -11.141   5.826  1.00  0.00     0.174 HD
HETATM    9  H   UNL     1      42.235 -14.092   7.464  1.00  0.00     0.203 HD
HETATM   10  H   UNL     1      43.027 -12.330   8.800  1.00  0.00     0.187 HD
ENDROOT
BRANCH   1  11
HETATM   11  C   UNL     1      42.169 -14.189   5.489  1.00  0.00     0.742 A 
HETATM   12  N   UNL     1      41.343 -13.413   4.789  1.00  0.00    -0.062 NA
HETATM   13  C   UNL     1      40.948 -13.846   3.583  1.00  0.00     0.088 A 
HETATM   14  C   UNL     1      41.383 -15.060   3.037  1.00  0.00     0.021 A 
HETATM   15  C   UNL     1      40.090 -13.056   2.827  1.00  0.00     0.036 A 
HETATM   16  C   UNL     1      40.978 -15.428   1.733  1.00  0.00     0.052 A 
HETATM   17  C   UNL     1      42.222 -15.813   3.864  1.00  0.00     0.062 A 
HETATM   18  C   UNL     1      40.158 -14.597   0.972  1.00  0.00     0.069 A 
HETATM   19  C   UNL     1      39.690 -13.418   1.534  1.00  0.00     0.039 A 
HETATM   20  N   UNL     1      42.609 -15.389   5.090  1.00  0.00    -0.066 NA
HETATM   21  C   UNL     1      42.785 -17.136   3.424  1.00  0.00     0.072 C 
BRANCH  18  22
HETATM   22  O   UNL     1      39.889 -15.052  -0.286  1.00  0.00    -0.351 OA
BRANCH  22  23
HETATM   23  C   UNL     1      39.386 -14.097  -1.222  1.00  0.00     0.171 C 
HETATM   24  C   UNL     1      38.862 -14.857  -2.428  1.00  0.00     0.034 C 
ENDBRANCH  22  23
ENDBRANCH  18  22
ENDBRANCH   1  11
BRANCH   4  25
HETATM   25  C   UNL     1      43.955  -9.998   9.569  1.00  0.00     0.032 A 
HETATM   26  C   UNL     1      43.756 -10.716  10.756  1.00  0.00     0.017 A 
HETATM   27  C   UNL     1      43.417 -10.036  11.930  1.00  0.00     0.007 A 
HETATM   28  C   UNL     1      43.270  -8.645  11.930  1.00  0.00    -0.062 A 
HETATM   29  C   UNL     1      42.856  -7.914  13.176  1.00  0.00     0.048 C 
HETATM   30  C   UNL     1      43.469  -7.935  10.740  1.00  0.00     0.007 A 
HETATM   31  C   UNL     1      43.805  -8.606   9.564  1.00  0.00     0.017 A 
ENDBRANCH   4  25
TORSDOF 4
ENDMDL
MODEL 5
REMARK VINA RESULT:      -8.6      7.335      9.755
REMARK  4 active torsions:
REMARK  status: ('A' for Active; 'I' for Inactive)
REMARK    1  A    between atoms: C_2  and  O_3 
REMARK    2  A    between atoms: O_3  and  C_4 
REMARK    3  A    between atoms: C_9  and  N_10 
REMARK       I    between atoms: N_10  and  C_11 
REMARK       I    between atoms: C_11  and  N_12 
REMARK       I    between atoms: N_12  and  C_13 
REMARK    4  A    between atoms: C_13  and  C_14 
ROOT
HETATM    1  N   UNL     1      40.860 -14.619   0.061  1.00  0.00    -0.019 N 
HETATM    2  C   UNL     1      41.011 -14.713   1.438  1.00  0.00     0.693 C 
HETATM    3  N   UNL     1      41.895 -15.610   1.968  1.00  0.00    -0.155 N 
HETATM    4  C   UNL     1      42.084 -15.836   3.361  1.00  0.00     0.269 C 
HETATM    5  O   UNL     1      41.603 -15.065   4.180  1.00  0.00    -0.267 OA
HETATM    6  N   UNL     1      40.250 -13.949   2.255  1.00  0.00    -0.234 N 
HETATM    7  H   UNL     1      39.530 -13.356   1.837  1.00  0.00     0.174 HD
HETATM    8  H   UNL     1      40.361 -13.974   3.268  1.00  0.00     0.174 HD
HETATM    9  H   UNL     1      41.450 -15.153  -0.557  1.00  0.00     0.203 HD
HETATM   10  H   UNL     1      42.426 -16.171   1.320  1.00  0.00     0.187 HD
ENDROOT
BRANCH   1  11
HETATM   11  C   UNL     1      39.799 -14.065  -0.633  1.00  0.00     0.742 A 
HETATM   12  N   UNL     1      39.347 -12.893  -0.190  1.00  0.00    -0.062 NA
HETATM   13  C   UNL     1      38.409 -12.268  -0.917  1.00  0.00     0.088 A 
HETATM   14  C   UNL     1      37.911 -12.791  -2.116  1.00  0.00     0.021 A 
HETATM   15  C   UNL     1      37.922 -11.040  -0.483  1.00  0.00     0.036 A 
HETATM   16  C   UNL     1      36.968 -12.051  -2.867  1.00  0.00     0.052 A 
HETATM   17  C   UNL     1      38.426 -14.040  -2.477  1.00  0.00     0.062 A 
HETATM   18  C   UNL     1      36.530 -10.799  -2.439  1.00  0.00     0.069 A 
HETATM   19  C   UNL     1      36.990 -10.304  -1.226  1.00  0.00     0.039 A 
HETATM   20  N   UNL     1      39.360 -14.684  -1.737  1.00  0.00    -0.066 NA
HETATM   21  C   UNL     1      38.003 -14.735  -3.740  1.00  0.00     0.072 C 
BRANCH  18  22
HETATM   22  O   UNL     1      35.661 -10.174  -3.285  1.00  0.00    -0.351 OA
BRANCH  22  23
HETATM   23  C   UNL     1      34.333  -9.964  -2.803  1.00  0.00     0.171 C 
HETATM   24  C   UNL     1      33.418 -10.947  -3.512  1.00  0.00     0.034 C 
ENDBRANCH  22  23
ENDBRANCH  18  22
ENDBRANCH   1  11
BRANCH   4  25
HETATM   25  C   UNL     1      42.829 -17.051   3.761  1.00  0.00     0.032 A 
HETATM   26  C   UNL     1      43.227 -18.007   2.817  1.00  0.00     0.017 A 
HETATM   27  C   UNL     1      43.850 -19.184   3.242  1.00  0.00     0.007 A 
HETATM   28  C   UNL     1      44.077 -19.418   4.603  1.00  0.00    -0.062 A 
HETATM   29  C   UNL     1      44.699 -20.704   5.070  1.00  0.00     0.048 C 
HETATM   30  C   UNL     1      43.675 -18.459   5.539  1.00  0.00     0.007 A 
HETATM   31  C   UNL     1      43.050 -17.282   5.123  1.00  0.00     0.017 A 
ENDBRANCH   4  25
TORSDOF 4
ENDMDL
MODEL 6
REMARK VINA RESULT:      -8.5      1.897     10.413
REMARK  4 active torsions:
REMARK  status: ('A' for Active; 'I' for Inactive)
REMARK    1  A    between atoms: C_2  and  O_3 
REMARK    2  A    between atoms: O_3  and  C_4 
REMARK    3  A    between atoms: C_9  and  N_10 
REMARK       I    between atoms: N_10  and  C_11 
REMARK       I    between atoms: C_11  and  N_12 
REMARK       I    between atoms: N_12  and  C_13 
REMARK    4  A    between atoms: C_13  and  C_14 
ROOT
HETATM    1  N   UNL     1      43.616 -12.420   7.307  1.00  0.00    -0.019 N 
HETATM    2  C   UNL     1      42.783 -11.318   7.445  1.00  0.00     0.693 C 
HETATM    3  N   UNL     1      42.965 -10.452   8.486  1.00  0.00    -0.155 N 
HETATM    4  C   UNL     1      42.133  -9.330   8.762  1.00  0.00     0.269 C 
HETATM    5  O   UNL     1      41.318  -8.950   7.933  1.00  0.00    -0.267 OA
HETATM    6  N   UNL     1      41.765 -11.127   6.576  1.00  0.00    -0.234 N 
HETATM    7  H   UNL     1      41.592 -11.839   5.863  1.00  0.00     0.174 HD
HETATM    8  H   UNL     1      41.157 -10.311   6.634  1.00  0.00     0.174 HD
HETATM    9  H   UNL     1      44.402 -12.550   7.924  1.00  0.00     0.203 HD
HETATM   10  H   UNL     1      43.724 -10.646   9.120  1.00  0.00     0.187 HD
ENDROOT
BRANCH   1  11
HETATM   11  C   UNL     1      43.378 -13.568   6.571  1.00  0.00     0.742 A 
HETATM   12  N   UNL     1      43.181 -13.404   5.264  1.00  0.00    -0.062 NA
HETATM   13  C   UNL     1      43.078 -14.504   4.504  1.00  0.00     0.088 A 
HETATM   14  C   UNL     1      43.187 -15.797   5.029  1.00  0.00     0.021 A 
HETATM   15  C   UNL     1      42.878 -14.366   3.135  1.00  0.00     0.036 A 
HETATM   16  C   UNL     1      43.133 -16.914   4.162  1.00  0.00     0.052 A 
HETATM   17  C   UNL     1      43.362 -15.861   6.415  1.00  0.00     0.062 A 
HETATM   18  C   UNL     1      42.982 -16.751   2.786  1.00  0.00     0.069 A 
HETATM   19  C   UNL     1      42.826 -15.470   2.275  1.00  0.00     0.039 A 
HETATM   20  N   UNL     1      43.448 -14.753   7.189  1.00  0.00    -0.066 NA
HETATM   21  C   UNL     1      43.506 -17.172   7.134  1.00  0.00     0.072 C 
BRANCH  18  22
HETATM   22  O   UNL     1      42.997 -17.909   2.065  1.00  0.00    -0.351 OA
BRANCH  22  23
HETATM   23  C   UNL     1      43.493 -19.073   2.727  1.00  0.00     0.171 C 
HETATM   24  C   UNL     1      43.406 -20.236   1.754  1.00  0.00     0.034 C 
ENDBRANCH  22  23
ENDBRANCH  18  22
ENDBRANCH   1  11
BRANCH   4  25
HETATM   25  C   UNL     1      42.265  -8.692  10.091  1.00  0.00     0.032 A 
HETATM   26  C   UNL     1      41.660  -7.461  10.373  1.00  0.00     0.017 A 
HETATM   27  C   UNL     1      41.882  -6.846  11.609  1.00  0.00     0.007 A 
HETATM   28  C   UNL     1      42.706  -7.447  12.566  1.00  0.00    -0.062 A 
HETATM   29  C   UNL     1      42.989  -6.768  13.876  1.00  0.00     0.048 C 
HETATM   30  C   UNL     1      43.308  -8.676  12.276  1.00  0.00     0.007 A 
HETATM   31  C   UNL     1      43.095  -9.296  11.043  1.00  0.00     0.017 A 
ENDBRANCH   4  25
TORSDOF 4
ENDMDL
MODEL 7
REMARK VINA RESULT:      -8.5      1.682      2.730
REMARK  4 active torsions:
REMARK  status: ('A' for Active; 'I' for Inactive)
REMARK    1  A    between atoms: C_2  and  O_3 
REMARK    2  A    between atoms: O_3  and  C_4 
REMARK    3  A    between atoms: C_9  and  N_10 
REMARK       I    between atoms: N_10  and  C_11 
REMARK       I    between atoms: C_11  and  N_12 
REMARK       I    between atoms: N_12  and  C_13 
REMARK    4  A    between atoms: C_13  and  C_14 
ROOT
HETATM    1  N   UNL     1      42.726 -12.642   6.597  1.00  0.00    -0.019 N 
HETATM    2  C   UNL     1      42.917 -13.041   5.281  1.00  0.00     0.693 C 
HETATM    3  N   UNL     1      42.814 -14.362   4.948  1.00  0.00    -0.155 N 
HETATM    4  C   UNL     1      43.053 -14.891   3.647  1.00  0.00     0.269 C 
HETATM    5  O   UNL     1      43.156 -14.141   2.688  1.00  0.00    -0.267 OA
HETATM    6  N   UNL     1      43.249 -12.129   4.340  1.00  0.00    -0.234 N 
HETATM    7  H   UNL     1      43.413 -11.164   4.632  1.00  0.00     0.174 HD
HETATM    8  H   UNL     1      43.365 -12.389   3.360  1.00  0.00     0.174 HD
HETATM    9  H   UNL     1      42.439 -13.305   7.299  1.00  0.00     0.203 HD
HETATM   10  H   UNL     1      42.584 -15.008   5.687  1.00  0.00     0.187 HD
ENDROOT
BRANCH   1  11
HETATM   11  C   UNL     1      43.134 -11.457   7.184  1.00  0.00     0.742 A 
HETATM   12  N   UNL     1      42.441 -10.366   6.862  1.00  0.00    -0.062 NA
HETATM   13  C   UNL     1      42.727  -9.229   7.513  1.00  0.00     0.088 A 
HETATM   14  C   UNL     1      43.702  -9.156   8.515  1.00  0.00     0.021 A 
HETATM   15  C   UNL     1      42.017  -8.074   7.203  1.00  0.00     0.036 A 
HETATM   16  C   UNL     1      43.910  -7.939   9.206  1.00  0.00     0.052 A 
HETATM   17  C   UNL     1      44.394 -10.348   8.754  1.00  0.00     0.062 A 
HETATM   18  C   UNL     1      43.153  -6.807   8.914  1.00  0.00     0.069 A 
HETATM   19  C   UNL     1      42.220  -6.869   7.888  1.00  0.00     0.039 A 
HETATM   20  N   UNL     1      44.122 -11.495   8.088  1.00  0.00    -0.066 NA
HETATM   21  C   UNL     1      45.465 -10.443   9.804  1.00  0.00     0.072 C 
BRANCH  18  22
HETATM   22  O   UNL     1      43.423  -5.719   9.691  1.00  0.00    -0.351 OA
BRANCH  22  23
HETATM   23  C   UNL     1      42.308  -4.924  10.097  1.00  0.00     0.171 C 
HETATM   24  C   UNL     1      41.805  -5.467  11.422  1.00  0.00     0.034 C 
ENDBRANCH  22  23
ENDBRANCH  18  22
ENDBRANCH   1  11
BRANCH   4  25
HETATM   25  C   UNL     1      43.216 -16.358   3.526  1.00  0.00     0.032 A 
HETATM   26  C   UNL     1      43.904 -17.098   4.496  1.00  0.00     0.017 A 
HETATM   27  C   UNL     1      44.117 -18.466   4.302  1.00  0.00     0.007 A 
HETATM   28  C   UNL     1      43.651 -19.103   3.147  1.00  0.00    -0.062 A 
HETATM   29  C   UNL     1      43.921 -20.562   2.909  1.00  0.00     0.048 C 
HETATM   30  C   UNL     1      42.966 -18.356   2.182  1.00  0.00     0.007 A 
HETATM   31  C   UNL     1      42.752 -16.989   2.366  1.00  0.00     0.017 A 
ENDBRANCH   4  25
TORSDOF 4
ENDMDL
MODEL 8
REMARK VINA RESULT:      -8.4      6.777     10.554
REMARK  4 active torsions:
REMARK  status: ('A' for Active; 'I' for Inactive)
REMARK    1  A    between atoms: C_2  and  O_3 
REMARK    2  A    between atoms: O_3  and  C_4 
REMARK    3  A    between atoms: C_9  and  N_10 
REMARK       I    between atoms: N_10  and  C_11 
REMARK       I    between atoms: C_11  and  N_12 
REMARK       I    between atoms: N_12  and  C_13 
REMARK    4  A    between atoms: C_13  and  C_14 
ROOT
HETATM    1  N   UNL     1      39.566 -13.920   2.023  1.00  0.00    -0.019 N 
HETATM    2  C   UNL     1      39.867 -13.371   0.784  1.00  0.00     0.693 C 
HETATM    3  N   UNL     1      38.875 -12.819   0.024  1.00  0.00    -0.155 N 
HETATM    4  C   UNL     1      39.056 -12.288  -1.285  1.00  0.00     0.269 C 
HETATM    5  O   UNL     1      40.183 -12.099  -1.721  1.00  0.00    -0.267 OA
HETATM    6  N   UNL     1      41.133 -13.423   0.310  1.00  0.00    -0.234 N 
HETATM    7  H   UNL     1      41.837 -13.924   0.854  1.00  0.00     0.174 HD
HETATM    8  H   UNL     1      41.389 -13.000  -0.582  1.00  0.00     0.174 HD
HETATM    9  H   UNL     1      38.636 -13.851   2.403  1.00  0.00     0.203 HD
HETATM   10  H   UNL     1      37.943 -12.821   0.409  1.00  0.00     0.187 HD
ENDROOT
BRANCH   1  11
HETATM   11  C   UNL     1      40.327 -14.819   2.750  1.00  0.00     0.742 A 
HETATM   12  N   UNL     1      40.955 -15.765   2.054  1.00  0.00    -0.062 NA
HETATM   13  C   UNL     1      41.802 -16.569   2.714  1.00  0.00     0.088 A 
HETATM   14  C   UNL     1      42.057 -16.435   4.084  1.00  0.00     0.021 A 
HETATM   15  C   UNL     1      42.477 -17.562   2.014  1.00  0.00     0.036 A 
HETATM   16  C   UNL     1      43.011 -17.275   4.706  1.00  0.00     0.052 A 
HETATM   17  C   UNL     1      41.324 -15.433   4.728  1.00  0.00     0.062 A 
HETATM   18  C   UNL     1      43.713 -18.232   3.975  1.00  0.00     0.069 A 
HETATM   19  C   UNL     1      43.423 -18.394   2.628  1.00  0.00     0.039 A 
HETATM   20  N   UNL     1      40.454 -14.631   4.070  1.00  0.00    -0.066 NA
HETATM   21  C   UNL     1      41.487 -15.153   6.196  1.00  0.00     0.072 C 
BRANCH  18  22
HETATM   22  O   UNL     1      44.637 -18.936   4.690  1.00  0.00    -0.351 OA
BRANCH  22  23
HETATM   23  C   UNL     1      44.139 -19.946   5.568  1.00  0.00     0.171 C 
HETATM   24  C   UNL     1      43.750 -21.148   4.725  1.00  0.00     0.034 C 
ENDBRANCH  22  23
ENDBRANCH  18  22
ENDBRANCH   1  11
BRANCH   4  25
HETATM   25  C   UNL     1      37.842 -12.029  -2.091  1.00  0.00     0.032 A 
HETATM   26  C   UNL     1      37.282 -10.748  -2.178  1.00  0.00     0.017 A 
HETATM   27  C   UNL     1      36.084 -10.559  -2.874  1.00  0.00     0.007 A 
HETATM   28  C   UNL     1      35.438 -11.640  -3.484  1.00  0.00    -0.062 A 
HETATM   29  C   UNL     1      34.125 -11.453  -4.191  1.00  0.00     0.048 C 
HETATM   30  C   UNL     1      36.003 -12.917  -3.392  1.00  0.00     0.007 A 
HETATM   31  C   UNL     1      37.196 -13.114  -2.696  1.00  0.00     0.017 A 
ENDBRANCH   4  25
TORSDOF 4
ENDMDL
MODEL 9
REMARK VINA RESULT:      -8.0      6.835      9.228
REMARK  4 active torsions:
REMARK  status: ('A' for Active; 'I' for Inactive)
REMARK    1  A    between atoms: C_2  and  O_3 
REMARK    2  A    between atoms: O_3  and  C_4 
REMARK    3  A    between atoms: C_9  and  N_10 
REMARK       I    between atoms: N_10  and  C_11 
REMARK       I    between atoms: C_11  and  N_12 
REMARK       I    between atoms: N_12  and  C_13 
REMARK    4  A    between atoms: C_13  and  C_14 
ROOT
HETATM    1  N   UNL     1      41.849 -13.847   0.758  1.00  0.00    -0.019 N 
HETATM    2  C   UNL     1      42.021 -14.046   2.121  1.00  0.00     0.693 C 
HETATM    3  N   UNL     1      42.688 -15.151   2.569  1.00  0.00    -0.155 N 
HETATM    4  C   UNL     1      42.866 -15.489   3.941  1.00  0.00     0.269 C 
HETATM    5  O   UNL     1      42.608 -14.673   4.814  1.00  0.00    -0.267 OA
HETATM    6  N   UNL     1      41.489 -13.172   3.005  1.00  0.00    -0.234 N 
HETATM    7  H   UNL     1      40.914 -12.406   2.647  1.00  0.00     0.174 HD
HETATM    8  H   UNL     1      41.625 -13.276   4.010  1.00  0.00     0.174 HD
HETATM    9  H   UNL     1      42.276 -14.468   0.090  1.00  0.00     0.203 HD
HETATM   10  H   UNL     1      43.050 -15.785   1.875  1.00  0.00     0.187 HD
ENDROOT
BRANCH   1  11
HETATM   11  C   UNL     1      40.924 -13.024   0.138  1.00  0.00     0.742 A 
HETATM   12  N   UNL     1      40.061 -13.616  -0.686  1.00  0.00    -0.062 NA
HETATM   13  C   UNL     1      39.072 -12.869  -1.198  1.00  0.00     0.088 A 
HETATM   14  C   UNL     1      38.909 -11.515  -0.885  1.00  0.00     0.021 A 
HETATM   15  C   UNL     1      38.152 -13.460  -2.057  1.00  0.00     0.036 A 
HETATM   16  C   UNL     1      37.807 -10.800  -1.410  1.00  0.00     0.052 A 
HETATM   17  C   UNL     1      39.885 -10.981  -0.037  1.00  0.00     0.062 A 
HETATM   18  C   UNL     1      36.869 -11.424  -2.229  1.00  0.00     0.069 A 
HETATM   19  C   UNL     1      37.059 -12.755  -2.576  1.00  0.00     0.039 A 
HETATM   20  N   UNL     1      40.897 -11.727   0.468  1.00  0.00    -0.066 NA
HETATM   21  C   UNL     1      39.851  -9.545   0.404  1.00  0.00     0.072 C 
BRANCH  18  22
HETATM   22  O   UNL     1      35.831 -10.631  -2.622  1.00  0.00    -0.351 OA
BRANCH  22  23
HETATM   23  C   UNL     1      35.589 -10.534  -4.026  1.00  0.00     0.171 C 
HETATM   24  C   UNL     1      34.218 -11.123  -4.306  1.00  0.00     0.034 C 
ENDBRANCH  22  23
ENDBRANCH  18  22
ENDBRANCH   1  11
BRANCH   4  25
HETATM   25  C   UNL     1      43.319 -16.864   4.252  1.00  0.00     0.032 A 
HETATM   26  C   UNL     1      43.662 -17.767   3.238  1.00  0.00     0.017 A 
HETATM   27  C   UNL     1      43.999 -19.084   3.566  1.00  0.00     0.007 A 
HETATM   28  C   UNL     1      43.994 -19.509   4.898  1.00  0.00    -0.062 A 
HETATM   29  C   UNL     1      44.306 -20.936   5.253  1.00  0.00     0.048 C 
HETATM   30  C   UNL     1      43.650 -18.601   5.906  1.00  0.00     0.007 A 
HETATM   31  C   UNL     1      43.309 -17.286   5.587  1.00  0.00     0.017 A 
ENDBRANCH   4  25
TORSDOF 4
ENDMDL
MODEL 10
REMARK VINA RESULT:      -8.0      6.774      8.769
REMARK  4 active torsions:
REMARK  status: ('A' for Active; 'I' for Inactive)
REMARK    1  A    between atoms: C_2  and  O_3 
REMARK    2  A    between atoms: O_3  and  C_4 
REMARK    3  A    between atoms: C_9  and  N_10 
REMARK       I    between atoms: N_10  and  C_11 
REMARK       I    between atoms: C_11  and  N_12 
REMARK       I    between atoms: N_12  and  C_13 
REMARK    4  A    between atoms: C_13  and  C_14 
ROOT
HETATM    1  N   UNL     1      41.036 -13.880   0.056  1.00  0.00    -0.019 N 
HETATM    2  C   UNL     1      41.689 -13.875   1.282  1.00  0.00     0.693 C 
HETATM    3  N   UNL     1      42.293 -15.013   1.737  1.00  0.00    -0.155 N 
HETATM    4  C   UNL     1      42.933 -15.140   3.003  1.00  0.00     0.269 C 
HETATM    5  O   UNL     1      43.166 -14.147   3.677  1.00  0.00    -0.267 OA
HETATM    6  N   UNL     1      41.687 -12.758   2.045  1.00  0.00    -0.234 N 
HETATM    7  H   UNL     1      41.148 -11.951   1.726  1.00  0.00     0.174 HD
HETATM    8  H   UNL     1      42.184 -12.716   2.934  1.00  0.00     0.174 HD
HETATM    9  H   UNL     1      41.066 -14.692  -0.538  1.00  0.00     0.203 HD
HETATM   10  H   UNL     1      42.252 -15.826   1.143  1.00  0.00     0.187 HD
ENDROOT
BRANCH   1  11
HETATM   11  C   UNL     1      40.087 -12.979  -0.394  1.00  0.00     0.742 A 
HETATM   12  N   UNL     1      39.129 -12.645   0.470  1.00  0.00    -0.062 NA
HETATM   13  C   UNL     1      38.273 -11.678   0.110  1.00  0.00     0.088 A 
HETATM   14  C   UNL     1      38.362 -11.007  -1.115  1.00  0.00     0.021 A 
HETATM   15  C   UNL     1      37.266 -11.302   0.993  1.00  0.00     0.036 A 
HETATM   16  C   UNL     1      37.464  -9.953  -1.406  1.00  0.00     0.052 A 
HETATM   17  C   UNL     1      39.381 -11.454  -1.962  1.00  0.00     0.062 A 
HETATM   18  C   UNL     1      36.494  -9.559  -0.486  1.00  0.00     0.069 A 
HETATM   19  C   UNL     1      36.377 -10.257   0.708  1.00  0.00     0.039 A 
HETATM   20  N   UNL     1      40.237 -12.443  -1.612  1.00  0.00    -0.066 NA
HETATM   21  C   UNL     1      39.618 -10.834  -3.310  1.00  0.00     0.072 C 
BRANCH  18  22
HETATM   22  O   UNL     1      35.732  -8.497  -0.875  1.00  0.00    -0.351 OA
BRANCH  22  23
HETATM   23  C   UNL     1      34.322  -8.606  -0.669  1.00  0.00     0.171 C 
HETATM   24  C   UNL     1      33.746  -9.422  -1.812  1.00  0.00     0.034 C 
ENDBRANCH  22  23
ENDBRANCH  18  22
ENDBRANCH   1  11
BRANCH   4  25
HETATM   25  C   UNL     1      43.248 -16.508   3.474  1.00  0.00     0.032 A 
HETATM   26  C   UNL     1      43.618 -16.755   4.802  1.00  0.00     0.017 A 
HETATM   27  C   UNL     1      43.996 -18.045   5.188  1.00  0.00     0.007 A 
HETATM   28  C   UNL     1      44.009 -19.091   4.259  1.00  0.00    -0.062 A 
HETATM   29  C   UNL     1      44.462 -20.468   4.656  1.00  0.00     0.048 C 
HETATM   30  C   UNL     1      43.639 -18.836   2.935  1.00  0.00     0.007 A 
HETATM   31  C   UNL     1      43.263 -17.550   2.540  1.00  0.00     0.017 A 
ENDBRANCH   4  25
TORSDOF 4
ENDMDL
