MODEL 1
REMARK VINA RESULT:      -9.5      0.000      0.000
REMARK  7 active torsions:
REMARK  status: ('A' for Active; 'I' for Inactive)
REMARK    1  A    between atoms: C_5  and  C_6 
REMARK    2  A    between atoms: C_6  and  C_7 
REMARK    3  A    between atoms: C_7  and  N_8 
REMARK       I    between atoms: N_8  and  C_9 
REMARK    4  A    between atoms: C_9  and  C_10 
REMARK    5  A    between atoms: C_13  and  O_14 
REMARK    6  A    between atoms: C_15  and  C_16 
REMARK    7  A    between atoms: C_16  and  C_17 
ROOT
HETATM    1  C   UNL     1      43.239 -10.912   6.581  1.00  0.00     0.099 A 
HETATM    2  C   UNL     1      42.779 -12.216   6.560  1.00  0.00     0.171 A 
HETATM    3  N   UNL     1      41.642 -12.213   5.766  1.00  0.00    -0.192 N 
HETATM    4  C   UNL     1      40.986 -13.405   5.434  1.00  0.00     0.174 C 
HETATM    5  C   UNL     1      41.448 -14.587   5.892  1.00  0.00     0.023 C 
HETATM    6  C   UNL     1      42.605 -14.468   6.862  1.00  0.00     0.044 C 
HETATM    7  C   UNL     1      43.073 -15.699   7.608  1.00  0.00     0.071 C 
HETATM    8  N   UNL     1      43.243 -13.363   7.139  1.00  0.00    -0.233 NA
HETATM    9  N   UNL     1      41.313 -10.967   5.334  1.00  0.00    -0.175 NA
HETATM   10  C   UNL     1      42.287 -10.196   5.824  1.00  0.00     0.160 A 
ENDROOT
BRANCH   1  11
HETATM   11  C   UNL     1      44.434 -10.389   7.214  1.00  0.00     0.257 C 
HETATM   12  N   UNL     1      44.210  -9.361   8.101  1.00  0.00    -0.356 N 
HETATM   13  H   UNL     1      43.241  -9.088   8.259  1.00  0.00     0.162 HD
HETATM   14  O   UNL     1      45.544 -10.858   6.989  1.00  0.00    -0.267 OA
BRANCH  12  15
HETATM   15  C   UNL     1      45.258  -8.839   8.949  1.00  0.00     0.127 C 
BRANCH  15  16
HETATM   16  C   UNL     1      45.450  -9.691  10.202  1.00  0.00     0.058 C 
BRANCH  16  17
HETATM   17  C   UNL     1      44.290  -9.562  11.155  1.00  0.00    -0.057 A 
HETATM   18  C   UNL     1      43.874  -8.303  11.599  1.00  0.00     0.007 A 
HETATM   19  C   UNL     1      42.814  -8.183  12.501  1.00  0.00     0.007 A 
HETATM   20  C   UNL     1      42.161  -9.323  12.984  1.00  0.00    -0.062 A 
HETATM   21  C   UNL     1      41.013  -9.206  13.942  1.00  0.00     0.048 C 
HETATM   22  C   UNL     1      42.576 -10.583  12.538  1.00  0.00     0.007 A 
HETATM   23  C   UNL     1      43.634 -10.702  11.635  1.00  0.00     0.007 A 
ENDBRANCH  16  17
ENDBRANCH  15  16
ENDBRANCH  12  15
ENDBRANCH   1  11
BRANCH   4  24
HETATM   24  O   UNL     1      39.899 -13.329   4.573  1.00  0.00    -0.344 OA
HETATM   25  H   UNL     1      39.337 -12.603   4.924  1.00  0.00     0.219 HD
ENDBRANCH   4  24
BRANCH   5  26
HETATM   26  C   UNL     1      40.886 -15.921   5.474  1.00  0.00     0.084 C 
BRANCH  26  27
HETATM   27  C   UNL     1      41.649 -16.622   4.361  1.00  0.00    -0.047 A 
HETATM   28  C   UNL     1      41.287 -16.539   2.999  1.00  0.00    -0.055 A 
HETATM   29  C   UNL     1      40.090 -15.763   2.519  1.00  0.00     0.049 C 
HETATM   30  C   UNL     1      42.084 -17.182   2.037  1.00  0.00     0.008 A 
HETATM   31  C   UNL     1      43.200 -17.931   2.408  1.00  0.00     0.007 A 
HETATM   32  C   UNL     1      43.551 -18.052   3.751  1.00  0.00    -0.061 A 
HETATM   33  C   UNL     1      44.723 -18.893   4.164  1.00  0.00     0.048 C 
HETATM   34  C   UNL     1      42.763 -17.414   4.716  1.00  0.00     0.014 A 
ENDBRANCH  26  27
ENDBRANCH   5  26
TORSDOF 7
ENDMDL
MODEL 2
REMARK VINA RESULT:      -9.5      1.834      9.642
REMARK  7 active torsions:
REMARK  status: ('A' for Active; 'I' for Inactive)
REMARK    1  A    between atoms: C_5  and  C_6 
REMARK    2  A    between atoms: C_6  and  C_7 
REMARK    3  A    between atoms: C_7  and  N_8 
REMARK       I    between atoms: N_8  and  C_9 
REMARK    4  A    between atoms: C_9  and  C_10 
REMARK    5  A    between atoms: C_13  and  O_14 
REMARK    6  A    between atoms: C_15  and  C_16 
REMARK    7  A    between atoms: C_16  and  C_17 
ROOT
HETATM    1  C   UNL     1      41.490 -12.854   5.991  1.00  0.00     0.099 A 
HETATM    2  C   UNL     1      42.403 -11.919   6.446  1.00  0.00     0.171 A 
HETATM    3  N   UNL     1      41.705 -10.728   6.578  1.00  0.00    -0.192 N 
HETATM    4  C   UNL     1      42.307  -9.594   7.136  1.00  0.00     0.174 C 
HETATM    5  C   UNL     1      43.590  -9.637   7.551  1.00  0.00     0.023 C 
HETATM    6  C   UNL     1      44.302 -10.936   7.234  1.00  0.00     0.044 C 
HETATM    7  C   UNL     1      45.795 -11.032   7.454  1.00  0.00     0.071 C 
HETATM    8  N   UNL     1      43.731 -12.007   6.752  1.00  0.00    -0.233 NA
HETATM    9  N   UNL     1      40.414 -10.833   6.167  1.00  0.00    -0.175 NA
HETATM   10  C   UNL     1      40.296 -12.119   5.825  1.00  0.00     0.160 A 
ENDROOT
BRANCH   1  11
HETATM   11  C   UNL     1      41.693 -14.269   5.751  1.00  0.00     0.257 C 
HETATM   12  N   UNL     1      42.542 -14.886   6.640  1.00  0.00    -0.356 N 
HETATM   13  H   UNL     1      42.918 -14.314   7.395  1.00  0.00     0.162 HD
HETATM   14  O   UNL     1      41.119 -14.859   4.843  1.00  0.00    -0.267 OA
BRANCH  12  15
HETATM   15  C   UNL     1      42.722 -16.320   6.659  1.00  0.00     0.127 C 
BRANCH  15  16
HETATM   16  C   UNL     1      44.065 -16.730   6.057  1.00  0.00     0.058 C 
BRANCH  16  17
HETATM   17  C   UNL     1      43.899 -17.696   4.913  1.00  0.00    -0.057 A 
HETATM   18  C   UNL     1      44.205 -19.051   5.078  1.00  0.00     0.007 A 
HETATM   19  C   UNL     1      44.075 -19.944   4.012  1.00  0.00     0.007 A 
HETATM   20  C   UNL     1      43.647 -19.494   2.758  1.00  0.00    -0.062 A 
HETATM   21  C   UNL     1      43.490 -20.445   1.610  1.00  0.00     0.048 C 
HETATM   22  C   UNL     1      43.338 -18.139   2.593  1.00  0.00     0.007 A 
HETATM   23  C   UNL     1      43.467 -17.246   3.659  1.00  0.00     0.007 A 
ENDBRANCH  16  17
ENDBRANCH  15  16
ENDBRANCH  12  15
ENDBRANCH   1  11
BRANCH   4  24
HETATM   24  O   UNL     1      41.522  -8.460   7.305  1.00  0.00    -0.344 OA
HETATM   25  H   UNL     1      40.981  -8.392   6.487  1.00  0.00     0.219 HD
ENDBRANCH   4  24
BRANCH   5  26
HETATM   26  C   UNL     1      44.269  -8.509   8.283  1.00  0.00     0.084 C 
BRANCH  26  27
HETATM   27  C   UNL     1      43.741  -8.238   9.684  1.00  0.00    -0.047 A 
HETATM   28  C   UNL     1      44.046  -9.048  10.799  1.00  0.00    -0.055 A 
HETATM   29  C   UNL     1      44.910 -10.276  10.704  1.00  0.00     0.049 C 
HETATM   30  C   UNL     1      43.550  -8.687  12.063  1.00  0.00     0.008 A 
HETATM   31  C   UNL     1      42.732  -7.570  12.227  1.00  0.00     0.007 A 
HETATM   32  C   UNL     1      42.392  -6.780  11.130  1.00  0.00    -0.061 A 
HETATM   33  C   UNL     1      41.476  -5.604  11.287  1.00  0.00     0.048 C 
HETATM   34  C   UNL     1      42.883  -7.132   9.866  1.00  0.00     0.014 A 
ENDBRANCH  26  27
ENDBRANCH   5  26
TORSDOF 7
ENDMDL
MODEL 3
REMARK VINA RESULT:      -9.5      1.827      2.632
REMARK  7 active torsions:
REMARK  status: ('A' for Active; 'I' for Inactive)
REMARK    1  A    between atoms: C_5  and  C_6 
REMARK    2  A    between atoms: C_6  and  C_7 
REMARK    3  A    between atoms: C_7  and  N_8 
REMARK       I    between atoms: N_8  and  C_9 
REMARK    4  A    between atoms: C_9  and  C_10 
REMARK    5  A    between atoms: C_13  and  O_14 
REMARK    6  A    between atoms: C_15  and  C_16 
REMARK    7  A    between atoms: C_16  and  C_17 
ROOT
HETATM    1  C   UNL     1      44.565 -10.982   7.409  1.00  0.00     0.099 A 
HETATM    2  C   UNL     1      43.574 -11.516   6.606  1.00  0.00     0.171 A 
HETATM    3  N   UNL     1      44.130 -11.651   5.342  1.00  0.00    -0.192 N 
HETATM    4  C   UNL     1      43.429 -12.278   4.305  1.00  0.00     0.174 C 
HETATM    5  C   UNL     1      42.185 -12.757   4.515  1.00  0.00     0.023 C 
HETATM    6  C   UNL     1      41.618 -12.434   5.882  1.00  0.00     0.044 C 
HETATM    7  C   UNL     1      40.161 -12.729   6.164  1.00  0.00     0.071 C 
HETATM    8  N   UNL     1      42.285 -11.887   6.862  1.00  0.00    -0.233 NA
HETATM    9  N   UNL     1      45.400 -11.170   5.279  1.00  0.00    -0.175 NA
HETATM   10  C   UNL     1      45.652 -10.779   6.531  1.00  0.00     0.160 A 
ENDROOT
BRANCH   1  11
HETATM   11  C   UNL     1      44.520 -10.706   8.832  1.00  0.00     0.257 C 
HETATM   12  N   UNL     1      43.288 -10.313   9.302  1.00  0.00    -0.356 N 
HETATM   13  H   UNL     1      42.523 -10.286   8.629  1.00  0.00     0.162 HD
HETATM   14  O   UNL     1      45.504 -10.848   9.549  1.00  0.00    -0.267 OA
BRANCH  12  15
HETATM   15  C   UNL     1      43.018 -10.167  10.715  1.00  0.00     0.127 C 
BRANCH  15  16
HETATM   16  C   UNL     1      43.405  -8.780  11.224  1.00  0.00     0.058 C 
BRANCH  16  17
HETATM   17  C   UNL     1      42.855  -8.510  12.600  1.00  0.00    -0.057 A 
HETATM   18  C   UNL     1      41.795  -9.273  13.102  1.00  0.00     0.007 A 
HETATM   19  C   UNL     1      41.268  -9.009  14.369  1.00  0.00     0.007 A 
HETATM   20  C   UNL     1      41.785  -7.969  15.150  1.00  0.00    -0.062 A 
HETATM   21  C   UNL     1      41.236  -7.685  16.516  1.00  0.00     0.048 C 
HETATM   22  C   UNL     1      42.846  -7.207  14.649  1.00  0.00     0.007 A 
HETATM   23  C   UNL     1      43.374  -7.472  13.383  1.00  0.00     0.007 A 
ENDBRANCH  16  17
ENDBRANCH  15  16
ENDBRANCH  12  15
ENDBRANCH   1  11
BRANCH   4  24
HETATM   24  O   UNL     1      44.081 -12.443   3.090  1.00  0.00    -0.344 OA
HETATM   25  H   UNL     1      44.572 -13.291   3.169  1.00  0.00     0.219 HD
ENDBRANCH   4  24
BRANCH   5  26
HETATM   26  C   UNL     1      41.418 -13.562   3.498  1.00  0.00     0.084 C 
BRANCH  26  27
HETATM   27  C   UNL     1      41.891 -14.996   3.320  1.00  0.00    -0.047 A 
HETATM   28  C   UNL     1      41.436 -15.841   2.285  1.00  0.00    -0.055 A 
HETATM   29  C   UNL     1      40.415 -15.408   1.267  1.00  0.00     0.049 C 
HETATM   30  C   UNL     1      41.970 -17.135   2.172  1.00  0.00     0.008 A 
HETATM   31  C   UNL     1      42.909 -17.612   3.087  1.00  0.00     0.007 A 
HETATM   32  C   UNL     1      43.343 -16.803   4.135  1.00  0.00    -0.061 A 
HETATM   33  C   UNL     1      44.317 -17.321   5.150  1.00  0.00     0.048 C 
HETATM   34  C   UNL     1      42.817 -15.510   4.254  1.00  0.00     0.014 A 
ENDBRANCH  26  27
ENDBRANCH   5  26
TORSDOF 7
ENDMDL
MODEL 4
REMARK VINA RESULT:      -9.5      1.848      9.367
REMARK  7 active torsions:
REMARK  status: ('A' for Active; 'I' for Inactive)
REMARK    1  A    between atoms: C_5  and  C_6 
REMARK    2  A    between atoms: C_6  and  C_7 
REMARK    3  A    between atoms: C_7  and  N_8 
REMARK       I    between atoms: N_8  and  C_9 
REMARK    4  A    between atoms: C_9  and  C_10 
REMARK    5  A    between atoms: C_13  and  O_14 
REMARK    6  A    between atoms: C_15  and  C_16 
REMARK    7  A    between atoms: C_16  and  C_17 
ROOT
HETATM    1  C   UNL     1      41.148 -13.254   5.889  1.00  0.00     0.099 A 
HETATM    2  C   UNL     1      41.987 -12.237   6.308  1.00  0.00     0.171 A 
HETATM    3  N   UNL     1      41.192 -11.108   6.438  1.00  0.00    -0.192 N 
HETATM    4  C   UNL     1      41.707  -9.917   6.964  1.00  0.00     0.174 C 
HETATM    5  C   UNL     1      42.998  -9.842   7.348  1.00  0.00     0.023 C 
HETATM    6  C   UNL     1      43.812 -11.081   7.034  1.00  0.00     0.044 C 
HETATM    7  C   UNL     1      45.313 -11.045   7.220  1.00  0.00     0.071 C 
HETATM    8  N   UNL     1      43.325 -12.206   6.583  1.00  0.00    -0.233 NA
HETATM    9  N   UNL     1      39.906 -11.331   6.060  1.00  0.00    -0.175 NA
HETATM   10  C   UNL     1      39.891 -12.628   5.741  1.00  0.00     0.160 A 
ENDROOT
BRANCH   1  11
HETATM   11  C   UNL     1      41.466 -14.651   5.667  1.00  0.00     0.257 C 
HETATM   12  N   UNL     1      42.265 -15.218   6.632  1.00  0.00    -0.356 N 
HETATM   13  H   UNL     1      42.528 -14.629   7.421  1.00  0.00     0.162 HD
HETATM   14  O   UNL     1      41.023 -15.270   4.706  1.00  0.00    -0.267 OA
BRANCH  12  15
HETATM   15  C   UNL     1      42.537 -16.638   6.664  1.00  0.00     0.127 C 
BRANCH  15  16
HETATM   16  C   UNL     1      43.922 -16.962   6.107  1.00  0.00     0.058 C 
BRANCH  16  17
HETATM   17  C   UNL     1      43.850 -17.890   4.922  1.00  0.00    -0.057 A 
HETATM   18  C   UNL     1      43.505 -17.402   3.658  1.00  0.00     0.007 A 
HETATM   19  C   UNL     1      43.415 -18.266   2.563  1.00  0.00     0.007 A 
HETATM   20  C   UNL     1      43.657 -19.635   2.719  1.00  0.00    -0.062 A 
HETATM   21  C   UNL     1      43.577 -20.569   1.549  1.00  0.00     0.048 C 
HETATM   22  C   UNL     1      44.004 -20.124   3.983  1.00  0.00     0.007 A 
HETATM   23  C   UNL     1      44.095 -19.260   5.077  1.00  0.00     0.007 A 
ENDBRANCH  16  17
ENDBRANCH  15  16
ENDBRANCH  12  15
ENDBRANCH   1  11
BRANCH   4  24
HETATM   24  O   UNL     1      40.831  -8.852   7.134  1.00  0.00    -0.344 OA
HETATM   25  H   UNL     1      40.474  -8.661   6.238  1.00  0.00     0.219 HD
ENDBRANCH   4  24
BRANCH   5  26
HETATM   26  C   UNL     1      43.594  -8.648   8.046  1.00  0.00     0.084 C 
BRANCH  26  27
HETATM   27  C   UNL     1      43.396  -8.616   9.554  1.00  0.00    -0.047 A 
HETATM   28  C   UNL     1      43.106  -7.437  10.275  1.00  0.00    -0.055 A 
HETATM   29  C   UNL     1      42.989  -6.088   9.619  1.00  0.00     0.049 C 
HETATM   30  C   UNL     1      42.890  -7.517  11.661  1.00  0.00     0.008 A 
HETATM   31  C   UNL     1      42.996  -8.731  12.340  1.00  0.00     0.007 A 
HETATM   32  C   UNL     1      43.315  -9.898  11.648  1.00  0.00    -0.061 A 
HETATM   33  C   UNL     1      43.476 -11.199  12.376  1.00  0.00     0.048 C 
HETATM   34  C   UNL     1      43.531  -9.828  10.267  1.00  0.00     0.014 A 
ENDBRANCH  26  27
ENDBRANCH   5  26
TORSDOF 7
ENDMDL
MODEL 5
REMARK VINA RESULT:      -9.4      2.142     10.195
REMARK  7 active torsions:
REMARK  status: ('A' for Active; 'I' for Inactive)
REMARK    1  A    between atoms: C_5  and  C_6 
REMARK    2  A    between atoms: C_6  and  C_7 
REMARK    3  A    between atoms: C_7  and  N_8 
REMARK       I    between atoms: N_8  and  C_9 
REMARK    4  A    between atoms: C_9  and  C_10 
REMARK    5  A    between atoms: C_13  and  O_14 
REMARK    6  A    between atoms: C_15  and  C_16 
REMARK    7  A    between atoms: C_16  and  C_17 
ROOT
HETATM    1  C   UNL     1      44.137 -11.787   6.638  1.00  0.00     0.099 A 
HETATM    2  C   UNL     1      43.545 -10.689   7.235  1.00  0.00     0.171 A 
HETATM    3  N   UNL     1      44.582  -9.873   7.662  1.00  0.00    -0.192 N 
HETATM    4  C   UNL     1      44.331  -8.609   8.209  1.00  0.00     0.174 C 
HETATM    5  C   UNL     1      43.065  -8.162   8.341  1.00  0.00     0.023 C 
HETATM    6  C   UNL     1      42.006  -9.182   7.978  1.00  0.00     0.044 C 
HETATM    7  C   UNL     1      40.555  -8.879   8.282  1.00  0.00     0.071 C 
HETATM    8  N   UNL     1      42.238 -10.344   7.429  1.00  0.00    -0.233 NA
HETATM    9  N   UNL     1      45.804 -10.421   7.430  1.00  0.00    -0.175 NA
HETATM   10  C   UNL     1      45.522 -11.568   6.806  1.00  0.00     0.160 A 
ENDROOT
BRANCH   1  11
HETATM   11  C   UNL     1      43.498 -12.904   5.971  1.00  0.00     0.257 C 
HETATM   12  N   UNL     1      43.891 -14.143   6.422  1.00  0.00    -0.356 N 
HETATM   13  H   UNL     1      44.556 -14.166   7.195  1.00  0.00     0.162 HD
HETATM   14  O   UNL     1      42.653 -12.739   5.098  1.00  0.00    -0.267 OA
BRANCH  12  15
HETATM   15  C   UNL     1      43.233 -15.358   5.996  1.00  0.00     0.127 C 
BRANCH  15  16
HETATM   16  C   UNL     1      44.164 -16.566   6.081  1.00  0.00     0.058 C 
BRANCH  16  17
HETATM   17  C   UNL     1      43.939 -17.532   4.947  1.00  0.00    -0.057 A 
HETATM   18  C   UNL     1      44.235 -18.890   5.104  1.00  0.00     0.007 A 
HETATM   19  C   UNL     1      44.049 -19.784   4.046  1.00  0.00     0.007 A 
HETATM   20  C   UNL     1      43.576 -19.331   2.810  1.00  0.00    -0.062 A 
HETATM   21  C   UNL     1      43.360 -20.283   1.672  1.00  0.00     0.048 C 
HETATM   22  C   UNL     1      43.278 -17.973   2.653  1.00  0.00     0.007 A 
HETATM   23  C   UNL     1      43.462 -17.080   3.711  1.00  0.00     0.007 A 
ENDBRANCH  16  17
ENDBRANCH  15  16
ENDBRANCH  12  15
ENDBRANCH   1  11
BRANCH   4  24
HETATM   24  O   UNL     1      45.424  -7.819   8.543  1.00  0.00    -0.344 OA
HETATM   25  H   UNL     1      45.668  -8.083   9.458  1.00  0.00     0.219 HD
ENDBRANCH   4  24
BRANCH   5  26
HETATM   26  C   UNL     1      42.714  -6.768   8.790  1.00  0.00     0.084 C 
BRANCH  26  27
HETATM   27  C   UNL     1      42.589  -6.586  10.295  1.00  0.00    -0.047 A 
HETATM   28  C   UNL     1      42.366  -5.336  10.911  1.00  0.00    -0.055 A 
HETATM   29  C   UNL     1      42.252  -4.052  10.134  1.00  0.00     0.049 C 
HETATM   30  C   UNL     1      42.214  -5.277  12.306  1.00  0.00     0.008 A 
HETATM   31  C   UNL     1      42.321  -6.423  13.094  1.00  0.00     0.007 A 
HETATM   32  C   UNL     1      42.576  -7.659  12.505  1.00  0.00    -0.061 A 
HETATM   33  C   UNL     1      42.739  -8.890  13.346  1.00  0.00     0.048 C 
HETATM   34  C   UNL     1      42.728  -7.728  11.114  1.00  0.00     0.014 A 
ENDBRANCH  26  27
ENDBRANCH   5  26
TORSDOF 7
ENDMDL
MODEL 6
REMARK VINA RESULT:      -9.4      4.527      8.277
REMARK  7 active torsions:
REMARK  status: ('A' for Active; 'I' for Inactive)
REMARK    1  A    between atoms: C_5  and  C_6 
REMARK    2  A    between atoms: C_6  and  C_7 
REMARK    3  A    between atoms: C_7  and  N_8 
REMARK       I    between atoms: N_8  and  C_9 
REMARK    4  A    between atoms: C_9  and  C_10 
REMARK    5  A    between atoms: C_13  and  O_14 
REMARK    6  A    between atoms: C_15  and  C_16 
REMARK    7  A    between atoms: C_16  and  C_17 
ROOT
HETATM    1  C   UNL     1      42.998 -12.638   4.772  1.00  0.00     0.099 A 
HETATM    2  C   UNL     1      41.978 -12.325   3.892  1.00  0.00     0.171 A 
HETATM    3  N   UNL     1      42.459 -11.301   3.090  1.00  0.00    -0.192 N 
HETATM    4  C   UNL     1      41.717 -10.822   2.004  1.00  0.00     0.174 C 
HETATM    5  C   UNL     1      40.507 -11.346   1.720  1.00  0.00     0.023 C 
HETATM    6  C   UNL     1      40.014 -12.356   2.737  1.00  0.00     0.044 C 
HETATM    7  C   UNL     1      38.589 -12.856   2.649  1.00  0.00     0.071 C 
HETATM    8  N   UNL     1      40.721 -12.833   3.725  1.00  0.00    -0.233 NA
HETATM    9  N   UNL     1      43.705 -10.897   3.454  1.00  0.00    -0.175 NA
HETATM   10  C   UNL     1      44.020 -11.716   4.461  1.00  0.00     0.160 A 
ENDROOT
BRANCH   1  11
HETATM   11  C   UNL     1      43.032 -13.683   5.777  1.00  0.00     0.257 C 
HETATM   12  N   UNL     1      42.427 -14.860   5.402  1.00  0.00    -0.356 N 
HETATM   13  H   UNL     1      42.049 -14.906   4.457  1.00  0.00     0.162 HD
HETATM   14  O   UNL     1      43.588 -13.522   6.858  1.00  0.00    -0.267 OA
BRANCH  12  15
HETATM   15  C   UNL     1      42.519 -16.058   6.206  1.00  0.00     0.127 C 
BRANCH  15  16
HETATM   16  C   UNL     1      43.849 -16.779   5.998  1.00  0.00     0.058 C 
BRANCH  16  17
HETATM   17  C   UNL     1      43.779 -17.781   4.876  1.00  0.00    -0.057 A 
HETATM   18  C   UNL     1      44.072 -19.129   5.110  1.00  0.00     0.007 A 
HETATM   19  C   UNL     1      44.031 -20.056   4.065  1.00  0.00     0.007 A 
HETATM   20  C   UNL     1      43.707 -19.648   2.767  1.00  0.00    -0.062 A 
HETATM   21  C   UNL     1      43.646 -20.636   1.641  1.00  0.00     0.048 C 
HETATM   22  C   UNL     1      43.412 -18.300   2.533  1.00  0.00     0.007 A 
HETATM   23  C   UNL     1      43.452 -17.373   3.577  1.00  0.00     0.007 A 
ENDBRANCH  16  17
ENDBRANCH  15  16
ENDBRANCH  12  15
ENDBRANCH   1  11
BRANCH   4  24
HETATM   24  O   UNL     1      42.298  -9.848   1.202  1.00  0.00    -0.344 OA
HETATM   25  H   UNL     1      43.064  -9.508   1.715  1.00  0.00     0.219 HD
ENDBRANCH   4  24
BRANCH   5  26
HETATM   26  C   UNL     1      39.706 -10.986   0.496  1.00  0.00     0.084 C 
BRANCH  26  27
HETATM   27  C   UNL     1      40.017 -11.810  -0.744  1.00  0.00    -0.047 A 
HETATM   28  C   UNL     1      40.844 -11.354  -1.792  1.00  0.00    -0.055 A 
HETATM   29  C   UNL     1      41.483  -9.992  -1.794  1.00  0.00     0.049 C 
HETATM   30  C   UNL     1      41.113 -12.209  -2.875  1.00  0.00     0.008 A 
HETATM   31  C   UNL     1      40.544 -13.481  -2.949  1.00  0.00     0.007 A 
HETATM   32  C   UNL     1      39.697 -13.932  -1.939  1.00  0.00    -0.061 A 
HETATM   33  C   UNL     1      39.045 -15.280  -2.032  1.00  0.00     0.048 C 
HETATM   34  C   UNL     1      39.425 -13.087  -0.856  1.00  0.00     0.014 A 
ENDBRANCH  26  27
ENDBRANCH   5  26
TORSDOF 7
ENDMDL
MODEL 7
REMARK VINA RESULT:      -9.3      1.896      9.218
REMARK  7 active torsions:
REMARK  status: ('A' for Active; 'I' for Inactive)
REMARK    1  A    between atoms: C_5  and  C_6 
REMARK    2  A    between atoms: C_6  and  C_7 
REMARK    3  A    between atoms: C_7  and  N_8 
REMARK       I    between atoms: N_8  and  C_9 
REMARK    4  A    between atoms: C_9  and  C_10 
REMARK    5  A    between atoms: C_13  and  O_14 
REMARK    6  A    between atoms: C_15  and  C_16 
REMARK    7  A    between atoms: C_16  and  C_17 
ROOT
HETATM    1  C   UNL     1      40.741 -12.894   4.623  1.00  0.00     0.099 A 
HETATM    2  C   UNL     1      41.606 -12.122   5.377  1.00  0.00     0.171 A 
HETATM    3  N   UNL     1      41.002 -10.880   5.509  1.00  0.00    -0.192 N 
HETATM    4  C   UNL     1      41.560  -9.886   6.321  1.00  0.00     0.174 C 
HETATM    5  C   UNL     1      42.709 -10.116   6.989  1.00  0.00     0.023 C 
HETATM    6  C   UNL     1      43.359 -11.446   6.667  1.00  0.00     0.044 C 
HETATM    7  C   UNL     1      44.752 -11.732   7.184  1.00  0.00     0.071 C 
HETATM    8  N   UNL     1      42.820 -12.390   5.943  1.00  0.00    -0.233 NA
HETATM    9  N   UNL     1      39.831 -10.796   4.824  1.00  0.00    -0.175 NA
HETATM   10  C   UNL     1      39.682 -12.017   4.304  1.00  0.00     0.160 A 
ENDROOT
BRANCH   1  11
HETATM   11  C   UNL     1      40.869 -14.290   4.254  1.00  0.00     0.257 C 
HETATM   12  N   UNL     1      40.954 -14.520   2.900  1.00  0.00    -0.356 N 
HETATM   13  H   UNL     1      40.955 -13.703   2.290  1.00  0.00     0.162 HD
HETATM   14  O   UNL     1      40.928 -15.179   5.096  1.00  0.00    -0.267 OA
BRANCH  12  15
HETATM   15  C   UNL     1      41.259 -15.827   2.362  1.00  0.00     0.127 C 
BRANCH  15  16
HETATM   16  C   UNL     1      42.764 -16.038   2.209  1.00  0.00     0.058 C 
BRANCH  16  17
HETATM   17  C   UNL     1      43.240 -17.262   2.947  1.00  0.00    -0.057 A 
HETATM   18  C   UNL     1      43.227 -18.515   2.326  1.00  0.00     0.007 A 
HETATM   19  C   UNL     1      43.646 -19.655   3.018  1.00  0.00     0.007 A 
HETATM   20  C   UNL     1      44.075 -19.560   4.346  1.00  0.00    -0.062 A 
HETATM   21  C   UNL     1      44.540 -20.774   5.094  1.00  0.00     0.048 C 
HETATM   22  C   UNL     1      44.091 -18.306   4.967  1.00  0.00     0.007 A 
HETATM   23  C   UNL     1      43.672 -17.167   4.276  1.00  0.00     0.007 A 
ENDBRANCH  16  17
ENDBRANCH  15  16
ENDBRANCH  12  15
ENDBRANCH   1  11
BRANCH   4  24
HETATM   24  O   UNL     1      40.858  -8.696   6.463  1.00  0.00    -0.344 OA
HETATM   25  H   UNL     1      39.910  -8.952   6.493  1.00  0.00     0.219 HD
ENDBRANCH   4  24
BRANCH   5  26
HETATM   26  C   UNL     1      43.303  -9.156   7.986  1.00  0.00     0.084 C 
BRANCH  26  27
HETATM   27  C   UNL     1      42.943  -9.429   9.439  1.00  0.00    -0.047 A 
HETATM   28  C   UNL     1      43.902  -9.705  10.437  1.00  0.00    -0.055 A 
HETATM   29  C   UNL     1      45.378  -9.778  10.154  1.00  0.00     0.049 C 
HETATM   30  C   UNL     1      43.476  -9.895  11.762  1.00  0.00     0.008 A 
HETATM   31  C   UNL     1      42.123  -9.856  12.099  1.00  0.00     0.007 A 
HETATM   32  C   UNL     1      41.161  -9.620  11.119  1.00  0.00    -0.061 A 
HETATM   33  C   UNL     1      39.701  -9.621  11.462  1.00  0.00     0.048 C 
HETATM   34  C   UNL     1      41.577  -9.428   9.795  1.00  0.00     0.014 A 
ENDBRANCH  26  27
ENDBRANCH   5  26
TORSDOF 7
ENDMDL
MODEL 8
REMARK VINA RESULT:      -9.2      4.160      8.321
REMARK  7 active torsions:
REMARK  status: ('A' for Active; 'I' for Inactive)
REMARK    1  A    between atoms: C_5  and  C_6 
REMARK    2  A    between atoms: C_6  and  C_7 
REMARK    3  A    between atoms: C_7  and  N_8 
REMARK       I    between atoms: N_8  and  C_9 
REMARK    4  A    between atoms: C_9  and  C_10 
REMARK    5  A    between atoms: C_13  and  O_14 
REMARK    6  A    between atoms: C_15  and  C_16 
REMARK    7  A    between atoms: C_16  and  C_17 
ROOT
HETATM    1  C   UNL     1      42.765 -13.059   5.353  1.00  0.00     0.099 A 
HETATM    2  C   UNL     1      42.237 -13.148   4.077  1.00  0.00     0.171 A 
HETATM    3  N   UNL     1      42.368 -11.887   3.514  1.00  0.00    -0.192 N 
HETATM    4  C   UNL     1      42.038 -11.655   2.173  1.00  0.00     0.174 C 
HETATM    5  C   UNL     1      41.574 -12.660   1.401  1.00  0.00     0.023 C 
HETATM    6  C   UNL     1      41.335 -13.956   2.147  1.00  0.00     0.044 C 
HETATM    7  C   UNL     1      40.620 -15.090   1.445  1.00  0.00     0.071 C 
HETATM    8  N   UNL     1      41.681 -14.186   3.385  1.00  0.00    -0.233 NA
HETATM    9  N   UNL     1      42.888 -10.981   4.383  1.00  0.00    -0.175 NA
HETATM   10  C   UNL     1      43.130 -11.701   5.482  1.00  0.00     0.160 A 
ENDROOT
BRANCH   1  11
HETATM   11  C   UNL     1      42.929 -14.111   6.336  1.00  0.00     0.257 C 
HETATM   12  N   UNL     1      42.402 -15.328   5.968  1.00  0.00    -0.356 N 
HETATM   13  H   UNL     1      41.984 -15.390   5.041  1.00  0.00     0.162 HD
HETATM   14  O   UNL     1      43.521 -13.922   7.393  1.00  0.00    -0.267 OA
BRANCH  12  15
HETATM   15  C   UNL     1      42.626 -16.526   6.745  1.00  0.00     0.127 C 
BRANCH  15  16
HETATM   16  C   UNL     1      43.964 -17.179   6.405  1.00  0.00     0.058 C 
BRANCH  16  17
HETATM   17  C   UNL     1      43.879 -18.027   5.163  1.00  0.00    -0.057 A 
HETATM   18  C   UNL     1      43.597 -17.444   3.923  1.00  0.00     0.007 A 
HETATM   19  C   UNL     1      43.494 -18.232   2.774  1.00  0.00     0.007 A 
HETATM   20  C   UNL     1      43.660 -19.620   2.849  1.00  0.00    -0.062 A 
HETATM   21  C   UNL     1      43.565 -20.474   1.621  1.00  0.00     0.048 C 
HETATM   22  C   UNL     1      43.944 -20.204   4.088  1.00  0.00     0.007 A 
HETATM   23  C   UNL     1      44.048 -19.416   5.237  1.00  0.00     0.007 A 
ENDBRANCH  16  17
ENDBRANCH  15  16
ENDBRANCH  12  15
ENDBRANCH   1  11
BRANCH   4  24
HETATM   24  O   UNL     1      42.268 -10.385   1.660  1.00  0.00    -0.344 OA
HETATM   25  H   UNL     1      42.528  -9.834   2.431  1.00  0.00     0.219 HD
ENDBRANCH   4  24
BRANCH   5  26
HETATM   26  C   UNL     1      41.326 -12.529  -0.079  1.00  0.00     0.084 C 
BRANCH  26  27
HETATM   27  C   UNL     1      39.872 -12.321  -0.474  1.00  0.00    -0.047 A 
HETATM   28  C   UNL     1      39.285 -12.911  -1.615  1.00  0.00    -0.055 A 
HETATM   29  C   UNL     1      40.053 -13.787  -2.567  1.00  0.00     0.049 C 
HETATM   30  C   UNL     1      37.920 -12.700  -1.869  1.00  0.00     0.008 A 
HETATM   31  C   UNL     1      37.147 -11.888  -1.039  1.00  0.00     0.007 A 
HETATM   32  C   UNL     1      37.719 -11.270   0.071  1.00  0.00    -0.061 A 
HETATM   33  C   UNL     1      36.909 -10.358   0.943  1.00  0.00     0.048 C 
HETATM   34  C   UNL     1      39.080 -11.476   0.333  1.00  0.00     0.014 A 
ENDBRANCH  26  27
ENDBRANCH   5  26
TORSDOF 7
ENDMDL
MODEL 9
REMARK VINA RESULT:      -9.2      2.232      3.485
REMARK  7 active torsions:
REMARK  status: ('A' for Active; 'I' for Inactive)
REMARK    1  A    between atoms: C_5  and  C_6 
REMARK    2  A    between atoms: C_6  and  C_7 
REMARK    3  A    between atoms: C_7  and  N_8 
REMARK       I    between atoms: N_8  and  C_9 
REMARK    4  A    between atoms: C_9  and  C_10 
REMARK    5  A    between atoms: C_13  and  O_14 
REMARK    6  A    between atoms: C_15  and  C_16 
REMARK    7  A    between atoms: C_16  and  C_17 
ROOT
HETATM    1  C   UNL     1      39.938 -10.453   7.158  1.00  0.00     0.099 A 
HETATM    2  C   UNL     1      40.868 -11.206   6.463  1.00  0.00     0.171 A 
HETATM    3  N   UNL     1      40.144 -12.122   5.715  1.00  0.00    -0.192 N 
HETATM    4  C   UNL     1      40.776 -12.968   4.797  1.00  0.00     0.174 C 
HETATM    5  C   UNL     1      42.114 -12.915   4.629  1.00  0.00     0.023 C 
HETATM    6  C   UNL     1      42.824 -11.985   5.592  1.00  0.00     0.044 C 
HETATM    7  C   UNL     1      44.336 -11.996   5.649  1.00  0.00     0.071 C 
HETATM    8  N   UNL     1      42.232 -11.165   6.419  1.00  0.00    -0.233 NA
HETATM    9  N   UNL     1      38.807 -12.040   5.944  1.00  0.00    -0.175 NA
HETATM   10  C   UNL     1      38.696 -11.026   6.807  1.00  0.00     0.160 A 
ENDROOT
BRANCH   1  11
HETATM   11  C   UNL     1      40.168  -9.320   8.033  1.00  0.00     0.257 C 
HETATM   12  N   UNL     1      40.183  -9.625   9.374  1.00  0.00    -0.356 N 
HETATM   13  H   UNL     1      40.069 -10.606   9.628  1.00  0.00     0.162 HD
HETATM   14  O   UNL     1      40.364  -8.193   7.593  1.00  0.00    -0.267 OA
BRANCH  12  15
HETATM   15  C   UNL     1      40.570  -8.657  10.376  1.00  0.00     0.127 C 
BRANCH  15  16
HETATM   16  C   UNL     1      41.777  -9.130  11.183  1.00  0.00     0.058 C 
BRANCH  16  17
HETATM   17  C   UNL     1      43.036  -9.153  10.356  1.00  0.00    -0.057 A 
HETATM   18  C   UNL     1      43.365  -8.068   9.536  1.00  0.00     0.007 A 
HETATM   19  C   UNL     1      44.520  -8.097   8.750  1.00  0.00     0.007 A 
HETATM   20  C   UNL     1      45.358  -9.217   8.763  1.00  0.00    -0.062 A 
HETATM   21  C   UNL     1      46.607  -9.254   7.934  1.00  0.00     0.048 C 
HETATM   22  C   UNL     1      45.031 -10.302   9.585  1.00  0.00     0.007 A 
HETATM   23  C   UNL     1      43.877 -10.272  10.371  1.00  0.00     0.007 A 
ENDBRANCH  16  17
ENDBRANCH  15  16
ENDBRANCH  12  15
ENDBRANCH   1  11
BRANCH   4  24
HETATM   24  O   UNL     1      39.977 -13.805   4.029  1.00  0.00    -0.344 OA
HETATM   25  H   UNL     1      39.055 -13.496   4.177  1.00  0.00     0.219 HD
ENDBRANCH   4  24
BRANCH   5  26
HETATM   26  C   UNL     1      42.855 -13.690   3.571  1.00  0.00     0.084 C 
BRANCH  26  27
HETATM   27  C   UNL     1      43.089 -15.158   3.891  1.00  0.00    -0.047 A 
HETATM   28  C   UNL     1      43.204 -16.160   2.903  1.00  0.00    -0.055 A 
HETATM   29  C   UNL     1      43.082 -15.872   1.431  1.00  0.00     0.049 C 
HETATM   30  C   UNL     1      43.470 -17.482   3.295  1.00  0.00     0.008 A 
HETATM   31  C   UNL     1      43.582 -17.828   4.642  1.00  0.00     0.007 A 
HETATM   32  C   UNL     1      43.436 -16.857   5.631  1.00  0.00    -0.061 A 
HETATM   33  C   UNL     1      43.508 -17.226   7.083  1.00  0.00     0.048 C 
HETATM   34  C   UNL     1      43.172 -15.536   5.249  1.00  0.00     0.014 A 
ENDBRANCH  26  27
ENDBRANCH   5  26
TORSDOF 7
ENDMDL
MODEL 10
REMARK VINA RESULT:      -9.2      4.599      8.336
REMARK  7 active torsions:
REMARK  status: ('A' for Active; 'I' for Inactive)
REMARK    1  A    between atoms: C_5  and  C_6 
REMARK    2  A    between atoms: C_6  and  C_7 
REMARK    3  A    between atoms: C_7  and  N_8 
REMARK       I    between atoms: N_8  and  C_9 
REMARK    4  A    between atoms: C_9  and  C_10 
REMARK    5  A    between atoms: C_13  and  O_14 
REMARK    6  A    between atoms: C_15  and  C_16 
REMARK    7  A    between atoms: C_16  and  C_17 
ROOT
HETATM    1  C   UNL     1      40.753 -13.166   5.281  1.00  0.00     0.099 A 
HETATM    2  C   UNL     1      40.289 -13.373   3.995  1.00  0.00     0.171 A 
HETATM    3  N   UNL     1      39.420 -12.327   3.723  1.00  0.00    -0.192 N 
HETATM    4  C   UNL     1      38.858 -12.163   2.451  1.00  0.00     0.174 C 
HETATM    5  C   UNL     1      39.147 -13.033   1.461  1.00  0.00     0.023 C 
HETATM    6  C   UNL     1      39.988 -14.214   1.898  1.00  0.00     0.044 C 
HETATM    7  C   UNL     1      40.202 -15.364   0.938  1.00  0.00     0.071 C 
HETATM    8  N   UNL     1      40.547 -14.346   3.071  1.00  0.00    -0.233 NA
HETATM    9  N   UNL     1      39.252 -11.500   4.788  1.00  0.00    -0.175 NA
HETATM   10  C   UNL     1      40.067 -12.012   5.716  1.00  0.00     0.160 A 
ENDROOT
BRANCH   1  11
HETATM   11  C   UNL     1      41.733 -13.937   6.020  1.00  0.00     0.257 C 
HETATM   12  N   UNL     1      41.574 -15.301   5.934  1.00  0.00    -0.356 N 
HETATM   13  H   UNL     1      40.820 -15.643   5.340  1.00  0.00     0.162 HD
HETATM   14  O   UNL     1      42.643 -13.400   6.641  1.00  0.00    -0.267 OA
BRANCH  12  15
HETATM   15  C   UNL     1      42.557 -16.222   6.460  1.00  0.00     0.127 C 
BRANCH  15  16
HETATM   16  C   UNL     1      43.814 -16.264   5.594  1.00  0.00     0.058 C 
BRANCH  16  17
HETATM   17  C   UNL     1      43.744 -17.347   4.549  1.00  0.00    -0.057 A 
HETATM   18  C   UNL     1      43.234 -17.072   3.276  1.00  0.00     0.007 A 
HETATM   19  C   UNL     1      43.147 -18.080   2.313  1.00  0.00     0.007 A 
HETATM   20  C   UNL     1      43.557 -19.384   2.612  1.00  0.00    -0.062 A 
HETATM   21  C   UNL     1      43.480 -20.471   1.583  1.00  0.00     0.048 C 
HETATM   22  C   UNL     1      44.069 -19.659   3.885  1.00  0.00     0.007 A 
HETATM   23  C   UNL     1      44.157 -18.651   4.848  1.00  0.00     0.007 A 
ENDBRANCH  16  17
ENDBRANCH  15  16
ENDBRANCH  12  15
ENDBRANCH   1  11
BRANCH   4  24
HETATM   24  O   UNL     1      38.058 -11.048   2.235  1.00  0.00    -0.344 OA
HETATM   25  H   UNL     1      37.194 -11.261   2.650  1.00  0.00     0.219 HD
ENDBRANCH   4  24
BRANCH   5  26
HETATM   26  C   UNL     1      38.697 -12.854   0.035  1.00  0.00     0.084 C 
BRANCH  26  27
HETATM   27  C   UNL     1      39.758 -12.321  -0.916  1.00  0.00    -0.047 A 
HETATM   28  C   UNL     1      40.143 -12.985  -2.100  1.00  0.00    -0.055 A 
HETATM   29  C   UNL     1      39.555 -14.302  -2.527  1.00  0.00     0.049 C 
HETATM   30  C   UNL     1      41.098 -12.387  -2.940  1.00  0.00     0.008 A 
HETATM   31  C   UNL     1      41.699 -11.174  -2.604  1.00  0.00     0.007 A 
HETATM   32  C   UNL     1      41.355 -10.524  -1.421  1.00  0.00    -0.061 A 
HETATM   33  C   UNL     1      42.027  -9.242  -1.027  1.00  0.00     0.048 C 
HETATM   34  C   UNL     1      40.403 -11.111  -0.578  1.00  0.00     0.014 A 
ENDBRANCH  26  27
ENDBRANCH   5  26
TORSDOF 7
ENDMDL
