MODEL 1
REMARK VINA RESULT:      -8.5      0.000      0.000
REMARK  9 active torsions:
REMARK  status: ('A' for Active; 'I' for Inactive)
REMARK    1  A    between atoms: C_2  and  C_3 
REMARK    2  A    between atoms: C_5  and  O_6 
REMARK    3  A    between atoms: C_8  and  O_9 
REMARK    4  A    between atoms: O_9  and  C_10 
REMARK    5  A    between atoms: C_10  and  C_11 
REMARK       I    between atoms: C_11  and  N_12 
REMARK    6  A    between atoms: N_12  and  C_13 
REMARK    7  A    between atoms: C_13  and  C_14 
REMARK    8  A    between atoms: C_17  and  N_18 
REMARK       I    between atoms: N_18  and  C_19 
REMARK    9  A    between atoms: C_19  and  C_20 
ROOT
HETATM    1  C   UNL     1      43.215 -11.579   3.269  1.00  0.00     0.242 C 
HETATM    2  N   UNL     1      43.581 -11.061   4.477  1.00  0.00    -0.355 N 
HETATM    3  O   UNL     1      42.591 -10.864   2.482  1.00  0.00    -0.271 OA
HETATM    4  H   UNL     1      43.306 -10.094   4.596  1.00  0.00     0.162 HD
ENDROOT
BRANCH   2   5
HETATM    5  C   UNL     1      44.466 -11.633   5.471  1.00  0.00     0.161 C 
BRANCH   5   6
HETATM    6  C   UNL     1      44.282 -10.931   6.793  1.00  0.00    -0.040 A 
HETATM    7  C   UNL     1      45.314 -10.928   7.740  1.00  0.00     0.011 A 
HETATM    8  C   UNL     1      45.131 -10.346   9.000  1.00  0.00     0.030 A 
HETATM    9  C   UNL     1      43.913  -9.758   9.337  1.00  0.00     0.035 A 
HETATM   10  C   UNL     1      42.887  -9.738   8.384  1.00  0.00     0.030 A 
HETATM   11  C   UNL     1      43.067 -10.320   7.124  1.00  0.00     0.011 A 
BRANCH   9  12
HETATM   12  N   UNL     1      43.631  -9.200  10.598  1.00  0.00    -0.321 N 
HETATM   13  C   UNL     1      43.326  -9.854  11.778  1.00  0.00     0.279 C 
HETATM   14  O   UNL     1      43.319 -11.069  11.940  1.00  0.00    -0.265 OA
HETATM   15  H   UNL     1      43.599  -8.187  10.658  1.00  0.00     0.169 HD
BRANCH  13  16
HETATM   16  C   UNL     1      42.990  -8.934  12.853  1.00  0.00     0.142 A 
HETATM   17  O   UNL     1      42.142  -9.343  13.853  1.00  0.00    -0.317 OA
HETATM   18  C   UNL     1      42.019  -8.306  14.721  1.00  0.00     0.143 A 
HETATM   19  C   UNL     1      42.769  -7.233  14.302  1.00  0.00     0.027 A 
HETATM   20  C   UNL     1      43.393  -7.635  13.098  1.00  0.00     0.045 A 
ENDBRANCH  13  16
ENDBRANCH   9  12
ENDBRANCH   5   6
ENDBRANCH   2   5
BRANCH   1  21
HETATM   21  C   UNL     1      43.604 -13.008   2.915  1.00  0.00     0.278 C 
BRANCH  21  22
HETATM   22  O   UNL     1      42.641 -13.897   3.463  1.00  0.00    -0.339 OA
BRANCH  22  23
HETATM   23  C   UNL     1      42.895 -15.240   3.363  1.00  0.00     0.102 A 
HETATM   24  C   UNL     1      43.182 -15.908   4.569  1.00  0.00     0.102 A 
HETATM   25  C   UNL     1      43.493 -17.274   4.562  1.00  0.00     0.054 A 
HETATM   26  C   UNL     1      43.505 -17.984   3.356  1.00  0.00     0.012 A 
HETATM   27  C   UNL     1      43.201 -17.319   2.161  1.00  0.00     0.018 A 
HETATM   28  C   UNL     1      42.904 -15.953   2.163  1.00  0.00     0.040 A 
BRANCH  24  29
HETATM   29  O   UNL     1      43.174 -15.141   5.709  1.00  0.00    -0.353 OA
HETATM   30  C   UNL     1      42.219 -15.495   6.702  1.00  0.00     0.210 C 
ENDBRANCH  24  29
BRANCH  26  31
HETATM   31  C   UNL     1      43.842 -19.437   3.292  1.00  0.00     0.155 C 
HETATM   32  C   UNL     1      43.570 -20.197   2.020  1.00  0.00     0.096 C 
HETATM   33  O   UNL     1      44.336 -19.992   4.271  1.00  0.00    -0.293 OA
ENDBRANCH  26  31
ENDBRANCH  22  23
ENDBRANCH  21  22
ENDBRANCH   1  21
TORSDOF 9
ENDMDL
MODEL 2
REMARK VINA RESULT:      -8.5      1.456      2.034
REMARK  9 active torsions:
REMARK  status: ('A' for Active; 'I' for Inactive)
REMARK    1  A    between atoms: C_2  and  C_3 
REMARK    2  A    between atoms: C_5  and  O_6 
REMARK    3  A    between atoms: C_8  and  O_9 
REMARK    4  A    between atoms: O_9  and  C_10 
REMARK    5  A    between atoms: C_10  and  C_11 
REMARK       I    between atoms: C_11  and  N_12 
REMARK    6  A    between atoms: N_12  and  C_13 
REMARK    7  A    between atoms: C_13  and  C_14 
REMARK    8  A    between atoms: C_17  and  N_18 
REMARK       I    between atoms: N_18  and  C_19 
REMARK    9  A    between atoms: C_19  and  C_20 
ROOT
HETATM    1  C   UNL     1      42.463 -12.868   2.133  1.00  0.00     0.242 C 
HETATM    2  N   UNL     1      42.876 -11.836   2.924  1.00  0.00    -0.355 N 
HETATM    3  O   UNL     1      41.492 -12.698   1.393  1.00  0.00    -0.271 OA
HETATM    4  H   UNL     1      42.327 -10.995   2.800  1.00  0.00     0.162 HD
ENDROOT
BRANCH   2   5
HETATM    5  C   UNL     1      44.083 -11.738   3.720  1.00  0.00     0.161 C 
BRANCH   5   6
HETATM    6  C   UNL     1      43.737 -11.367   5.140  1.00  0.00    -0.040 A 
HETATM    7  C   UNL     1      42.647 -10.529   5.404  1.00  0.00     0.011 A 
HETATM    8  C   UNL     1      42.359 -10.116   6.710  1.00  0.00     0.030 A 
HETATM    9  C   UNL     1      43.157 -10.530   7.776  1.00  0.00     0.035 A 
HETATM   10  C   UNL     1      44.234 -11.387   7.517  1.00  0.00     0.030 A 
HETATM   11  C   UNL     1      44.525 -11.801   6.212  1.00  0.00     0.011 A 
BRANCH   9  12
HETATM   12  N   UNL     1      42.968 -10.118   9.108  1.00  0.00    -0.321 N 
HETATM   13  C   UNL     1      43.837  -9.413   9.921  1.00  0.00     0.279 C 
HETATM   14  O   UNL     1      44.924  -8.957   9.580  1.00  0.00    -0.265 OA
HETATM   15  H   UNL     1      42.107 -10.404   9.562  1.00  0.00     0.169 HD
BRANCH  13  16
HETATM   16  C   UNL     1      43.334  -9.262  11.276  1.00  0.00     0.142 A 
HETATM   17  O   UNL     1      42.578 -10.265  11.832  1.00  0.00    -0.317 OA
HETATM   18  C   UNL     1      42.261  -9.873  13.093  1.00  0.00     0.143 A 
HETATM   19  C   UNL     1      42.796  -8.636  13.365  1.00  0.00     0.027 A 
HETATM   20  C   UNL     1      43.485  -8.240  12.195  1.00  0.00     0.045 A 
ENDBRANCH  13  16
ENDBRANCH   9  12
ENDBRANCH   5   6
ENDBRANCH   2   5
BRANCH   1  21
HETATM   21  C   UNL     1      43.222 -14.189   2.164  1.00  0.00     0.278 C 
BRANCH  21  22
HETATM   22  O   UNL     1      42.852 -14.905   3.334  1.00  0.00    -0.339 OA
BRANCH  22  23
HETATM   23  C   UNL     1      43.057 -16.260   3.334  1.00  0.00     0.102 A 
HETATM   24  C   UNL     1      43.604 -16.804   4.512  1.00  0.00     0.102 A 
HETATM   25  C   UNL     1      43.886 -18.174   4.591  1.00  0.00     0.054 A 
HETATM   26  C   UNL     1      43.610 -19.011   3.504  1.00  0.00     0.012 A 
HETATM   27  C   UNL     1      43.048 -18.468   2.341  1.00  0.00     0.018 A 
HETATM   28  C   UNL     1      42.779 -17.099   2.254  1.00  0.00     0.040 A 
BRANCH  24  29
HETATM   29  O   UNL     1      43.870 -15.918   5.528  1.00  0.00    -0.353 OA
HETATM   30  C   UNL     1      44.478 -16.459   6.695  1.00  0.00     0.210 C 
ENDBRANCH  24  29
BRANCH  26  31
HETATM   31  C   UNL     1      43.902 -20.474   3.532  1.00  0.00     0.155 C 
HETATM   32  C   UNL     1      44.155 -21.146   4.856  1.00  0.00     0.096 C 
HETATM   33  O   UNL     1      43.931 -21.111   2.480  1.00  0.00    -0.293 OA
ENDBRANCH  26  31
ENDBRANCH  22  23
ENDBRANCH  21  22
ENDBRANCH   1  21
TORSDOF 9
ENDMDL
MODEL 3
REMARK VINA RESULT:      -8.4      2.788      4.853
REMARK  9 active torsions:
REMARK  status: ('A' for Active; 'I' for Inactive)
REMARK    1  A    between atoms: C_2  and  C_3 
REMARK    2  A    between atoms: C_5  and  O_6 
REMARK    3  A    between atoms: C_8  and  O_9 
REMARK    4  A    between atoms: O_9  and  C_10 
REMARK    5  A    between atoms: C_10  and  C_11 
REMARK       I    between atoms: C_11  and  N_12 
REMARK    6  A    between atoms: N_12  and  C_13 
REMARK    7  A    between atoms: C_13  and  C_14 
REMARK    8  A    between atoms: C_17  and  N_18 
REMARK       I    between atoms: N_18  and  C_19 
REMARK    9  A    between atoms: C_19  and  C_20 
ROOT
HETATM    1  C   UNL     1      40.102 -14.434   0.990  1.00  0.00     0.242 C 
HETATM    2  N   UNL     1      39.645 -13.240   1.467  1.00  0.00    -0.355 N 
HETATM    3  O   UNL     1      40.833 -14.436  -0.002  1.00  0.00    -0.271 OA
HETATM    4  H   UNL     1      39.986 -12.445   0.943  1.00  0.00     0.162 HD
ENDROOT
BRANCH   2   5
HETATM    5  C   UNL     1      38.942 -12.974   2.706  1.00  0.00     0.161 C 
BRANCH   5   6
HETATM    6  C   UNL     1      39.920 -12.559   3.776  1.00  0.00    -0.040 A 
HETATM    7  C   UNL     1      39.622 -12.778   5.128  1.00  0.00     0.011 A 
HETATM    8  C   UNL     1      40.485 -12.331   6.135  1.00  0.00     0.030 A 
HETATM    9  C   UNL     1      41.660 -11.654   5.811  1.00  0.00     0.035 A 
HETATM   10  C   UNL     1      41.972 -11.455   4.461  1.00  0.00     0.030 A 
HETATM   11  C   UNL     1      41.111 -11.900   3.451  1.00  0.00     0.011 A 
BRANCH   9  12
HETATM   12  N   UNL     1      42.552 -11.127   6.763  1.00  0.00    -0.321 N 
HETATM   13  C   UNL     1      43.777 -11.629   7.163  1.00  0.00     0.279 C 
HETATM   14  O   UNL     1      44.336 -12.612   6.689  1.00  0.00    -0.265 OA
HETATM   15  H   UNL     1      42.255 -10.295   7.263  1.00  0.00     0.169 HD
BRANCH  13  16
HETATM   16  C   UNL     1      44.364 -10.864   8.251  1.00  0.00     0.142 A 
HETATM   17  O   UNL     1      43.953 -11.096   9.541  1.00  0.00    -0.317 OA
HETATM   18  C   UNL     1      44.669 -10.266  10.343  1.00  0.00     0.143 A 
HETATM   19  C   UNL     1      45.535  -9.501   9.598  1.00  0.00     0.027 A 
HETATM   20  C   UNL     1      45.338  -9.883   8.250  1.00  0.00     0.045 A 
ENDBRANCH  13  16
ENDBRANCH   9  12
ENDBRANCH   5   6
ENDBRANCH   2   5
BRANCH   1  21
HETATM   21  C   UNL     1      39.721 -15.724   1.704  1.00  0.00     0.278 C 
BRANCH  21  22
HETATM   22  O   UNL     1      40.894 -16.499   1.911  1.00  0.00    -0.339 OA
BRANCH  22  23
HETATM   23  C   UNL     1      41.419 -16.521   3.177  1.00  0.00     0.102 A 
HETATM   24  C   UNL     1      42.627 -17.227   3.335  1.00  0.00     0.102 A 
HETATM   25  C   UNL     1      43.219 -17.338   4.599  1.00  0.00     0.054 A 
HETATM   26  C   UNL     1      42.619 -16.732   5.710  1.00  0.00     0.012 A 
HETATM   27  C   UNL     1      41.427 -16.015   5.544  1.00  0.00     0.018 A 
HETATM   28  C   UNL     1      40.826 -15.915   4.286  1.00  0.00     0.040 A 
BRANCH  24  29
HETATM   29  O   UNL     1      43.144 -17.814   2.205  1.00  0.00    -0.353 OA
HETATM   30  C   UNL     1      43.340 -19.221   2.258  1.00  0.00     0.210 C 
ENDBRANCH  24  29
BRANCH  26  31
HETATM   31  C   UNL     1      43.202 -16.830   7.081  1.00  0.00     0.155 C 
HETATM   32  C   UNL     1      43.025 -15.679   8.037  1.00  0.00     0.096 C 
HETATM   33  O   UNL     1      43.815 -17.842   7.412  1.00  0.00    -0.293 OA
ENDBRANCH  26  31
ENDBRANCH  22  23
ENDBRANCH  21  22
ENDBRANCH   1  21
TORSDOF 9
ENDMDL
MODEL 4
REMARK VINA RESULT:      -8.4      2.430      3.910
REMARK  9 active torsions:
REMARK  status: ('A' for Active; 'I' for Inactive)
REMARK    1  A    between atoms: C_2  and  C_3 
REMARK    2  A    between atoms: C_5  and  O_6 
REMARK    3  A    between atoms: C_8  and  O_9 
REMARK    4  A    between atoms: O_9  and  C_10 
REMARK    5  A    between atoms: C_10  and  C_11 
REMARK       I    between atoms: C_11  and  N_12 
REMARK    6  A    between atoms: N_12  and  C_13 
REMARK    7  A    between atoms: C_13  and  C_14 
REMARK    8  A    between atoms: C_17  and  N_18 
REMARK       I    between atoms: N_18  and  C_19 
REMARK    9  A    between atoms: C_19  and  C_20 
ROOT
HETATM    1  C   UNL     1      39.818 -14.456   2.210  1.00  0.00     0.242 C 
HETATM    2  N   UNL     1      38.953 -13.578   2.796  1.00  0.00    -0.355 N 
HETATM    3  O   UNL     1      39.505 -15.648   2.152  1.00  0.00    -0.271 OA
HETATM    4  H   UNL     1      38.100 -14.015   3.119  1.00  0.00     0.162 HD
ENDROOT
BRANCH   2   5
HETATM    5  C   UNL     1      39.013 -12.130   2.813  1.00  0.00     0.161 C 
BRANCH   5   6
HETATM    6  C   UNL     1      39.857 -11.661   3.971  1.00  0.00    -0.040 A 
HETATM    7  C   UNL     1      40.748 -10.593   3.808  1.00  0.00     0.011 A 
HETATM    8  C   UNL     1      41.591 -10.195   4.852  1.00  0.00     0.030 A 
HETATM    9  C   UNL     1      41.563 -10.860   6.077  1.00  0.00     0.035 A 
HETATM   10  C   UNL     1      40.657 -11.914   6.251  1.00  0.00     0.030 A 
HETATM   11  C   UNL     1      39.813 -12.314   5.209  1.00  0.00     0.011 A 
BRANCH   9  12
HETATM   12  N   UNL     1      42.414 -10.558   7.156  1.00  0.00    -0.321 N 
HETATM   13  C   UNL     1      43.772 -10.790   7.270  1.00  0.00     0.279 C 
HETATM   14  O   UNL     1      44.495 -11.251   6.393  1.00  0.00    -0.265 OA
HETATM   15  H   UNL     1      41.985 -10.158   7.985  1.00  0.00     0.169 HD
BRANCH  13  16
HETATM   16  C   UNL     1      44.290 -10.436   8.582  1.00  0.00     0.142 A 
HETATM   17  O   UNL     1      43.746 -11.016   9.703  1.00  0.00    -0.317 OA
HETATM   18  C   UNL     1      44.422 -10.524  10.773  1.00  0.00     0.143 A 
HETATM   19  C   UNL     1      45.392  -9.637  10.368  1.00  0.00     0.027 A 
HETATM   20  C   UNL     1      45.306  -9.577   8.957  1.00  0.00     0.045 A 
ENDBRANCH  13  16
ENDBRANCH   9  12
ENDBRANCH   5   6
ENDBRANCH   2   5
BRANCH   1  21
HETATM   21  C   UNL     1      41.127 -13.944   1.623  1.00  0.00     0.278 C 
BRANCH  21  22
HETATM   22  O   UNL     1      42.164 -14.137   2.575  1.00  0.00    -0.339 OA
BRANCH  22  23
HETATM   23  C   UNL     1      42.590 -15.422   2.789  1.00  0.00     0.102 A 
HETATM   24  C   UNL     1      42.647 -15.839   4.133  1.00  0.00     0.102 A 
HETATM   25  C   UNL     1      43.108 -17.122   4.453  1.00  0.00     0.054 A 
HETATM   26  C   UNL     1      43.498 -18.002   3.436  1.00  0.00     0.012 A 
HETATM   27  C   UNL     1      43.421 -17.588   2.100  1.00  0.00     0.018 A 
HETATM   28  C   UNL     1      42.976 -16.303   1.778  1.00  0.00     0.040 A 
BRANCH  24  29
HETATM   29  O   UNL     1      42.271 -14.914   5.077  1.00  0.00    -0.353 OA
HETATM   30  C   UNL     1      43.256 -14.555   6.038  1.00  0.00     0.210 C 
ENDBRANCH  24  29
BRANCH  26  31
HETATM   31  C   UNL     1      44.007 -19.375   3.724  1.00  0.00     0.155 C 
HETATM   32  C   UNL     1      43.769 -20.472   2.720  1.00  0.00     0.096 C 
HETATM   33  O   UNL     1      44.613 -19.594   4.772  1.00  0.00    -0.293 OA
ENDBRANCH  26  31
ENDBRANCH  22  23
ENDBRANCH  21  22
ENDBRANCH   1  21
TORSDOF 9
ENDMDL
MODEL 5
REMARK VINA RESULT:      -8.3      2.798      4.978
REMARK  9 active torsions:
REMARK  status: ('A' for Active; 'I' for Inactive)
REMARK    1  A    between atoms: C_2  and  C_3 
REMARK    2  A    between atoms: C_5  and  O_6 
REMARK    3  A    between atoms: C_8  and  O_9 
REMARK    4  A    between atoms: O_9  and  C_10 
REMARK    5  A    between atoms: C_10  and  C_11 
REMARK       I    between atoms: C_11  and  N_12 
REMARK    6  A    between atoms: N_12  and  C_13 
REMARK    7  A    between atoms: C_13  and  C_14 
REMARK    8  A    between atoms: C_17  and  N_18 
REMARK       I    between atoms: N_18  and  C_19 
REMARK    9  A    between atoms: C_19  and  C_20 
ROOT
HETATM    1  C   UNL     1      39.810 -14.526   2.306  1.00  0.00     0.242 C 
HETATM    2  N   UNL     1      38.913 -13.607   2.768  1.00  0.00    -0.355 N 
HETATM    3  O   UNL     1      39.473 -15.711   2.255  1.00  0.00    -0.271 OA
HETATM    4  H   UNL     1      38.019 -14.012   3.014  1.00  0.00     0.162 HD
ENDROOT
BRANCH   2   5
HETATM    5  C   UNL     1      39.010 -12.161   2.742  1.00  0.00     0.161 C 
BRANCH   5   6
HETATM    6  C   UNL     1      39.612 -11.661   4.031  1.00  0.00    -0.040 A 
HETATM    7  C   UNL     1      40.305 -10.443   4.060  1.00  0.00     0.011 A 
HETATM    8  C   UNL     1      40.933 -10.002   5.230  1.00  0.00     0.030 A 
HETATM    9  C   UNL     1      40.884 -10.771   6.392  1.00  0.00     0.035 A 
HETATM   10  C   UNL     1      40.173 -11.977   6.373  1.00  0.00     0.030 A 
HETATM   11  C   UNL     1      39.544 -12.421   5.204  1.00  0.00     0.011 A 
BRANCH   9  12
HETATM   12  N   UNL     1      41.533 -10.425   7.592  1.00  0.00    -0.321 N 
HETATM   13  C   UNL     1      41.186  -9.446   8.505  1.00  0.00     0.279 C 
HETATM   14  O   UNL     1      40.183  -8.742   8.451  1.00  0.00    -0.265 OA
HETATM   15  H   UNL     1      42.394 -10.917   7.810  1.00  0.00     0.169 HD
BRANCH  13  16
HETATM   16  C   UNL     1      42.161  -9.311   9.575  1.00  0.00     0.142 A 
HETATM   17  O   UNL     1      41.826  -9.700  10.849  1.00  0.00    -0.317 OA
HETATM   18  C   UNL     1      42.915  -9.484  11.631  1.00  0.00     0.143 A 
HETATM   19  C   UNL     1      43.948  -8.962  10.889  1.00  0.00     0.027 A 
HETATM   20  C   UNL     1      43.464  -8.848   9.565  1.00  0.00     0.045 A 
ENDBRANCH  13  16
ENDBRANCH   9  12
ENDBRANCH   5   6
ENDBRANCH   2   5
BRANCH   1  21
HETATM   21  C   UNL     1      41.186 -14.066   1.842  1.00  0.00     0.278 C 
BRANCH  21  22
HETATM   22  O   UNL     1      42.177 -14.734   2.610  1.00  0.00    -0.339 OA
BRANCH  22  23
HETATM   23  C   UNL     1      42.771 -14.026   3.623  1.00  0.00     0.102 A 
HETATM   24  C   UNL     1      42.823 -14.665   4.877  1.00  0.00     0.102 A 
HETATM   25  C   UNL     1      43.375 -14.004   5.981  1.00  0.00     0.054 A 
HETATM   26  C   UNL     1      43.894 -12.712   5.838  1.00  0.00     0.012 A 
HETATM   27  C   UNL     1      43.858 -12.089   4.585  1.00  0.00     0.018 A 
HETATM   28  C   UNL     1      43.293 -12.740   3.483  1.00  0.00     0.040 A 
BRANCH  24  29
HETATM   29  O   UNL     1      42.273 -15.923   4.945  1.00  0.00    -0.353 OA
HETATM   30  C   UNL     1      41.021 -16.029   5.611  1.00  0.00     0.210 C 
ENDBRANCH  24  29
BRANCH  26  31
HETATM   31  C   UNL     1      44.483 -11.960   6.986  1.00  0.00     0.155 C 
HETATM   32  C   UNL     1      45.723 -11.134   6.763  1.00  0.00     0.096 C 
HETATM   33  O   UNL     1      43.952 -12.023   8.093  1.00  0.00    -0.293 OA
ENDBRANCH  26  31
ENDBRANCH  22  23
ENDBRANCH  21  22
ENDBRANCH   1  21
TORSDOF 9
ENDMDL
MODEL 6
REMARK VINA RESULT:      -8.3      4.554      9.771
REMARK  9 active torsions:
REMARK  status: ('A' for Active; 'I' for Inactive)
REMARK    1  A    between atoms: C_2  and  C_3 
REMARK    2  A    between atoms: C_5  and  O_6 
REMARK    3  A    between atoms: C_8  and  O_9 
REMARK    4  A    between atoms: O_9  and  C_10 
REMARK    5  A    between atoms: C_10  and  C_11 
REMARK       I    between atoms: C_11  and  N_12 
REMARK    6  A    between atoms: N_12  and  C_13 
REMARK    7  A    between atoms: C_13  and  C_14 
REMARK    8  A    between atoms: C_17  and  N_18 
REMARK       I    between atoms: N_18  and  C_19 
REMARK    9  A    between atoms: C_19  and  C_20 
ROOT
HETATM    1  C   UNL     1      44.168 -16.533   6.175  1.00  0.00     0.242 C 
HETATM    2  N   UNL     1      43.992 -17.122   4.957  1.00  0.00    -0.355 N 
HETATM    3  O   UNL     1      45.281 -16.088   6.464  1.00  0.00    -0.271 OA
HETATM    4  H   UNL     1      44.827 -17.115   4.387  1.00  0.00     0.162 HD
ENDROOT
BRANCH   2   5
HETATM    5  C   UNL     1      42.755 -17.541   4.330  1.00  0.00     0.161 C 
BRANCH   5   6
HETATM    6  C   UNL     1      42.296 -16.495   3.344  1.00  0.00    -0.040 A 
HETATM    7  C   UNL     1      40.958 -16.456   2.929  1.00  0.00     0.011 A 
HETATM    8  C   UNL     1      40.534 -15.540   1.960  1.00  0.00     0.030 A 
HETATM    9  C   UNL     1      41.439 -14.649   1.384  1.00  0.00     0.035 A 
HETATM   10  C   UNL     1      42.771 -14.669   1.815  1.00  0.00     0.030 A 
HETATM   11  C   UNL     1      43.199 -15.585   2.784  1.00  0.00     0.011 A 
BRANCH   9  12
HETATM   12  N   UNL     1      41.105 -13.735   0.367  1.00  0.00    -0.321 N 
HETATM   13  C   UNL     1      40.192 -13.890  -0.661  1.00  0.00     0.279 C 
HETATM   14  O   UNL     1      39.451 -14.854  -0.819  1.00  0.00    -0.265 OA
HETATM   15  H   UNL     1      41.622 -12.862   0.342  1.00  0.00     0.169 HD
BRANCH  13  16
HETATM   16  C   UNL     1      40.197 -12.767  -1.583  1.00  0.00     0.142 A 
HETATM   17  O   UNL     1      39.010 -12.312  -2.102  1.00  0.00    -0.317 OA
HETATM   18  C   UNL     1      39.304 -11.259  -2.908  1.00  0.00     0.143 A 
HETATM   19  C   UNL     1      40.658 -11.023  -2.922  1.00  0.00     0.027 A 
HETATM   20  C   UNL     1      41.236 -11.995  -2.071  1.00  0.00     0.045 A 
ENDBRANCH  13  16
ENDBRANCH   9  12
ENDBRANCH   5   6
ENDBRANCH   2   5
BRANCH   1  21
HETATM   21  C   UNL     1      42.988 -16.416   7.132  1.00  0.00     0.278 C 
BRANCH  21  22
HETATM   22  O   UNL     1      42.777 -15.045   7.438  1.00  0.00    -0.339 OA
BRANCH  22  23
HETATM   23  C   UNL     1      42.136 -14.282   6.497  1.00  0.00     0.102 A 
HETATM   24  C   UNL     1      42.881 -13.220   5.948  1.00  0.00     0.102 A 
HETATM   25  C   UNL     1      42.296 -12.361   5.009  1.00  0.00     0.054 A 
HETATM   26  C   UNL     1      40.974 -12.566   4.599  1.00  0.00     0.012 A 
HETATM   27  C   UNL     1      40.244 -13.635   5.133  1.00  0.00     0.018 A 
HETATM   28  C   UNL     1      40.819 -14.485   6.083  1.00  0.00     0.040 A 
BRANCH  24  29
HETATM   29  O   UNL     1      44.164 -13.067   6.416  1.00  0.00    -0.353 OA
HETATM   30  C   UNL     1      44.539 -11.754   6.814  1.00  0.00     0.210 C 
ENDBRANCH  24  29
BRANCH  26  31
HETATM   31  C   UNL     1      40.301 -11.673   3.609  1.00  0.00     0.155 C 
HETATM   32  C   UNL     1      39.073 -12.168   2.891  1.00  0.00     0.096 C 
HETATM   33  O   UNL     1      40.753 -10.551   3.394  1.00  0.00    -0.293 OA
ENDBRANCH  26  31
ENDBRANCH  22  23
ENDBRANCH  21  22
ENDBRANCH   1  21
TORSDOF 9
ENDMDL
MODEL 7
REMARK VINA RESULT:      -8.3      5.718     11.250
REMARK  9 active torsions:
REMARK  status: ('A' for Active; 'I' for Inactive)
REMARK    1  A    between atoms: C_2  and  C_3 
REMARK    2  A    between atoms: C_5  and  O_6 
REMARK    3  A    between atoms: C_8  and  O_9 
REMARK    4  A    between atoms: O_9  and  C_10 
REMARK    5  A    between atoms: C_10  and  C_11 
REMARK       I    between atoms: C_11  and  N_12 
REMARK    6  A    between atoms: N_12  and  C_13 
REMARK    7  A    between atoms: C_13  and  C_14 
REMARK    8  A    between atoms: C_17  and  N_18 
REMARK       I    between atoms: N_18  and  C_19 
REMARK    9  A    between atoms: C_19  and  C_20 
ROOT
HETATM    1  C   UNL     1      40.791  -5.349  16.603  1.00  0.00     0.242 C 
HETATM    2  N   UNL     1      41.453  -6.538  16.709  1.00  0.00    -0.355 N 
HETATM    3  O   UNL     1      41.373  -4.315  16.937  1.00  0.00    -0.271 OA
HETATM    4  H   UNL     1      42.401  -6.437  17.047  1.00  0.00     0.162 HD
ENDROOT
BRANCH   2   5
HETATM    5  C   UNL     1      41.054  -7.838  16.209  1.00  0.00     0.161 C 
BRANCH   5   6
HETATM    6  C   UNL     1      41.703  -8.101  14.874  1.00  0.00    -0.040 A 
HETATM    7  C   UNL     1      41.236  -9.136  14.053  1.00  0.00     0.011 A 
HETATM    8  C   UNL     1      41.876  -9.440  12.846  1.00  0.00     0.030 A 
HETATM    9  C   UNL     1      42.997  -8.718  12.438  1.00  0.00     0.035 A 
HETATM   10  C   UNL     1      43.452  -7.668  13.245  1.00  0.00     0.030 A 
HETATM   11  C   UNL     1      42.815  -7.362  14.453  1.00  0.00     0.011 A 
BRANCH   9  12
HETATM   12  N   UNL     1      43.727  -8.995  11.268  1.00  0.00    -0.321 N 
HETATM   13  C   UNL     1      44.157 -10.221  10.794  1.00  0.00     0.279 C 
HETATM   14  O   UNL     1      43.904 -11.310  11.296  1.00  0.00    -0.265 OA
HETATM   15  H   UNL     1      44.025  -8.200  10.711  1.00  0.00     0.169 HD
BRANCH  13  16
HETATM   16  C   UNL     1      44.980 -10.099   9.601  1.00  0.00     0.142 A 
HETATM   17  O   UNL     1      45.161 -11.192   8.789  1.00  0.00    -0.317 OA
HETATM   18  C   UNL     1      45.946 -10.794   7.755  1.00  0.00     0.143 A 
HETATM   19  C   UNL     1      46.278  -9.466   7.881  1.00  0.00     0.027 A 
HETATM   20  C   UNL     1      45.659  -9.017   9.071  1.00  0.00     0.045 A 
ENDBRANCH  13  16
ENDBRANCH   9  12
ENDBRANCH   5   6
ENDBRANCH   2   5
BRANCH   1  21
HETATM   21  C   UNL     1      39.370  -5.326  16.056  1.00  0.00     0.278 C 
BRANCH  21  22
HETATM   22  O   UNL     1      39.381  -4.711  14.774  1.00  0.00    -0.339 OA
BRANCH  22  23
HETATM   23  C   UNL     1      39.352  -5.538  13.681  1.00  0.00     0.102 A 
HETATM   24  C   UNL     1      40.394  -5.366  12.748  1.00  0.00     0.102 A 
HETATM   25  C   UNL     1      40.427  -6.137  11.579  1.00  0.00     0.054 A 
HETATM   26  C   UNL     1      39.433  -7.094  11.342  1.00  0.00     0.012 A 
HETATM   27  C   UNL     1      38.410  -7.274  12.282  1.00  0.00     0.018 A 
HETATM   28  C   UNL     1      38.366  -6.495  13.442  1.00  0.00     0.040 A 
BRANCH  24  29
HETATM   29  O   UNL     1      41.319  -4.392  13.038  1.00  0.00    -0.353 OA
HETATM   30  C   UNL     1      42.136  -3.956  11.958  1.00  0.00     0.210 C 
ENDBRANCH  24  29
BRANCH  26  31
HETATM   31  C   UNL     1      39.416  -7.933  10.107  1.00  0.00     0.155 C 
HETATM   32  C   UNL     1      40.717  -8.255   9.421  1.00  0.00     0.096 C 
HETATM   33  O   UNL     1      38.346  -8.350   9.668  1.00  0.00    -0.293 OA
ENDBRANCH  26  31
ENDBRANCH  22  23
ENDBRANCH  21  22
ENDBRANCH   1  21
TORSDOF 9
ENDMDL
MODEL 8
REMARK VINA RESULT:      -7.8      2.140     11.433
REMARK  9 active torsions:
REMARK  status: ('A' for Active; 'I' for Inactive)
REMARK    1  A    between atoms: C_2  and  C_3 
REMARK    2  A    between atoms: C_5  and  O_6 
REMARK    3  A    between atoms: C_8  and  O_9 
REMARK    4  A    between atoms: O_9  and  C_10 
REMARK    5  A    between atoms: C_10  and  C_11 
REMARK       I    between atoms: C_11  and  N_12 
REMARK    6  A    between atoms: N_12  and  C_13 
REMARK    7  A    between atoms: C_13  and  C_14 
REMARK    8  A    between atoms: C_17  and  N_18 
REMARK       I    between atoms: N_18  and  C_19 
REMARK    9  A    between atoms: C_19  and  C_20 
ROOT
HETATM    1  C   UNL     1      41.508  -9.094   9.545  1.00  0.00     0.242 C 
HETATM    2  N   UNL     1      41.909  -9.777   8.434  1.00  0.00    -0.355 N 
HETATM    3  O   UNL     1      40.310  -9.082   9.834  1.00  0.00    -0.271 OA
HETATM    4  H   UNL     1      41.148 -10.238   7.953  1.00  0.00     0.162 HD
ENDROOT
BRANCH   2   5
HETATM    5  C   UNL     1      43.258 -10.087   8.005  1.00  0.00     0.161 C 
BRANCH   5   6
HETATM    6  C   UNL     1      43.246 -11.276   7.077  1.00  0.00    -0.040 A 
HETATM    7  C   UNL     1      42.192 -11.452   6.171  1.00  0.00     0.011 A 
HETATM    8  C   UNL     1      42.128 -12.588   5.357  1.00  0.00     0.030 A 
HETATM    9  C   UNL     1      43.113 -13.572   5.436  1.00  0.00     0.035 A 
HETATM   10  C   UNL     1      44.180 -13.387   6.324  1.00  0.00     0.030 A 
HETATM   11  C   UNL     1      44.246 -12.252   7.140  1.00  0.00     0.011 A 
BRANCH   9  12
HETATM   12  N   UNL     1      43.094 -14.767   4.693  1.00  0.00    -0.321 N 
HETATM   13  C   UNL     1      42.719 -16.031   5.109  1.00  0.00     0.279 C 
HETATM   14  O   UNL     1      42.262 -16.315   6.211  1.00  0.00    -0.265 OA
HETATM   15  H   UNL     1      43.438 -14.723   3.739  1.00  0.00     0.169 HD
BRANCH  13  16
HETATM   16  C   UNL     1      42.934 -17.041   4.086  1.00  0.00     0.142 A 
HETATM   17  O   UNL     1      43.783 -18.091   4.338  1.00  0.00    -0.317 OA
HETATM   18  C   UNL     1      43.781 -18.880   3.233  1.00  0.00     0.143 A 
HETATM   19  C   UNL     1      42.949 -18.361   2.269  1.00  0.00     0.027 A 
HETATM   20  C   UNL     1      42.404 -17.176   2.816  1.00  0.00     0.045 A 
ENDBRANCH  13  16
ENDBRANCH   9  12
ENDBRANCH   5   6
ENDBRANCH   2   5
BRANCH   1  21
HETATM   21  C   UNL     1      42.546  -8.388  10.409  1.00  0.00     0.278 C 
BRANCH  21  22
HETATM   22  O   UNL     1      42.820  -9.193  11.547  1.00  0.00    -0.339 OA
BRANCH  22  23
HETATM   23  C   UNL     1      42.592  -8.638  12.780  1.00  0.00     0.102 A 
HETATM   24  C   UNL     1      41.586  -9.246  13.556  1.00  0.00     0.102 A 
HETATM   25  C   UNL     1      41.254  -8.725  14.812  1.00  0.00     0.054 A 
HETATM   26  C   UNL     1      41.934  -7.607  15.310  1.00  0.00     0.012 A 
HETATM   27  C   UNL     1      42.947  -7.018  14.542  1.00  0.00     0.018 A 
HETATM   28  C   UNL     1      43.270  -7.527  13.281  1.00  0.00     0.040 A 
BRANCH  24  29
HETATM   29  O   UNL     1      40.947 -10.324  12.992  1.00  0.00    -0.353 OA
HETATM   30  C   UNL     1      39.525 -10.299  13.018  1.00  0.00     0.210 C 
ENDBRANCH  24  29
BRANCH  26  31
HETATM   31  C   UNL     1      41.611  -7.005  16.638  1.00  0.00     0.155 C 
HETATM   32  C   UNL     1      40.913  -7.846  17.674  1.00  0.00     0.096 C 
HETATM   33  O   UNL     1      41.919  -5.837  16.869  1.00  0.00    -0.293 OA
ENDBRANCH  26  31
ENDBRANCH  22  23
ENDBRANCH  21  22
ENDBRANCH   1  21
TORSDOF 9
ENDMDL
MODEL 9
REMARK VINA RESULT:      -7.8      3.992      9.042
REMARK  9 active torsions:
REMARK  status: ('A' for Active; 'I' for Inactive)
REMARK    1  A    between atoms: C_2  and  C_3 
REMARK    2  A    between atoms: C_5  and  O_6 
REMARK    3  A    between atoms: C_8  and  O_9 
REMARK    4  A    between atoms: O_9  and  C_10 
REMARK    5  A    between atoms: C_10  and  C_11 
REMARK       I    between atoms: C_11  and  N_12 
REMARK    6  A    between atoms: N_12  and  C_13 
REMARK    7  A    between atoms: C_13  and  C_14 
REMARK    8  A    between atoms: C_17  and  N_18 
REMARK       I    between atoms: N_18  and  C_19 
REMARK    9  A    between atoms: C_19  and  C_20 
ROOT
HETATM    1  C   UNL     1      42.032  -9.978   6.562  1.00  0.00     0.242 C 
HETATM    2  N   UNL     1      40.686 -10.006   6.338  1.00  0.00    -0.355 N 
HETATM    3  O   UNL     1      42.603  -8.887   6.609  1.00  0.00    -0.271 OA
HETATM    4  H   UNL     1      40.278  -9.084   6.248  1.00  0.00     0.162 HD
ENDROOT
BRANCH   2   5
HETATM    5  C   UNL     1      39.781 -11.134   6.427  1.00  0.00     0.161 C 
BRANCH   5   6
HETATM    6  C   UNL     1      39.467 -11.655   5.047  1.00  0.00    -0.040 A 
HETATM    7  C   UNL     1      39.744 -12.988   4.716  1.00  0.00     0.011 A 
HETATM    8  C   UNL     1      39.528 -13.466   3.419  1.00  0.00     0.030 A 
HETATM    9  C   UNL     1      39.035 -12.619   2.426  1.00  0.00     0.035 A 
HETATM   10  C   UNL     1      38.736 -11.293   2.759  1.00  0.00     0.030 A 
HETATM   11  C   UNL     1      38.951 -10.812   4.056  1.00  0.00     0.011 A 
BRANCH   9  12
HETATM   12  N   UNL     1      38.842 -13.006   1.087  1.00  0.00    -0.321 N 
HETATM   13  C   UNL     1      39.773 -13.062   0.066  1.00  0.00     0.279 C 
HETATM   14  O   UNL     1      40.974 -12.843   0.181  1.00  0.00    -0.265 OA
HETATM   15  H   UNL     1      37.894 -13.234   0.805  1.00  0.00     0.169 HD
BRANCH  13  16
HETATM   16  C   UNL     1      39.176 -13.409  -1.214  1.00  0.00     0.142 A 
HETATM   17  O   UNL     1      37.927 -12.931  -1.529  1.00  0.00    -0.317 OA
HETATM   18  C   UNL     1      37.628 -13.388  -2.772  1.00  0.00     0.143 A 
HETATM   19  C   UNL     1      38.657 -14.154  -3.268  1.00  0.00     0.027 A 
HETATM   20  C   UNL     1      39.654 -14.170  -2.264  1.00  0.00     0.045 A 
ENDBRANCH  13  16
ENDBRANCH   9  12
ENDBRANCH   5   6
ENDBRANCH   2   5
BRANCH   1  21
HETATM   21  C   UNL     1      42.786 -11.285   6.773  1.00  0.00     0.278 C 
BRANCH  21  22
HETATM   22  O   UNL     1      43.577 -11.550   5.622  1.00  0.00    -0.339 OA
BRANCH  22  23
HETATM   23  C   UNL     1      43.355 -12.734   4.966  1.00  0.00     0.102 A 
HETATM   24  C   UNL     1      43.302 -12.662   3.561  1.00  0.00     0.102 A 
HETATM   25  C   UNL     1      43.041 -13.813   2.806  1.00  0.00     0.054 A 
HETATM   26  C   UNL     1      42.848 -15.043   3.446  1.00  0.00     0.012 A 
HETATM   27  C   UNL     1      42.920 -15.112   4.843  1.00  0.00     0.018 A 
HETATM   28  C   UNL     1      43.166 -13.962   5.600  1.00  0.00     0.040 A 
BRANCH  24  29
HETATM   29  O   UNL     1      43.478 -11.418   3.005  1.00  0.00    -0.353 OA
HETATM   30  C   UNL     1      42.297 -10.723   2.626  1.00  0.00     0.210 C 
ENDBRANCH  24  29
BRANCH  26  31
HETATM   31  C   UNL     1      42.555 -16.296   2.690  1.00  0.00     0.155 C 
HETATM   32  C   UNL     1      43.448 -17.494   2.881  1.00  0.00     0.096 C 
HETATM   33  O   UNL     1      41.593 -16.336   1.925  1.00  0.00    -0.293 OA
ENDBRANCH  26  31
ENDBRANCH  22  23
ENDBRANCH  21  22
ENDBRANCH   1  21
TORSDOF 9
ENDMDL
MODEL 10
REMARK VINA RESULT:      -7.8      1.380      2.055
REMARK  9 active torsions:
REMARK  status: ('A' for Active; 'I' for Inactive)
REMARK    1  A    between atoms: C_2  and  C_3 
REMARK    2  A    between atoms: C_5  and  O_6 
REMARK    3  A    between atoms: C_8  and  O_9 
REMARK    4  A    between atoms: O_9  and  C_10 
REMARK    5  A    between atoms: C_10  and  C_11 
REMARK       I    between atoms: C_11  and  N_12 
REMARK    6  A    between atoms: N_12  and  C_13 
REMARK    7  A    between atoms: C_13  and  C_14 
REMARK    8  A    between atoms: C_17  and  N_18 
REMARK       I    between atoms: N_18  and  C_19 
REMARK    9  A    between atoms: C_19  and  C_20 
ROOT
HETATM    1  C   UNL     1      42.024 -12.630   4.455  1.00  0.00     0.242 C 
HETATM    2  N   UNL     1      42.726 -11.601   5.014  1.00  0.00    -0.355 N 
HETATM    3  O   UNL     1      41.074 -12.366   3.715  1.00  0.00    -0.271 OA
HETATM    4  H   UNL     1      42.388 -10.690   4.733  1.00  0.00     0.162 HD
ENDROOT
BRANCH   2   5
HETATM    5  C   UNL     1      43.973 -11.657   5.750  1.00  0.00     0.161 C 
BRANCH   5   6
HETATM    6  C   UNL     1      43.874 -10.818   6.999  1.00  0.00    -0.040 A 
HETATM    7  C   UNL     1      44.918 -10.819   7.933  1.00  0.00     0.011 A 
HETATM    8  C   UNL     1      44.808 -10.104   9.132  1.00  0.00     0.030 A 
HETATM    9  C   UNL     1      43.653  -9.379   9.420  1.00  0.00     0.035 A 
HETATM   10  C   UNL     1      42.618  -9.357   8.478  1.00  0.00     0.030 A 
HETATM   11  C   UNL     1      42.724 -10.071   7.279  1.00  0.00     0.011 A 
BRANCH   9  12
HETATM   12  N   UNL     1      43.443  -8.680  10.623  1.00  0.00    -0.321 N 
HETATM   13  C   UNL     1      42.711  -9.073  11.729  1.00  0.00     0.279 C 
HETATM   14  O   UNL     1      42.164 -10.161  11.874  1.00  0.00    -0.265 OA
HETATM   15  H   UNL     1      43.834  -7.746  10.689  1.00  0.00     0.169 HD
BRANCH  13  16
HETATM   16  C   UNL     1      42.635  -8.035  12.744  1.00  0.00     0.142 A 
HETATM   17  O   UNL     1      42.538  -6.720  12.360  1.00  0.00    -0.317 OA
HETATM   18  C   UNL     1      42.464  -5.978  13.495  1.00  0.00     0.143 A 
HETATM   19  C   UNL     1      42.513  -6.786  14.607  1.00  0.00     0.027 A 
HETATM   20  C   UNL     1      42.625  -8.112  14.125  1.00  0.00     0.045 A 
ENDBRANCH  13  16
ENDBRANCH   9  12
ENDBRANCH   5   6
ENDBRANCH   2   5
BRANCH   1  21
HETATM   21  C   UNL     1      42.443 -14.067   4.736  1.00  0.00     0.278 C 
BRANCH  21  22
HETATM   22  O   UNL     1      43.123 -14.579   3.598  1.00  0.00    -0.339 OA
BRANCH  22  23
HETATM   23  C   UNL     1      43.318 -15.935   3.540  1.00  0.00     0.102 A 
HETATM   24  C   UNL     1      42.896 -16.570   2.356  1.00  0.00     0.102 A 
HETATM   25  C   UNL     1      43.017 -17.959   2.220  1.00  0.00     0.054 A 
HETATM   26  C   UNL     1      43.575 -18.719   3.255  1.00  0.00     0.012 A 
HETATM   27  C   UNL     1      44.011 -18.079   4.422  1.00  0.00     0.018 A 
HETATM   28  C   UNL     1      43.877 -16.695   4.567  1.00  0.00     0.040 A 
BRANCH  24  29
HETATM   29  O   UNL     1      42.337 -15.763   1.395  1.00  0.00    -0.353 OA
HETATM   30  C   UNL     1      40.925 -15.597   1.452  1.00  0.00     0.210 C 
ENDBRANCH  24  29
BRANCH  26  31
HETATM   31  C   UNL     1      43.717 -20.202   3.165  1.00  0.00     0.155 C 
HETATM   32  C   UNL     1      43.957 -20.994   4.423  1.00  0.00     0.096 C 
HETATM   33  O   UNL     1      43.636 -20.757   2.071  1.00  0.00    -0.293 OA
ENDBRANCH  26  31
ENDBRANCH  22  23
ENDBRANCH  21  22
ENDBRANCH   1  21
TORSDOF 9
ENDMDL
