MODEL 1
REMARK VINA RESULT:      -7.2      0.000      0.000
REMARK  5 active torsions:
REMARK  status: ('A' for Active; 'I' for Inactive)
REMARK    1  A    between atoms: C_2  and  N_3 
REMARK       I    between atoms: N_3  and  C_4 
REMARK       I    between atoms: C_4  and  N_5 
REMARK    2  A    between atoms: N_5  and  C_6 
REMARK    3  A    between atoms: C_20  and  C_21 
REMARK    4  A    between atoms: C_21  and  O_22 
REMARK    5  A    between atoms: O_22  and  C_23 
ROOT
HETATM    1  C   UNL     1      41.556 -13.624   1.876  1.00  0.00     0.095 A 
HETATM    2  S   UNL     1      40.945 -12.385   2.864  1.00  0.00    -0.073 SA
HETATM    3  C   UNL     1      41.381 -13.181   4.298  1.00  0.00     0.027 A 
HETATM    4  C   UNL     1      42.090 -14.340   4.038  1.00  0.00    -0.021 A 
HETATM    5  C   UNL     1      42.628 -15.197   5.155  1.00  0.00     0.079 C 
HETATM    6  C   UNL     1      42.758 -14.430   6.496  1.00  0.00     0.124 C 
HETATM    7  C   UNL     1      43.995 -13.526   6.526  1.00  0.00     0.046 C 
HETATM    8  C   UNL     1      42.849 -15.433   7.659  1.00  0.00     0.046 C 
HETATM    9  N   UNL     1      41.504 -13.601   6.752  1.00  0.00    -0.054 N 
HETATM   10  H   UNL     1      40.739 -14.272   6.905  1.00  0.00     0.279 HD
HETATM   11  H   UNL     1      41.594 -13.089   7.638  1.00  0.00     0.279 HD
HETATM   12  C   UNL     1      41.021 -12.639   5.660  1.00  0.00     0.153 C 
HETATM   13  C   UNL     1      39.491 -12.557   5.839  1.00  0.00     0.052 C 
HETATM   14  C   UNL     1      41.631 -11.256   5.935  1.00  0.00     0.052 C 
HETATM   15  C   UNL     1      42.183 -14.623   2.610  1.00  0.00     0.081 A 
ENDROOT
BRANCH   1  16
HETATM   16  N   UNL     1      41.428 -13.538   0.498  1.00  0.00    -0.302 N 
HETATM   17  C   UNL     1      40.497 -14.187  -0.290  1.00  0.00     0.321 C 
HETATM   18  N   UNL     1      40.644 -13.815  -1.615  1.00  0.00    -0.343 N 
HETATM   19  O   UNL     1      39.667 -15.009   0.075  1.00  0.00    -0.247 OA
HETATM   20  H   UNL     1      40.963 -12.869  -1.767  1.00  0.00     0.164 HD
HETATM   21  H   UNL     1      42.214 -13.140  -0.002  1.00  0.00     0.171 HD
BRANCH  18  22
HETATM   22  C   UNL     1      39.762 -14.357  -2.634  1.00  0.00     0.120 C 
HETATM   23  C   UNL     1      38.587 -13.440  -2.928  1.00  0.00     0.026 C 
ENDBRANCH  18  22
ENDBRANCH   1  16
BRANCH  15  24
HETATM   24  C   UNL     1      42.820 -15.821   2.038  1.00  0.00     0.296 C 
HETATM   25  O   UNL     1      43.793 -15.753   1.298  1.00  0.00    -0.259 OA
BRANCH  24  26
HETATM   26  O   UNL     1      42.223 -16.991   2.412  1.00  0.00    -0.318 OA
BRANCH  26  27
HETATM   27  C   UNL     1      43.043 -18.170   2.330  1.00  0.00     0.174 C 
HETATM   28  C   UNL     1      43.841 -18.340   3.609  1.00  0.00     0.034 C 
ENDBRANCH  26  27
ENDBRANCH  24  26
ENDBRANCH  15  24
TORSDOF 5
ENDMDL
MODEL 2
REMARK VINA RESULT:      -7.1      3.621      7.222
REMARK  5 active torsions:
REMARK  status: ('A' for Active; 'I' for Inactive)
REMARK    1  A    between atoms: C_2  and  N_3 
REMARK       I    between atoms: N_3  and  C_4 
REMARK       I    between atoms: C_4  and  N_5 
REMARK    2  A    between atoms: N_5  and  C_6 
REMARK    3  A    between atoms: C_20  and  C_21 
REMARK    4  A    between atoms: C_21  and  O_22 
REMARK    5  A    between atoms: O_22  and  C_23 
ROOT
HETATM    1  C   UNL     1      43.782 -12.878   6.096  1.00  0.00     0.095 A 
HETATM    2  S   UNL     1      43.209 -14.297   6.829  1.00  0.00    -0.073 SA
HETATM    3  C   UNL     1      42.208 -14.688   5.516  1.00  0.00     0.027 A 
HETATM    4  C   UNL     1      42.384 -13.804   4.466  1.00  0.00    -0.021 A 
HETATM    5  C   UNL     1      41.638 -13.972   3.167  1.00  0.00     0.079 C 
HETATM    6  C   UNL     1      41.110 -15.414   2.955  1.00  0.00     0.124 C 
HETATM    7  C   UNL     1      42.217 -16.374   2.503  1.00  0.00     0.046 C 
HETATM    8  C   UNL     1      39.996 -15.407   1.894  1.00  0.00     0.046 C 
HETATM    9  N   UNL     1      40.467 -15.933   4.237  1.00  0.00    -0.054 N 
HETATM   10  H   UNL     1      39.624 -15.363   4.391  1.00  0.00     0.279 HD
HETATM   11  H   UNL     1      40.123 -16.890   4.097  1.00  0.00     0.279 HD
HETATM   12  C   UNL     1      41.271 -15.871   5.542  1.00  0.00     0.153 C 
HETATM   13  C   UNL     1      40.219 -15.722   6.660  1.00  0.00     0.052 C 
HETATM   14  C   UNL     1      42.002 -17.210   5.719  1.00  0.00     0.052 C 
HETATM   15  C   UNL     1      43.297 -12.718   4.803  1.00  0.00     0.081 A 
ENDROOT
BRANCH   1  16
HETATM   16  N   UNL     1      44.666 -12.054   6.777  1.00  0.00    -0.302 N 
HETATM   17  C   UNL     1      44.344 -10.962   7.561  1.00  0.00     0.321 C 
HETATM   18  N   UNL     1      45.486 -10.419   8.122  1.00  0.00    -0.343 N 
HETATM   19  O   UNL     1      43.231 -10.483   7.737  1.00  0.00    -0.247 OA
HETATM   20  H   UNL     1      46.222 -11.077   8.332  1.00  0.00     0.164 HD
HETATM   21  H   UNL     1      45.639 -12.118   6.506  1.00  0.00     0.171 HD
BRANCH  18  22
HETATM   22  C   UNL     1      45.397  -9.267   9.003  1.00  0.00     0.120 C 
HETATM   23  C   UNL     1      45.249  -9.666  10.462  1.00  0.00     0.026 C 
ENDBRANCH  18  22
ENDBRANCH   1  16
BRANCH  15  24
HETATM   24  C   UNL     1      43.622 -11.595   3.909  1.00  0.00     0.296 C 
HETATM   25  O   UNL     1      44.772 -11.341   3.570  1.00  0.00    -0.259 OA
BRANCH  24  26
HETATM   26  O   UNL     1      42.530 -10.881   3.506  1.00  0.00    -0.318 OA
BRANCH  26  27
HETATM   27  C   UNL     1      41.962  -9.994   4.486  1.00  0.00     0.174 C 
HETATM   28  C   UNL     1      40.489 -10.300   4.673  1.00  0.00     0.034 C 
ENDBRANCH  26  27
ENDBRANCH  24  26
ENDBRANCH  15  24
TORSDOF 5
ENDMDL
MODEL 3
REMARK VINA RESULT:      -6.8      3.177      4.879
REMARK  5 active torsions:
REMARK  status: ('A' for Active; 'I' for Inactive)
REMARK    1  A    between atoms: C_2  and  N_3 
REMARK       I    between atoms: N_3  and  C_4 
REMARK       I    between atoms: C_4  and  N_5 
REMARK    2  A    between atoms: N_5  and  C_6 
REMARK    3  A    between atoms: C_20  and  C_21 
REMARK    4  A    between atoms: C_21  and  O_22 
REMARK    5  A    between atoms: O_22  and  C_23 
ROOT
HETATM    1  C   UNL     1      39.603 -13.765   2.999  1.00  0.00     0.095 A 
HETATM    2  S   UNL     1      40.362 -14.910   2.002  1.00  0.00    -0.073 SA
HETATM    3  C   UNL     1      41.596 -15.215   3.127  1.00  0.00     0.027 A 
HETATM    4  C   UNL     1      41.381 -14.532   4.310  1.00  0.00    -0.021 A 
HETATM    5  C   UNL     1      42.318 -14.679   5.481  1.00  0.00     0.079 C 
HETATM    6  C   UNL     1      43.170 -15.973   5.415  1.00  0.00     0.124 C 
HETATM    7  C   UNL     1      42.371 -17.212   5.834  1.00  0.00     0.046 C 
HETATM    8  C   UNL     1      44.392 -15.836   6.339  1.00  0.00     0.046 C 
HETATM    9  N   UNL     1      43.725 -16.166   4.008  1.00  0.00    -0.054 N 
HETATM   10  H   UNL     1      44.395 -15.401   3.853  1.00  0.00     0.279 HD
HETATM   11  H   UNL     1      44.285 -17.026   3.964  1.00  0.00     0.279 HD
HETATM   12  C   UNL     1      42.754 -16.134   2.821  1.00  0.00     0.153 C 
HETATM   13  C   UNL     1      43.583 -15.608   1.633  1.00  0.00     0.052 C 
HETATM   14  C   UNL     1      42.312 -17.575   2.524  1.00  0.00     0.052 C 
HETATM   15  C   UNL     1      40.217 -13.656   4.241  1.00  0.00     0.081 A 
ENDROOT
BRANCH   1  16
HETATM   16  N   UNL     1      38.476 -13.093   2.549  1.00  0.00    -0.302 N 
HETATM   17  C   UNL     1      38.443 -11.870   1.906  1.00  0.00     0.321 C 
HETATM   18  N   UNL     1      37.144 -11.543   1.561  1.00  0.00    -0.343 N 
HETATM   19  O   UNL     1      39.390 -11.127   1.685  1.00  0.00    -0.247 OA
HETATM   20  H   UNL     1      36.545 -12.324   1.336  1.00  0.00     0.164 HD
HETATM   21  H   UNL     1      37.587 -13.414   2.911  1.00  0.00     0.171 HD
BRANCH  18  22
HETATM   22  C   UNL     1      36.858 -10.304   0.857  1.00  0.00     0.120 C 
HETATM   23  C   UNL     1      36.868 -10.481  -0.652  1.00  0.00     0.026 C 
ENDBRANCH  18  22
ENDBRANCH   1  16
BRANCH  15  24
HETATM   24  C   UNL     1      39.784 -12.758   5.324  1.00  0.00     0.296 C 
HETATM   25  O   UNL     1      39.369 -13.180   6.396  1.00  0.00    -0.259 OA
BRANCH  24  26
HETATM   26  O   UNL     1      39.891 -11.433   5.013  1.00  0.00    -0.318 OA
BRANCH  26  27
HETATM   27  C   UNL     1      41.227 -10.939   4.817  1.00  0.00     0.174 C 
HETATM   28  C   UNL     1      41.897 -10.701   6.156  1.00  0.00     0.034 C 
ENDBRANCH  26  27
ENDBRANCH  24  26
ENDBRANCH  15  24
TORSDOF 5
ENDMDL
MODEL 4
REMARK VINA RESULT:      -6.5      2.835      6.188
REMARK  5 active torsions:
REMARK  status: ('A' for Active; 'I' for Inactive)
REMARK    1  A    between atoms: C_2  and  N_3 
REMARK       I    between atoms: N_3  and  C_4 
REMARK       I    between atoms: C_4  and  N_5 
REMARK    2  A    between atoms: N_5  and  C_6 
REMARK    3  A    between atoms: C_20  and  C_21 
REMARK    4  A    between atoms: C_21  and  O_22 
REMARK    5  A    between atoms: O_22  and  C_23 
ROOT
HETATM    1  C   UNL     1      41.861 -14.951   2.771  1.00  0.00     0.095 A 
HETATM    2  S   UNL     1      41.928 -14.782   1.083  1.00  0.00    -0.073 SA
HETATM    3  C   UNL     1      40.538 -13.810   1.028  1.00  0.00     0.027 A 
HETATM    4  C   UNL     1      40.076 -13.516   2.298  1.00  0.00    -0.021 A 
HETATM    5  C   UNL     1      38.878 -12.626   2.510  1.00  0.00     0.079 C 
HETATM    6  C   UNL     1      38.573 -11.721   1.289  1.00  0.00     0.124 C 
HETATM    7  C   UNL     1      39.518 -10.517   1.213  1.00  0.00     0.046 C 
HETATM    8  C   UNL     1      37.124 -11.210   1.372  1.00  0.00     0.046 C 
HETATM    9  N   UNL     1      38.661 -12.531  -0.001  1.00  0.00    -0.054 N 
HETATM   10  H   UNL     1      37.886 -13.207   0.027  1.00  0.00     0.279 HD
HETATM   11  H   UNL     1      38.464 -11.929  -0.809  1.00  0.00     0.279 HD
HETATM   12  C   UNL     1      39.931 -13.346  -0.274  1.00  0.00     0.153 C 
HETATM   13  C   UNL     1      39.469 -14.542  -1.130  1.00  0.00     0.052 C 
HETATM   14  C   UNL     1      40.889 -12.477  -1.104  1.00  0.00     0.052 C 
HETATM   15  C   UNL     1      40.838 -14.200   3.337  1.00  0.00     0.081 A 
ENDROOT
BRANCH   1  16
HETATM   16  N   UNL     1      42.794 -15.742   3.425  1.00  0.00    -0.302 N 
HETATM   17  C   UNL     1      42.972 -17.104   3.281  1.00  0.00     0.321 C 
HETATM   18  N   UNL     1      44.033 -17.536   4.056  1.00  0.00    -0.343 N 
HETATM   19  O   UNL     1      42.294 -17.870   2.608  1.00  0.00    -0.247 OA
HETATM   20  H   UNL     1      44.783 -16.870   4.176  1.00  0.00     0.164 HD
HETATM   21  H   UNL     1      43.238 -15.332   4.238  1.00  0.00     0.171 HD
BRANCH  18  22
HETATM   22  C   UNL     1      44.424 -18.935   4.056  1.00  0.00     0.120 C 
HETATM   23  C   UNL     1      43.962 -19.665   5.306  1.00  0.00     0.026 C 
ENDBRANCH  18  22
ENDBRANCH   1  16
BRANCH  15  24
HETATM   24  C   UNL     1      40.534 -14.131   4.776  1.00  0.00     0.296 C 
HETATM   25  O   UNL     1      40.413 -13.065   5.367  1.00  0.00    -0.259 OA
BRANCH  24  26
HETATM   26  O   UNL     1      40.406 -15.355   5.368  1.00  0.00    -0.318 OA
BRANCH  26  27
HETATM   27  C   UNL     1      40.755 -15.418   6.762  1.00  0.00     0.174 C 
HETATM   28  C   UNL     1      42.060 -16.170   6.939  1.00  0.00     0.034 C 
ENDBRANCH  26  27
ENDBRANCH  24  26
ENDBRANCH  15  24
TORSDOF 5
ENDMDL
MODEL 5
REMARK VINA RESULT:      -6.5      3.103      5.033
REMARK  5 active torsions:
REMARK  status: ('A' for Active; 'I' for Inactive)
REMARK    1  A    between atoms: C_2  and  N_3 
REMARK       I    between atoms: N_3  and  C_4 
REMARK       I    between atoms: C_4  and  N_5 
REMARK    2  A    between atoms: N_5  and  C_6 
REMARK    3  A    between atoms: C_20  and  C_21 
REMARK    4  A    between atoms: C_21  and  O_22 
REMARK    5  A    between atoms: O_22  and  C_23 
ROOT
HETATM    1  C   UNL     1      39.570 -13.630   2.702  1.00  0.00     0.095 A 
HETATM    2  S   UNL     1      40.367 -14.826   1.798  1.00  0.00    -0.073 SA
HETATM    3  C   UNL     1      41.530 -15.100   3.002  1.00  0.00     0.027 A 
HETATM    4  C   UNL     1      41.260 -14.365   4.143  1.00  0.00    -0.021 A 
HETATM    5  C   UNL     1      42.127 -14.476   5.370  1.00  0.00     0.079 C 
HETATM    6  C   UNL     1      42.960 -15.783   5.406  1.00  0.00     0.124 C 
HETATM    7  C   UNL     1      42.120 -16.993   5.829  1.00  0.00     0.046 C 
HETATM    8  C   UNL     1      44.131 -15.624   6.392  1.00  0.00     0.046 C 
HETATM    9  N   UNL     1      43.592 -16.042   4.042  1.00  0.00    -0.054 N 
HETATM   10  H   UNL     1      44.281 -15.293   3.894  1.00  0.00     0.279 HD
HETATM   11  H   UNL     1      44.139 -16.911   4.065  1.00  0.00     0.279 HD
HETATM   12  C   UNL     1      42.689 -16.047   2.801  1.00  0.00     0.153 C 
HETATM   13  C   UNL     1      43.592 -15.581   1.641  1.00  0.00     0.052 C 
HETATM   14  C   UNL     1      42.242 -17.493   2.538  1.00  0.00     0.052 C 
HETATM   15  C   UNL     1      40.115 -13.478   3.972  1.00  0.00     0.081 A 
ENDROOT
BRANCH   1  16
HETATM   16  N   UNL     1      38.482 -12.962   2.161  1.00  0.00    -0.302 N 
HETATM   17  C   UNL     1      38.516 -11.911   1.265  1.00  0.00     0.321 C 
HETATM   18  N   UNL     1      37.232 -11.538   0.910  1.00  0.00    -0.343 N 
HETATM   19  O   UNL     1      39.510 -11.332   0.845  1.00  0.00    -0.247 OA
HETATM   20  H   UNL     1      36.553 -12.286   0.889  1.00  0.00     0.164 HD
HETATM   21  H   UNL     1      37.592 -13.107   2.622  1.00  0.00     0.171 HD
BRANCH  18  22
HETATM   22  C   UNL     1      37.014 -10.460  -0.038  1.00  0.00     0.120 C 
HETATM   23  C   UNL     1      36.958 -10.954  -1.473  1.00  0.00     0.026 C 
ENDBRANCH  18  22
ENDBRANCH   1  16
BRANCH  15  24
HETATM   24  C   UNL     1      39.636 -12.530   4.991  1.00  0.00     0.296 C 
HETATM   25  O   UNL     1      39.115 -12.902   6.035  1.00  0.00    -0.259 OA
BRANCH  24  26
HETATM   26  O   UNL     1      39.828 -11.220   4.654  1.00  0.00    -0.318 OA
BRANCH  26  27
HETATM   27  C   UNL     1      38.770 -10.316   5.018  1.00  0.00     0.174 C 
HETATM   28  C   UNL     1      38.594  -9.261   3.943  1.00  0.00     0.034 C 
ENDBRANCH  26  27
ENDBRANCH  24  26
ENDBRANCH  15  24
TORSDOF 5
ENDMDL
MODEL 6
REMARK VINA RESULT:      -6.4      3.702      5.611
REMARK  5 active torsions:
REMARK  status: ('A' for Active; 'I' for Inactive)
REMARK    1  A    between atoms: C_2  and  N_3 
REMARK       I    between atoms: N_3  and  C_4 
REMARK       I    between atoms: C_4  and  N_5 
REMARK    2  A    between atoms: N_5  and  C_6 
REMARK    3  A    between atoms: C_20  and  C_21 
REMARK    4  A    between atoms: C_21  and  O_22 
REMARK    5  A    between atoms: O_22  and  C_23 
ROOT
HETATM    1  C   UNL     1      42.305 -11.879   3.184  1.00  0.00     0.095 A 
HETATM    2  S   UNL     1      41.929 -13.107   2.074  1.00  0.00    -0.073 SA
HETATM    3  C   UNL     1      42.426 -14.344   3.125  1.00  0.00     0.027 A 
HETATM    4  C   UNL     1      42.778 -13.842   4.365  1.00  0.00    -0.021 A 
HETATM    5  C   UNL     1      43.208 -14.753   5.486  1.00  0.00     0.079 C 
HETATM    6  C   UNL     1      42.740 -16.217   5.288  1.00  0.00     0.124 C 
HETATM    7  C   UNL     1      41.260 -16.403   5.639  1.00  0.00     0.046 C 
HETATM    8  C   UNL     1      43.580 -17.154   6.174  1.00  0.00     0.046 C 
HETATM    9  N   UNL     1      42.992 -16.661   3.850  1.00  0.00    -0.054 N 
HETATM   10  H   UNL     1      44.013 -16.691   3.730  1.00  0.00     0.279 HD
HETATM   11  H   UNL     1      42.676 -17.629   3.719  1.00  0.00     0.279 HD
HETATM   12  C   UNL     1      42.450 -15.794   2.707  1.00  0.00     0.153 C 
HETATM   13  C   UNL     1      43.425 -16.017   1.533  1.00  0.00     0.052 C 
HETATM   14  C   UNL     1      41.064 -16.327   2.315  1.00  0.00     0.052 C 
HETATM   15  C   UNL     1      42.729 -12.385   4.408  1.00  0.00     0.081 A 
ENDROOT
BRANCH   1  16
HETATM   16  N   UNL     1      42.137 -10.549   2.830  1.00  0.00    -0.302 N 
HETATM   17  C   UNL     1      41.070  -9.733   3.156  1.00  0.00     0.321 C 
HETATM   18  N   UNL     1      41.276  -8.454   2.673  1.00  0.00    -0.343 N 
HETATM   19  O   UNL     1      40.050 -10.055   3.751  1.00  0.00    -0.247 OA
HETATM   20  H   UNL     1      42.240  -8.151   2.642  1.00  0.00     0.164 HD
HETATM   21  H   UNL     1      42.734 -10.202   2.089  1.00  0.00     0.171 HD
BRANCH  18  22
HETATM   22  C   UNL     1      40.294  -7.410   2.907  1.00  0.00     0.120 C 
HETATM   23  C   UNL     1      40.655  -6.532   4.093  1.00  0.00     0.026 C 
ENDBRANCH  18  22
ENDBRANCH   1  16
BRANCH  15  24
HETATM   24  C   UNL     1      43.115 -11.571   5.572  1.00  0.00     0.296 C 
HETATM   25  O   UNL     1      42.297 -11.183   6.397  1.00  0.00    -0.259 OA
BRANCH  24  26
HETATM   26  O   UNL     1      44.452 -11.301   5.634  1.00  0.00    -0.318 OA
BRANCH  26  27
HETATM   27  C   UNL     1      45.152 -11.848   6.765  1.00  0.00     0.174 C 
HETATM   28  C   UNL     1      45.904 -10.751   7.494  1.00  0.00     0.034 C 
ENDBRANCH  26  27
ENDBRANCH  24  26
ENDBRANCH  15  24
TORSDOF 5
ENDMDL
MODEL 7
REMARK VINA RESULT:      -6.2      2.844      6.183
REMARK  5 active torsions:
REMARK  status: ('A' for Active; 'I' for Inactive)
REMARK    1  A    between atoms: C_2  and  N_3 
REMARK       I    between atoms: N_3  and  C_4 
REMARK       I    between atoms: C_4  and  N_5 
REMARK    2  A    between atoms: N_5  and  C_6 
REMARK    3  A    between atoms: C_20  and  C_21 
REMARK    4  A    between atoms: C_21  and  O_22 
REMARK    5  A    between atoms: O_22  and  C_23 
ROOT
HETATM    1  C   UNL     1      40.912 -14.532   1.193  1.00  0.00     0.095 A 
HETATM    2  S   UNL     1      40.052 -14.435  -0.267  1.00  0.00    -0.073 SA
HETATM    3  C   UNL     1      40.044 -12.738  -0.262  1.00  0.00     0.027 A 
HETATM    4  C   UNL     1      40.787 -12.232   0.789  1.00  0.00    -0.021 A 
HETATM    5  C   UNL     1      40.970 -10.747   0.977  1.00  0.00     0.079 C 
HETATM    6  C   UNL     1      40.711  -9.937  -0.319  1.00  0.00     0.124 C 
HETATM    7  C   UNL     1      41.893 -10.010  -1.292  1.00  0.00     0.046 C 
HETATM    8  C   UNL     1      40.450  -8.463   0.035  1.00  0.00     0.046 C 
HETATM    9  N   UNL     1      39.443 -10.435  -1.006  1.00  0.00    -0.054 N 
HETATM   10  H   UNL     1      38.661 -10.194  -0.384  1.00  0.00     0.279 HD
HETATM   11  H   UNL     1      39.275  -9.902  -1.868  1.00  0.00     0.279 HD
HETATM   12  C   UNL     1      39.307 -11.933  -1.306  1.00  0.00     0.153 C 
HETATM   13  C   UNL     1      37.793 -12.220  -1.262  1.00  0.00     0.052 C 
HETATM   14  C   UNL     1      39.823 -12.187  -2.731  1.00  0.00     0.052 C 
HETATM   15  C   UNL     1      41.290 -13.281   1.668  1.00  0.00     0.081 A 
ENDROOT
BRANCH   1  16
HETATM   16  N   UNL     1      41.193 -15.770   1.752  1.00  0.00    -0.302 N 
HETATM   17  C   UNL     1      42.428 -16.385   1.825  1.00  0.00     0.321 C 
HETATM   18  N   UNL     1      42.327 -17.589   2.499  1.00  0.00    -0.343 N 
HETATM   19  O   UNL     1      43.481 -15.985   1.346  1.00  0.00    -0.247 OA
HETATM   20  H   UNL     1      41.627 -17.622   3.226  1.00  0.00     0.164 HD
HETATM   21  H   UNL     1      40.399 -16.374   1.927  1.00  0.00     0.171 HD
BRANCH  18  22
HETATM   22  C   UNL     1      43.504 -18.413   2.716  1.00  0.00     0.120 C 
HETATM   23  C   UNL     1      43.352 -19.804   2.125  1.00  0.00     0.026 C 
ENDBRANCH  18  22
ENDBRANCH   1  16
BRANCH  15  24
HETATM   24  C   UNL     1      42.056 -13.040   2.902  1.00  0.00     0.296 C 
HETATM   25  O   UNL     1      43.174 -12.541   2.890  1.00  0.00    -0.259 OA
BRANCH  24  26
HETATM   26  O   UNL     1      41.400 -13.422   4.037  1.00  0.00    -0.318 OA
BRANCH  26  27
HETATM   27  C   UNL     1      42.132 -14.285   4.925  1.00  0.00     0.174 C 
HETATM   28  C   UNL     1      41.260 -15.448   5.359  1.00  0.00     0.034 C 
ENDBRANCH  26  27
ENDBRANCH  24  26
ENDBRANCH  15  24
TORSDOF 5
ENDMDL
MODEL 8
REMARK VINA RESULT:      -6.2      2.671      4.930
REMARK  5 active torsions:
REMARK  status: ('A' for Active; 'I' for Inactive)
REMARK    1  A    between atoms: C_2  and  N_3 
REMARK       I    between atoms: N_3  and  C_4 
REMARK       I    between atoms: C_4  and  N_5 
REMARK    2  A    between atoms: N_5  and  C_6 
REMARK    3  A    between atoms: C_20  and  C_21 
REMARK    4  A    between atoms: C_21  and  O_22 
REMARK    5  A    between atoms: O_22  and  C_23 
ROOT
HETATM    1  C   UNL     1      42.891 -15.136   3.339  1.00  0.00     0.095 A 
HETATM    2  S   UNL     1      42.397 -14.275   1.961  1.00  0.00    -0.073 SA
HETATM    3  C   UNL     1      41.626 -13.068   2.871  1.00  0.00     0.027 A 
HETATM    4  C   UNL     1      41.830 -13.250   4.228  1.00  0.00    -0.021 A 
HETATM    5  C   UNL     1      41.282 -12.277   5.240  1.00  0.00     0.079 C 
HETATM    6  C   UNL     1      40.957 -10.889   4.630  1.00  0.00     0.124 C 
HETATM    7  C   UNL     1      42.216 -10.041   4.422  1.00  0.00     0.046 C 
HETATM    8  C   UNL     1      39.995 -10.128   5.559  1.00  0.00     0.046 C 
HETATM    9  N   UNL     1      40.220 -11.056   3.305  1.00  0.00    -0.054 N 
HETATM   10  H   UNL     1      39.304 -11.465   3.532  1.00  0.00     0.279 HD
HETATM   11  H   UNL     1      40.010 -10.136   2.900  1.00  0.00     0.279 HD
HETATM   12  C   UNL     1      40.837 -11.954   2.227  1.00  0.00     0.153 C 
HETATM   13  C   UNL     1      39.640 -12.511   1.429  1.00  0.00     0.052 C 
HETATM   14  C   UNL     1      41.691 -11.075   1.300  1.00  0.00     0.052 C 
HETATM   15  C   UNL     1      42.560 -14.478   4.519  1.00  0.00     0.081 A 
ENDROOT
BRANCH   1  16
HETATM   16  N   UNL     1      43.577 -16.332   3.200  1.00  0.00    -0.302 N 
HETATM   17  C   UNL     1      43.066 -17.533   2.745  1.00  0.00     0.321 C 
HETATM   18  N   UNL     1      44.062 -18.491   2.693  1.00  0.00    -0.343 N 
HETATM   19  O   UNL     1      41.902 -17.776   2.453  1.00  0.00    -0.247 OA
HETATM   20  H   UNL     1      44.987 -18.146   2.480  1.00  0.00     0.164 HD
HETATM   21  H   UNL     1      44.470 -16.395   3.674  1.00  0.00     0.171 HD
BRANCH  18  22
HETATM   22  C   UNL     1      43.767 -19.835   2.227  1.00  0.00     0.120 C 
HETATM   23  C   UNL     1      43.790 -20.855   3.353  1.00  0.00     0.026 C 
ENDBRANCH  18  22
ENDBRANCH   1  16
BRANCH  15  24
HETATM   24  C   UNL     1      42.864 -14.966   5.874  1.00  0.00     0.296 C 
HETATM   25  O   UNL     1      43.573 -14.338   6.650  1.00  0.00    -0.259 OA
BRANCH  24  26
HETATM   26  O   UNL     1      42.284 -16.168   6.167  1.00  0.00    -0.318 OA
BRANCH  26  27
HETATM   27  C   UNL     1      43.037 -17.034   7.034  1.00  0.00     0.174 C 
HETATM   28  C   UNL     1      43.412 -18.308   6.301  1.00  0.00     0.034 C 
ENDBRANCH  26  27
ENDBRANCH  24  26
ENDBRANCH  15  24
TORSDOF 5
ENDMDL
MODEL 9
REMARK VINA RESULT:      -6.1      4.068      6.391
REMARK  5 active torsions:
REMARK  status: ('A' for Active; 'I' for Inactive)
REMARK    1  A    between atoms: C_2  and  N_3 
REMARK       I    between atoms: N_3  and  C_4 
REMARK       I    between atoms: C_4  and  N_5 
REMARK    2  A    between atoms: N_5  and  C_6 
REMARK    3  A    between atoms: C_20  and  C_21 
REMARK    4  A    between atoms: C_21  and  O_22 
REMARK    5  A    between atoms: O_22  and  C_23 
ROOT
HETATM    1  C   UNL     1      43.253 -11.846   6.039  1.00  0.00     0.095 A 
HETATM    2  S   UNL     1      44.590 -11.767   7.083  1.00  0.00    -0.073 SA
HETATM    3  C   UNL     1      44.168 -10.229   7.664  1.00  0.00     0.027 A 
HETATM    4  C   UNL     1      42.953  -9.811   7.152  1.00  0.00    -0.021 A 
HETATM    5  C   UNL     1      42.343  -8.494   7.559  1.00  0.00     0.079 C 
HETATM    6  C   UNL     1      42.907  -7.954   8.898  1.00  0.00     0.124 C 
HETATM    7  C   UNL     1      42.298  -8.668  10.110  1.00  0.00     0.046 C 
HETATM    8  C   UNL     1      42.616  -6.448   9.013  1.00  0.00     0.046 C 
HETATM    9  N   UNL     1      44.426  -8.093   8.923  1.00  0.00    -0.054 N 
HETATM   10  H   UNL     1      44.788  -7.451   8.207  1.00  0.00     0.279 HD
HETATM   11  H   UNL     1      44.798  -7.740   9.813  1.00  0.00     0.279 HD
HETATM   12  C   UNL     1      45.046  -9.464   8.625  1.00  0.00     0.153 C 
HETATM   13  C   UNL     1      46.422  -9.159   8.000  1.00  0.00     0.052 C 
HETATM   14  C   UNL     1      45.253 -10.197   9.959  1.00  0.00     0.052 C 
HETATM   15  C   UNL     1      42.411 -10.749   6.176  1.00  0.00     0.081 A 
ENDROOT
BRANCH   1  16
HETATM   16  N   UNL     1      43.086 -12.944   5.209  1.00  0.00    -0.302 N 
HETATM   17  C   UNL     1      43.253 -12.979   3.837  1.00  0.00     0.321 C 
HETATM   18  N   UNL     1      43.051 -14.261   3.360  1.00  0.00    -0.343 N 
HETATM   19  O   UNL     1      43.506 -12.034   3.101  1.00  0.00    -0.247 OA
HETATM   20  H   UNL     1      43.318 -15.006   3.988  1.00  0.00     0.164 HD
HETATM   21  H   UNL     1      42.590 -13.734   5.603  1.00  0.00     0.171 HD
BRANCH  18  22
HETATM   22  C   UNL     1      43.189 -14.550   1.943  1.00  0.00     0.120 C 
HETATM   23  C   UNL     1      43.308 -16.039   1.665  1.00  0.00     0.026 C 
ENDBRANCH  18  22
ENDBRANCH   1  16
BRANCH  15  24
HETATM   24  C   UNL     1      41.167 -10.537   5.418  1.00  0.00     0.296 C 
HETATM   25  O   UNL     1      41.145  -9.926   4.357  1.00  0.00    -0.259 OA
BRANCH  24  26
HETATM   26  O   UNL     1      40.064 -11.082   6.011  1.00  0.00    -0.318 OA
BRANCH  26  27
HETATM   27  C   UNL     1      39.482 -12.212   5.338  1.00  0.00     0.174 C 
HETATM   28  C   UNL     1      39.864 -13.496   6.048  1.00  0.00     0.034 C 
ENDBRANCH  26  27
ENDBRANCH  24  26
ENDBRANCH  15  24
TORSDOF 5
ENDMDL
MODEL 10
REMARK VINA RESULT:      -6.1      2.996      5.165
REMARK  5 active torsions:
REMARK  status: ('A' for Active; 'I' for Inactive)
REMARK    1  A    between atoms: C_2  and  N_3 
REMARK       I    between atoms: N_3  and  C_4 
REMARK       I    between atoms: C_4  and  N_5 
REMARK    2  A    between atoms: N_5  and  C_6 
REMARK    3  A    between atoms: C_20  and  C_21 
REMARK    4  A    between atoms: C_21  and  O_22 
REMARK    5  A    between atoms: O_22  and  C_23 
ROOT
HETATM    1  C   UNL     1      40.515 -14.629   3.350  1.00  0.00     0.095 A 
HETATM    2  S   UNL     1      40.151 -13.677   1.992  1.00  0.00    -0.073 SA
HETATM    3  C   UNL     1      39.630 -12.363   2.932  1.00  0.00     0.027 A 
HETATM    4  C   UNL     1      39.832 -12.595   4.281  1.00  0.00    -0.021 A 
HETATM    5  C   UNL     1      39.492 -11.553   5.315  1.00  0.00     0.079 C 
HETATM    6  C   UNL     1      39.406 -10.122   4.726  1.00  0.00     0.124 C 
HETATM    7  C   UNL     1      40.792  -9.510   4.491  1.00  0.00     0.046 C 
HETATM    8  C   UNL     1      38.619  -9.212   5.685  1.00  0.00     0.046 C 
HETATM    9  N   UNL     1      38.618 -10.137   3.420  1.00  0.00    -0.054 N 
HETATM   10  H   UNL     1      37.650 -10.379   3.667  1.00  0.00     0.279 HD
HETATM   11  H   UNL     1      38.567  -9.189   3.027  1.00  0.00     0.279 HD
HETATM   12  C   UNL     1      39.038 -11.118   2.318  1.00  0.00     0.153 C 
HETATM   13  C   UNL     1      37.742 -11.441   1.547  1.00  0.00     0.052 C 
HETATM   14  C   UNL     1      40.013 -10.394   1.376  1.00  0.00     0.052 C 
HETATM   15  C   UNL     1      40.337 -13.938   4.543  1.00  0.00     0.081 A 
ENDROOT
BRANCH   1  16
HETATM   16  N   UNL     1      40.973 -15.927   3.183  1.00  0.00    -0.302 N 
HETATM   17  C   UNL     1      42.280 -16.325   2.973  1.00  0.00     0.321 C 
HETATM   18  N   UNL     1      42.359 -17.704   2.906  1.00  0.00    -0.343 N 
HETATM   19  O   UNL     1      43.256 -15.601   2.824  1.00  0.00    -0.247 OA
HETATM   20  H   UNL     1      41.693 -18.206   3.476  1.00  0.00     0.164 HD
HETATM   21  H   UNL     1      40.271 -16.628   2.979  1.00  0.00     0.171 HD
BRANCH  18  22
HETATM   22  C   UNL     1      43.640 -18.360   2.707  1.00  0.00     0.120 C 
HETATM   23  C   UNL     1      43.487 -19.788   2.211  1.00  0.00     0.026 C 
ENDBRANCH  18  22
ENDBRANCH   1  16
BRANCH  15  24
HETATM   24  C   UNL     1      40.581 -14.490   5.885  1.00  0.00     0.296 C 
HETATM   25  O   UNL     1      39.699 -14.565   6.732  1.00  0.00    -0.259 OA
BRANCH  24  26
HETATM   26  O   UNL     1      41.869 -14.901   6.083  1.00  0.00    -0.318 OA
BRANCH  26  27
HETATM   27  C   UNL     1      42.031 -16.162   6.755  1.00  0.00     0.174 C 
HETATM   28  C   UNL     1      43.495 -16.404   7.064  1.00  0.00     0.034 C 
ENDBRANCH  26  27
ENDBRANCH  24  26
ENDBRANCH  15  24
TORSDOF 5
ENDMDL
