MODEL 1
REMARK VINA RESULT:      -8.5      0.000      0.000
REMARK  4 active torsions:
REMARK  status: ('A' for Active; 'I' for Inactive)
REMARK    1  A    between atoms: C_5  and  C_6 
REMARK    2  A    between atoms: C_6  and  N_7 
REMARK    3  A    between atoms: C_6  and  C_18 
REMARK    4  A    between atoms: N_7  and  C_8 
ROOT
HETATM    1  C   UNL     1      42.982 -15.816   3.395  1.00  0.00     0.288 C 
ENDROOT
BRANCH   1   2
HETATM    2  C   UNL     1      42.077 -15.515   4.578  1.00  0.00    -0.003 A 
HETATM    3  C   UNL     1      42.316 -14.402   5.382  1.00  0.00     0.126 A 
HETATM    4  N   UNL     1      41.546 -14.040   6.432  1.00  0.00    -0.272 NA
HETATM    5  C   UNL     1      40.502 -14.842   6.728  1.00  0.00     0.116 A 
HETATM    6  C   UNL     1      40.181 -15.979   6.009  1.00  0.00     0.020 A 
HETATM    7  C   UNL     1      40.978 -16.315   4.917  1.00  0.00     0.012 A 
ENDBRANCH   1   2
BRANCH   1   8
HETATM    8  N   UNL     1      42.418 -15.205   2.168  1.00  0.00     0.101 N 
HETATM    9  H   UNL     1      42.538 -15.873   1.410  1.00  0.00     0.317 HD
BRANCH   8  10
HETATM   10  C   UNL     1      41.049 -14.686   2.279  1.00  0.00     0.225 C 
HETATM   11  C   UNL     1      40.060 -15.216   1.218  1.00  0.00     0.069 C 
HETATM   12  C   UNL     1      40.377 -14.660  -0.157  1.00  0.00     0.190 C 
HETATM   13  N   UNL     1      40.329 -13.157  -0.092  1.00  0.00    -0.067 N 
HETATM   14  C   UNL     1      39.377 -14.937  -1.261  1.00  0.00     0.035 C 
HETATM   15  H   UNL     1      39.409 -12.881   0.282  1.00  0.00     0.280 HD
HETATM   16  C   UNL     1      41.366 -12.585   0.824  1.00  0.00     0.237 C 
HETATM   17  C   UNL     1      40.344 -12.701  -1.528  1.00  0.00     0.235 C 
HETATM   18  C   UNL     1      41.116 -13.141   2.223  1.00  0.00     0.063 C 
HETATM   19  C   UNL     1      39.704 -13.860  -2.295  1.00  0.00     0.030 C 
ENDBRANCH   8  10
ENDBRANCH   1   8
BRANCH   1  20
HETATM   20  C   UNL     1      43.288 -17.304   3.275  1.00  0.00    -0.021 A 
HETATM   21  C   UNL     1      44.028 -17.942   4.290  1.00  0.00     0.012 A 
HETATM   22  C   UNL     1      44.312 -19.307   4.213  1.00  0.00     0.043 A 
HETATM   23  C   UNL     1      43.854 -20.044   3.130  1.00  0.00     0.116 A 
HETATM   24  F   UNL     1      44.130 -21.352   3.055  1.00  0.00    -0.206 F 
HETATM   25  C   UNL     1      43.111 -19.443   2.122  1.00  0.00     0.043 A 
HETATM   26  C   UNL     1      42.824 -18.078   2.195  1.00  0.00     0.012 A 
ENDBRANCH   1  20
TORSDOF 4
ENDMDL
MODEL 2
REMARK VINA RESULT:      -8.3      1.732      4.585
REMARK  4 active torsions:
REMARK  status: ('A' for Active; 'I' for Inactive)
REMARK    1  A    between atoms: C_5  and  C_6 
REMARK    2  A    between atoms: C_6  and  N_7 
REMARK    3  A    between atoms: C_6  and  C_18 
REMARK    4  A    between atoms: N_7  and  C_8 
ROOT
HETATM    1  C   UNL     1      42.285 -16.219   4.093  1.00  0.00     0.288 C 
ENDROOT
BRANCH   1   2
HETATM    2  C   UNL     1      41.701 -15.489   2.896  1.00  0.00    -0.003 A 
HETATM    3  C   UNL     1      42.400 -14.442   2.299  1.00  0.00     0.126 A 
HETATM    4  N   UNL     1      41.973 -13.760   1.214  1.00  0.00    -0.272 NA
HETATM    5  C   UNL     1      40.770 -14.107   0.709  1.00  0.00     0.116 A 
HETATM    6  C   UNL     1      39.985 -15.119   1.230  1.00  0.00     0.020 A 
HETATM    7  C   UNL     1      40.461 -15.822   2.334  1.00  0.00     0.012 A 
ENDBRANCH   1   2
BRANCH   1   8
HETATM    8  N   UNL     1      43.225 -15.326   4.812  1.00  0.00     0.101 N 
HETATM    9  H   UNL     1      43.379 -14.509   4.227  1.00  0.00     0.317 HD
BRANCH   8  10
HETATM   10  C   UNL     1      42.863 -14.995   6.197  1.00  0.00     0.225 C 
HETATM   11  C   UNL     1      41.393 -14.571   6.404  1.00  0.00     0.069 C 
HETATM   12  C   UNL     1      41.121 -13.210   5.793  1.00  0.00     0.190 C 
HETATM   13  N   UNL     1      42.055 -12.206   6.414  1.00  0.00    -0.067 N 
HETATM   14  C   UNL     1      39.776 -12.577   6.087  1.00  0.00     0.035 C 
HETATM   15  H   UNL     1      41.939 -12.249   7.438  1.00  0.00     0.280 HD
HETATM   16  C   UNL     1      43.494 -12.499   6.123  1.00  0.00     0.237 C 
HETATM   17  C   UNL     1      41.523 -10.860   5.994  1.00  0.00     0.235 C 
HETATM   18  C   UNL     1      43.816 -13.880   6.688  1.00  0.00     0.063 C 
HETATM   19  C   UNL     1      40.024 -11.097   5.796  1.00  0.00     0.030 C 
ENDBRANCH   8  10
ENDBRANCH   1   8
BRANCH   1  20
HETATM   20  C   UNL     1      42.873 -17.571   3.706  1.00  0.00    -0.021 A 
HETATM   21  C   UNL     1      43.617 -18.299   4.655  1.00  0.00     0.012 A 
HETATM   22  C   UNL     1      44.156 -19.546   4.333  1.00  0.00     0.043 A 
HETATM   23  C   UNL     1      43.949 -20.077   3.068  1.00  0.00     0.116 A 
HETATM   24  F   UNL     1      44.469 -21.272   2.759  1.00  0.00    -0.206 F 
HETATM   25  C   UNL     1      43.208 -19.387   2.117  1.00  0.00     0.043 A 
HETATM   26  C   UNL     1      42.667 -18.140   2.435  1.00  0.00     0.012 A 
ENDBRANCH   1  20
TORSDOF 4
ENDMDL
MODEL 3
REMARK VINA RESULT:      -8.2      1.671      2.910
REMARK  4 active torsions:
REMARK  status: ('A' for Active; 'I' for Inactive)
REMARK    1  A    between atoms: C_5  and  C_6 
REMARK    2  A    between atoms: C_6  and  N_7 
REMARK    3  A    between atoms: C_6  and  C_18 
REMARK    4  A    between atoms: N_7  and  C_8 
ROOT
HETATM    1  C   UNL     1      42.923 -16.392   3.455  1.00  0.00     0.288 C 
ENDROOT
BRANCH   1   2
HETATM    2  C   UNL     1      42.786 -15.948   4.901  1.00  0.00    -0.003 A 
HETATM    3  C   UNL     1      41.653 -16.288   5.638  1.00  0.00     0.126 A 
HETATM    4  N   UNL     1      41.461 -15.965   6.936  1.00  0.00    -0.272 NA
HETATM    5  C   UNL     1      42.427 -15.235   7.531  1.00  0.00     0.116 A 
HETATM    6  C   UNL     1      43.585 -14.829   6.893  1.00  0.00     0.020 A 
HETATM    7  C   UNL     1      43.767 -15.197   5.562  1.00  0.00     0.012 A 
ENDBRANCH   1   2
BRANCH   1   8
HETATM    8  N   UNL     1      41.716 -15.991   2.693  1.00  0.00     0.101 N 
HETATM    9  H   UNL     1      41.022 -15.671   3.365  1.00  0.00     0.317 HD
BRANCH   8  10
HETATM   10  C   UNL     1      41.937 -15.053   1.586  1.00  0.00     0.225 C 
HETATM   11  C   UNL     1      42.931 -13.910   1.887  1.00  0.00     0.069 C 
HETATM   12  C   UNL     1      42.349 -12.920   2.878  1.00  0.00     0.190 C 
HETATM   13  N   UNL     1      41.066 -12.372   2.315  1.00  0.00    -0.067 N 
HETATM   14  C   UNL     1      43.131 -11.645   3.120  1.00  0.00     0.035 C 
HETATM   15  H   UNL     1      41.265 -11.980   1.383  1.00  0.00     0.280 HD
HETATM   16  C   UNL     1      40.018 -13.425   2.134  1.00  0.00     0.237 C 
HETATM   17  C   UNL     1      40.722 -11.196   3.193  1.00  0.00     0.235 C 
HETATM   18  C   UNL     1      40.566 -14.472   1.167  1.00  0.00     0.063 C 
HETATM   19  C   UNL     1      42.077 -10.706   3.709  1.00  0.00     0.030 C 
ENDBRANCH   8  10
ENDBRANCH   1   8
BRANCH   1  20
HETATM   20  C   UNL     1      43.277 -17.870   3.342  1.00  0.00    -0.021 A 
HETATM   21  C   UNL     1      43.933 -18.507   4.413  1.00  0.00     0.012 A 
HETATM   22  C   UNL     1      44.259 -19.863   4.343  1.00  0.00     0.043 A 
HETATM   23  C   UNL     1      43.925 -20.592   3.210  1.00  0.00     0.116 A 
HETATM   24  F   UNL     1      44.240 -21.891   3.143  1.00  0.00    -0.206 F 
HETATM   25  C   UNL     1      43.266 -19.992   2.145  1.00  0.00     0.043 A 
HETATM   26  C   UNL     1      42.939 -18.636   2.211  1.00  0.00     0.012 A 
ENDBRANCH   1  20
TORSDOF 4
ENDMDL
MODEL 4
REMARK VINA RESULT:      -8.1      2.873      4.628
REMARK  4 active torsions:
REMARK  status: ('A' for Active; 'I' for Inactive)
REMARK    1  A    between atoms: C_5  and  C_6 
REMARK    2  A    between atoms: C_6  and  N_7 
REMARK    3  A    between atoms: C_6  and  C_18 
REMARK    4  A    between atoms: N_7  and  C_8 
ROOT
HETATM    1  C   UNL     1      42.105 -15.100   4.120  1.00  0.00     0.288 C 
ENDROOT
BRANCH   1   2
HETATM    2  C   UNL     1      42.886 -16.403   4.120  1.00  0.00    -0.003 A 
HETATM    3  C   UNL     1      43.259 -17.000   5.322  1.00  0.00     0.126 A 
HETATM    4  N   UNL     1      43.924 -18.172   5.418  1.00  0.00    -0.272 NA
HETATM    5  C   UNL     1      44.273 -18.772   4.261  1.00  0.00     0.116 A 
HETATM    6  C   UNL     1      43.969 -18.261   3.012  1.00  0.00     0.020 A 
HETATM    7  C   UNL     1      43.261 -17.064   2.943  1.00  0.00     0.012 A 
ENDBRANCH   1   2
BRANCH   1   8
HETATM    8  N   UNL     1      41.609 -14.816   2.751  1.00  0.00     0.101 N 
HETATM    9  H   UNL     1      42.186 -15.343   2.101  1.00  0.00     0.317 HD
BRANCH   8  10
HETATM   10  C   UNL     1      40.168 -15.002   2.539  1.00  0.00     0.225 C 
HETATM   11  C   UNL     1      39.779 -15.573   1.159  1.00  0.00     0.069 C 
HETATM   12  C   UNL     1      40.017 -14.560   0.056  1.00  0.00     0.190 C 
HETATM   13  N   UNL     1      39.220 -13.319   0.360  1.00  0.00    -0.067 N 
HETATM   14  C   UNL     1      39.500 -14.908  -1.326  1.00  0.00     0.035 C 
HETATM   15  H   UNL     1      38.235 -13.594   0.486  1.00  0.00     0.280 HD
HETATM   16  C   UNL     1      39.656 -12.649   1.625  1.00  0.00     0.237 C 
HETATM   17  C   UNL     1      39.263 -12.504  -0.907  1.00  0.00     0.235 C 
HETATM   18  C   UNL     1      39.469 -13.641   2.771  1.00  0.00     0.063 C 
HETATM   19  C   UNL     1      39.429 -13.545  -2.016  1.00  0.00     0.030 C 
ENDBRANCH   8  10
ENDBRANCH   1   8
BRANCH   1  20
HETATM   20  C   UNL     1      42.894 -13.961   4.753  1.00  0.00    -0.021 A 
HETATM   21  C   UNL     1      43.208 -12.824   3.982  1.00  0.00     0.012 A 
HETATM   22  C   UNL     1      43.918 -11.760   4.539  1.00  0.00     0.043 A 
HETATM   23  C   UNL     1      44.312 -11.818   5.869  1.00  0.00     0.116 A 
HETATM   24  F   UNL     1      44.996 -10.798   6.401  1.00  0.00    -0.206 F 
HETATM   25  C   UNL     1      44.005 -12.921   6.656  1.00  0.00     0.043 A 
HETATM   26  C   UNL     1      43.294 -13.988   6.102  1.00  0.00     0.012 A 
ENDBRANCH   1  20
TORSDOF 4
ENDMDL
MODEL 5
REMARK VINA RESULT:      -8.0      1.949      2.677
REMARK  4 active torsions:
REMARK  status: ('A' for Active; 'I' for Inactive)
REMARK    1  A    between atoms: C_5  and  C_6 
REMARK    2  A    between atoms: C_6  and  N_7 
REMARK    3  A    between atoms: C_6  and  C_18 
REMARK    4  A    between atoms: N_7  and  C_8 
ROOT
HETATM    1  C   UNL     1      43.006 -13.788   2.196  1.00  0.00     0.288 C 
ENDROOT
BRANCH   1   2
HETATM    2  C   UNL     1      42.817 -12.862   3.385  1.00  0.00    -0.003 A 
HETATM    3  C   UNL     1      43.622 -11.735   3.537  1.00  0.00     0.126 A 
HETATM    4  N   UNL     1      43.503 -10.842   4.542  1.00  0.00    -0.272 NA
HETATM    5  C   UNL     1      42.558 -11.092   5.472  1.00  0.00     0.116 A 
HETATM    6  C   UNL     1      41.713 -12.186   5.430  1.00  0.00     0.020 A 
HETATM    7  C   UNL     1      41.842 -13.078   4.369  1.00  0.00     0.012 A 
ENDBRANCH   1   2
BRANCH   1   8
HETATM    8  N   UNL     1      41.954 -13.525   1.185  1.00  0.00     0.101 N 
HETATM    9  H   UNL     1      42.334 -13.773   0.275  1.00  0.00     0.317 HD
BRANCH   8  10
HETATM   10  C   UNL     1      40.640 -14.123   1.455  1.00  0.00     0.225 C 
HETATM   11  C   UNL     1      40.110 -15.061   0.349  1.00  0.00     0.069 C 
HETATM   12  C   UNL     1      39.727 -14.284  -0.896  1.00  0.00     0.190 C 
HETATM   13  N   UNL     1      38.687 -13.261  -0.524  1.00  0.00    -0.067 N 
HETATM   14  C   UNL     1      39.010 -15.045  -1.992  1.00  0.00     0.035 C 
HETATM   15  H   UNL     1      37.905 -13.750  -0.065  1.00  0.00     0.280 HD
HETATM   16  C   UNL     1      39.199 -12.243   0.446  1.00  0.00     0.237 C 
HETATM   17  C   UNL     1      38.145 -12.757  -1.837  1.00  0.00     0.235 C 
HETATM   18  C   UNL     1      39.634 -12.977   1.712  1.00  0.00     0.063 C 
HETATM   19  C   UNL     1      38.340 -13.932  -2.798  1.00  0.00     0.030 C 
ENDBRANCH   8  10
ENDBRANCH   1   8
BRANCH   1  20
HETATM   20  C   UNL     1      43.122 -15.247   2.621  1.00  0.00    -0.021 A 
HETATM   21  C   UNL     1      43.283 -16.243   1.638  1.00  0.00     0.012 A 
HETATM   22  C   UNL     1      43.404 -17.586   1.999  1.00  0.00     0.043 A 
HETATM   23  C   UNL     1      43.375 -17.942   3.340  1.00  0.00     0.116 A 
HETATM   24  F   UNL     1      43.488 -19.231   3.684  1.00  0.00    -0.206 F 
HETATM   25  C   UNL     1      43.231 -16.980   4.330  1.00  0.00     0.043 A 
HETATM   26  C   UNL     1      43.109 -15.635   3.974  1.00  0.00     0.012 A 
ENDBRANCH   1  20
TORSDOF 4
ENDMDL
MODEL 6
REMARK VINA RESULT:      -8.0      2.695      6.039
REMARK  4 active torsions:
REMARK  status: ('A' for Active; 'I' for Inactive)
REMARK    1  A    between atoms: C_5  and  C_6 
REMARK    2  A    between atoms: C_6  and  N_7 
REMARK    3  A    between atoms: C_6  and  C_18 
REMARK    4  A    between atoms: N_7  and  C_8 
ROOT
HETATM    1  C   UNL     1      41.239 -14.648   4.093  1.00  0.00     0.288 C 
ENDROOT
BRANCH   1   2
HETATM    2  C   UNL     1      42.156 -13.468   4.363  1.00  0.00    -0.003 A 
HETATM    3  C   UNL     1      42.109 -12.805   5.587  1.00  0.00     0.126 A 
HETATM    4  N   UNL     1      42.909 -11.770   5.926  1.00  0.00    -0.272 NA
HETATM    5  C   UNL     1      43.781 -11.341   4.990  1.00  0.00     0.116 A 
HETATM    6  C   UNL     1      43.903 -11.915   3.737  1.00  0.00     0.020 A 
HETATM    7  C   UNL     1      43.083 -12.996   3.424  1.00  0.00     0.012 A 
ENDBRANCH   1   2
BRANCH   1   8
HETATM    8  N   UNL     1      41.895 -15.902   4.534  1.00  0.00     0.101 N 
HETATM    9  H   UNL     1      41.307 -16.677   4.235  1.00  0.00     0.317 HD
BRANCH   8  10
HETATM   10  C   UNL     1      43.305 -16.057   4.156  1.00  0.00     0.225 C 
HETATM   11  C   UNL     1      43.564 -17.016   2.974  1.00  0.00     0.069 C 
HETATM   12  C   UNL     1      43.300 -18.457   3.366  1.00  0.00     0.190 C 
HETATM   13  N   UNL     1      44.180 -18.808   4.536  1.00  0.00    -0.067 N 
HETATM   14  C   UNL     1      43.698 -19.528   2.370  1.00  0.00     0.035 C 
HETATM   15  H   UNL     1      45.156 -18.605   4.275  1.00  0.00     0.280 HD
HETATM   16  C   UNL     1      43.872 -17.995   5.754  1.00  0.00     0.237 C 
HETATM   17  C   UNL     1      44.089 -20.307   4.661  1.00  0.00     0.235 C 
HETATM   18  C   UNL     1      44.088 -16.525   5.405  1.00  0.00     0.063 C 
HETATM   19  C   UNL     1      43.790 -20.783   3.238  1.00  0.00     0.030 C 
ENDBRANCH   8  10
ENDBRANCH   1   8
BRANCH   1  20
HETATM   20  C   UNL     1      40.744 -14.668   2.651  1.00  0.00    -0.021 A 
HETATM   21  C   UNL     1      40.321 -15.885   2.082  1.00  0.00     0.012 A 
HETATM   22  C   UNL     1      39.852 -15.932   0.768  1.00  0.00     0.043 A 
HETATM   23  C   UNL     1      39.793 -14.765   0.018  1.00  0.00     0.116 A 
HETATM   24  F   UNL     1      39.345 -14.812  -1.242  1.00  0.00    -0.206 F 
HETATM   25  C   UNL     1      40.191 -13.549   0.559  1.00  0.00     0.043 A 
HETATM   26  C   UNL     1      40.661 -13.499   1.873  1.00  0.00     0.012 A 
ENDBRANCH   1  20
TORSDOF 4
ENDMDL
MODEL 7
REMARK VINA RESULT:      -7.9      3.463      6.357
REMARK  4 active torsions:
REMARK  status: ('A' for Active; 'I' for Inactive)
REMARK    1  A    between atoms: C_5  and  C_6 
REMARK    2  A    between atoms: C_6  and  N_7 
REMARK    3  A    between atoms: C_6  and  C_18 
REMARK    4  A    between atoms: N_7  and  C_8 
ROOT
HETATM    1  C   UNL     1      42.787 -14.157   4.396  1.00  0.00     0.288 C 
ENDROOT
BRANCH   1   2
HETATM    2  C   UNL     1      43.105 -15.292   5.354  1.00  0.00    -0.003 A 
HETATM    3  C   UNL     1      42.812 -15.173   6.711  1.00  0.00     0.126 A 
HETATM    4  N   UNL     1      43.030 -16.142   7.627  1.00  0.00    -0.272 NA
HETATM    5  C   UNL     1      43.602 -17.281   7.185  1.00  0.00     0.116 A 
HETATM    6  C   UNL     1      43.948 -17.503   5.864  1.00  0.00     0.020 A 
HETATM    7  C   UNL     1      43.689 -16.496   4.937  1.00  0.00     0.012 A 
ENDBRANCH   1   2
BRANCH   1   8
HETATM    8  N   UNL     1      42.290 -12.986   5.158  1.00  0.00     0.101 N 
HETATM    9  H   UNL     1      42.383 -13.203   6.148  1.00  0.00     0.317 HD
BRANCH   8  10
HETATM   10  C   UNL     1      42.864 -11.687   4.786  1.00  0.00     0.225 C 
HETATM   11  C   UNL     1      44.349 -11.496   5.165  1.00  0.00     0.069 C 
HETATM   12  C   UNL     1      44.523 -11.371   6.666  1.00  0.00     0.190 C 
HETATM   13  N   UNL     1      43.698 -10.210   7.153  1.00  0.00    -0.067 N 
HETATM   14  C   UNL     1      45.898 -10.985   7.173  1.00  0.00     0.035 C 
HETATM   15  H   UNL     1      43.973  -9.374   6.617  1.00  0.00     0.280 HD
HETATM   16  C   UNL     1      42.231 -10.411   6.932  1.00  0.00     0.237 C 
HETATM   17  C   UNL     1      44.159  -9.966   8.567  1.00  0.00     0.235 C 
HETATM   18  C   UNL     1      42.001 -10.578   5.432  1.00  0.00     0.063 C 
HETATM   19  C   UNL     1      45.608 -10.457   8.578  1.00  0.00     0.030 C 
ENDBRANCH   8  10
ENDBRANCH   1   8
BRANCH   1  20
HETATM   20  C   UNL     1      41.872 -14.605   3.263  1.00  0.00    -0.021 A 
HETATM   21  C   UNL     1      42.293 -14.440   1.928  1.00  0.00     0.012 A 
HETATM   22  C   UNL     1      41.481 -14.852   0.870  1.00  0.00     0.043 A 
HETATM   23  C   UNL     1      40.252 -15.440   1.135  1.00  0.00     0.116 A 
HETATM   24  F   UNL     1      39.474 -15.833   0.119  1.00  0.00    -0.206 F 
HETATM   25  C   UNL     1      39.819 -15.628   2.442  1.00  0.00     0.043 A 
HETATM   26  C   UNL     1      40.627 -15.216   3.503  1.00  0.00     0.012 A 
ENDBRANCH   1  20
TORSDOF 4
ENDMDL
MODEL 8
REMARK VINA RESULT:      -7.8     14.096     16.311
REMARK  4 active torsions:
REMARK  status: ('A' for Active; 'I' for Inactive)
REMARK    1  A    between atoms: C_5  and  C_6 
REMARK    2  A    between atoms: C_6  and  N_7 
REMARK    3  A    between atoms: C_6  and  C_18 
REMARK    4  A    between atoms: N_7  and  C_8 
ROOT
HETATM    1  C   UNL     1      45.481 -29.650  -1.170  1.00  0.00     0.288 C 
ENDROOT
BRANCH   1   2
HETATM    2  C   UNL     1      45.234 -29.983  -2.631  1.00  0.00    -0.003 A 
HETATM    3  C   UNL     1      46.136 -30.781  -3.334  1.00  0.00     0.126 A 
HETATM    4  N   UNL     1      45.981 -31.154  -4.623  1.00  0.00    -0.272 NA
HETATM    5  C   UNL     1      44.892 -30.685  -5.267  1.00  0.00     0.116 A 
HETATM    6  C   UNL     1      43.941 -29.875  -4.674  1.00  0.00     0.020 A 
HETATM    7  C   UNL     1      44.114 -29.526  -3.337  1.00  0.00     0.012 A 
ENDBRANCH   1   2
BRANCH   1   8
HETATM    8  N   UNL     1      46.806 -30.170  -0.756  1.00  0.00     0.101 N 
HETATM    9  H   UNL     1      47.027 -30.959  -1.358  1.00  0.00     0.317 HD
BRANCH   8  10
HETATM   10  C   UNL     1      47.886 -29.179  -0.667  1.00  0.00     0.225 C 
HETATM   11  C   UNL     1      49.201 -29.700  -0.049  1.00  0.00     0.069 C 
HETATM   12  C   UNL     1      49.045 -29.964   1.437  1.00  0.00     0.190 C 
HETATM   13  N   UNL     1      48.611 -28.690   2.110  1.00  0.00    -0.067 N 
HETATM   14  C   UNL     1      50.303 -30.293   2.215  1.00  0.00     0.035 C 
HETATM   15  H   UNL     1      49.292 -27.953   1.873  1.00  0.00     0.280 HD
HETATM   16  C   UNL     1      47.271 -28.217   1.641  1.00  0.00     0.237 C 
HETATM   17  C   UNL     1      48.779 -28.948   3.585  1.00  0.00     0.235 C 
HETATM   18  C   UNL     1      47.360 -27.968   0.138  1.00  0.00     0.063 C 
HETATM   19  C   UNL     1      49.900 -29.987   3.658  1.00  0.00     0.030 C 
ENDBRANCH   8  10
ENDBRANCH   1   8
BRANCH   1  20
HETATM   20  C   UNL     1      44.324 -30.091  -0.281  1.00  0.00    -0.021 A 
HETATM   21  C   UNL     1      43.542 -29.117   0.370  1.00  0.00     0.012 A 
HETATM   22  C   UNL     1      42.469 -29.491   1.181  1.00  0.00     0.043 A 
HETATM   23  C   UNL     1      42.164 -30.836   1.338  1.00  0.00     0.116 A 
HETATM   24  F   UNL     1      41.136 -31.193   2.118  1.00  0.00    -0.206 F 
HETATM   25  C   UNL     1      42.909 -31.816   0.697  1.00  0.00     0.043 A 
HETATM   26  C   UNL     1      43.984 -31.446  -0.114  1.00  0.00     0.012 A 
ENDBRANCH   1  20
TORSDOF 4
ENDMDL
MODEL 9
REMARK VINA RESULT:      -7.6      3.075      6.632
REMARK  4 active torsions:
REMARK  status: ('A' for Active; 'I' for Inactive)
REMARK    1  A    between atoms: C_5  and  C_6 
REMARK    2  A    between atoms: C_6  and  N_7 
REMARK    3  A    between atoms: C_6  and  C_18 
REMARK    4  A    between atoms: N_7  and  C_8 
ROOT
HETATM    1  C   UNL     1      40.874 -14.179   2.562  1.00  0.00     0.288 C 
ENDROOT
BRANCH   1   2
HETATM    2  C   UNL     1      41.546 -12.978   3.203  1.00  0.00    -0.003 A 
HETATM    3  C   UNL     1      40.936 -12.313   4.265  1.00  0.00     0.126 A 
HETATM    4  N   UNL     1      41.474 -11.259   4.916  1.00  0.00    -0.272 NA
HETATM    5  C   UNL     1      42.667 -10.811   4.471  1.00  0.00     0.116 A 
HETATM    6  C   UNL     1      43.355 -11.384   3.416  1.00  0.00     0.020 A 
HETATM    7  C   UNL     1      42.788 -12.485   2.780  1.00  0.00     0.012 A 
ENDBRANCH   1   2
BRANCH   1   8
HETATM    8  N   UNL     1      41.841 -15.300   2.467  1.00  0.00     0.101 N 
HETATM    9  H   UNL     1      42.753 -14.941   2.739  1.00  0.00     0.317 HD
BRANCH   8  10
HETATM   10  C   UNL     1      41.464 -16.534   3.166  1.00  0.00     0.225 C 
HETATM   11  C   UNL     1      40.939 -16.336   4.605  1.00  0.00     0.069 C 
HETATM   12  C   UNL     1      42.050 -15.903   5.542  1.00  0.00     0.190 C 
HETATM   13  N   UNL     1      43.138 -16.943   5.513  1.00  0.00    -0.067 N 
HETATM   14  C   UNL     1      41.728 -15.859   7.022  1.00  0.00     0.035 C 
HETATM   15  H   UNL     1      42.716 -17.856   5.739  1.00  0.00     0.280 HD
HETATM   16  C   UNL     1      43.775 -17.075   4.165  1.00  0.00     0.237 C 
HETATM   17  C   UNL     1      44.037 -16.605   6.674  1.00  0.00     0.235 C 
HETATM   18  C   UNL     1      42.690 -17.477   3.170  1.00  0.00     0.063 C 
HETATM   19  C   UNL     1      43.110 -15.909   7.673  1.00  0.00     0.030 C 
ENDBRANCH   8  10
ENDBRANCH   1   8
BRANCH   1  20
HETATM   20  C   UNL     1      40.196 -13.819   1.246  1.00  0.00    -0.021 A 
HETATM   21  C   UNL     1      39.539 -12.579   1.123  1.00  0.00     0.012 A 
HETATM   22  C   UNL     1      38.920 -12.216  -0.074  1.00  0.00     0.043 A 
HETATM   23  C   UNL     1      38.959 -13.083  -1.157  1.00  0.00     0.116 A 
HETATM   24  F   UNL     1      38.362 -12.736  -2.304  1.00  0.00    -0.206 F 
HETATM   25  C   UNL     1      39.611 -14.306  -1.069  1.00  0.00     0.043 A 
HETATM   26  C   UNL     1      40.232 -14.673   0.128  1.00  0.00     0.012 A 
ENDBRANCH   1  20
TORSDOF 4
ENDMDL
MODEL 10
REMARK VINA RESULT:      -7.6      3.338      6.502
REMARK  4 active torsions:
REMARK  status: ('A' for Active; 'I' for Inactive)
REMARK    1  A    between atoms: C_5  and  C_6 
REMARK    2  A    between atoms: C_6  and  N_7 
REMARK    3  A    between atoms: C_6  and  C_18 
REMARK    4  A    between atoms: N_7  and  C_8 
ROOT
HETATM    1  C   UNL     1      42.460 -13.741   2.058  1.00  0.00     0.288 C 
ENDROOT
BRANCH   1   2
HETATM    2  C   UNL     1      42.761 -15.122   2.613  1.00  0.00    -0.003 A 
HETATM    3  C   UNL     1      42.531 -15.406   3.958  1.00  0.00     0.126 A 
HETATM    4  N   UNL     1      42.738 -16.613   4.529  1.00  0.00    -0.272 NA
HETATM    5  C   UNL     1      43.234 -17.586   3.737  1.00  0.00     0.116 A 
HETATM    6  C   UNL     1      43.514 -17.412   2.394  1.00  0.00     0.020 A 
HETATM    7  C   UNL     1      43.268 -16.164   1.826  1.00  0.00     0.012 A 
ENDBRANCH   1   2
BRANCH   1   8
HETATM    8  N   UNL     1      42.157 -12.810   3.171  1.00  0.00     0.101 N 
HETATM    9  H   UNL     1      42.224 -13.338   4.038  1.00  0.00     0.317 HD
BRANCH   8  10
HETATM   10  C   UNL     1      42.921 -11.556   3.187  1.00  0.00     0.225 C 
HETATM   11  C   UNL     1      44.260 -11.617   3.954  1.00  0.00     0.069 C 
HETATM   12  C   UNL     1      44.034 -11.736   5.449  1.00  0.00     0.190 C 
HETATM   13  N   UNL     1      43.213 -10.560   5.907  1.00  0.00    -0.067 N 
HETATM   14  C   UNL     1      45.251 -11.609   6.343  1.00  0.00     0.035 C 
HETATM   15  H   UNL     1      43.694  -9.698   5.612  1.00  0.00     0.280 HD
HETATM   16  C   UNL     1      41.848 -10.535   5.294  1.00  0.00     0.237 C 
HETATM   17  C   UNL     1      43.296 -10.586   7.412  1.00  0.00     0.235 C 
HETATM   18  C   UNL     1      42.015 -10.450   3.779  1.00  0.00     0.063 C 
HETATM   19  C   UNL     1      44.640 -11.258   7.701  1.00  0.00     0.030 C 
ENDBRANCH   8  10
ENDBRANCH   1   8
BRANCH   1  20
HETATM   20  C   UNL     1      41.399 -13.784   0.965  1.00  0.00    -0.021 A 
HETATM   21  C   UNL     1      40.658 -14.965   0.766  1.00  0.00     0.012 A 
HETATM   22  C   UNL     1      39.672 -15.029  -0.219  1.00  0.00     0.043 A 
HETATM   23  C   UNL     1      39.412 -13.915  -1.005  1.00  0.00     0.116 A 
HETATM   24  F   UNL     1      38.467 -13.978  -1.951  1.00  0.00    -0.206 F 
HETATM   25  C   UNL     1      40.117 -12.733  -0.821  1.00  0.00     0.043 A 
HETATM   26  C   UNL     1      41.106 -12.665   0.163  1.00  0.00     0.012 A 
ENDBRANCH   1  20
TORSDOF 4
ENDMDL
