MODEL 1
REMARK VINA RESULT:     -10.1      0.000      0.000
REMARK  8 active torsions:
REMARK  status: ('A' for Active; 'I' for Inactive)
REMARK    1  A    between atoms: C_2  and  O_3 
REMARK    2  A    between atoms: O_3  and  C_4 
REMARK    3  A    between atoms: C_7  and  N_8 
REMARK       I    between atoms: N_8  and  C_9 
REMARK       I    between atoms: C_9  and  N_10 
REMARK    4  A    between atoms: N_10  and  C_11 
REMARK    5  A    between atoms: C_12  and  N_13 
REMARK    6  A    between atoms: C_29  and  C_30 
REMARK       I    between atoms: C_30  and  N_31 
REMARK    7  A    between atoms: N_31  and  C_32 
REMARK    8  A    between atoms: C_32  and  C_33 
ROOT
HETATM    1  C   UNL     1      39.439 -13.049   2.273  1.00  0.00     0.043 A 
HETATM    2  C   UNL     1      39.128 -12.189   1.194  1.00  0.00     0.052 A 
HETATM    3  C   UNL     1      39.086 -10.816   1.516  1.00  0.00     0.032 A 
HETATM    4  C   UNL     1      39.384 -10.322   2.799  1.00  0.00     0.019 A 
HETATM    5  C   UNL     1      39.730 -11.193   3.825  1.00  0.00     0.033 A 
HETATM    6  C   UNL     1      39.727 -12.557   3.564  1.00  0.00     0.043 A 
ENDROOT
BRANCH   1   7
HETATM    7  N   UNL     1      39.475 -14.466   2.151  1.00  0.00    -0.213 NA
HETATM    8  C   UNL     1      40.753 -15.012   2.109  1.00  0.00     0.281 C 
HETATM    9  N   UNL     1      40.801 -16.293   2.644  1.00  0.00    -0.215 NA
HETATM   10  O   UNL     1      41.729 -14.368   1.728  1.00  0.00    -0.260 OA
HETATM   11  H   UNL     1      40.047 -16.437   3.303  1.00  0.00     0.138 HD
HETATM   12  H   UNL     1      38.875 -14.827   1.420  1.00  0.00     0.138 HD
BRANCH   9  13
HETATM   13  C   UNL     1      42.083 -16.728   3.072  1.00  0.00     0.016 C 
HETATM   14  C   UNL     1      42.780 -17.635   2.271  1.00  0.00     0.026 C 
HETATM   15  C   UNL     1      43.771 -18.429   2.849  1.00  0.00     0.038 C 
HETATM   16  C   UNL     1      44.061 -18.285   4.205  1.00  0.00     0.068 C 
HETATM   17  C   UNL     1      43.513 -17.243   4.950  1.00  0.00     0.038 C 
HETATM   18  C   UNL     1      42.517 -16.460   4.377  1.00  0.00     0.026 C 
BRANCH  16  19
HETATM   19  O   UNL     1      44.806 -19.263   4.813  1.00  0.00    -0.352 OA
BRANCH  19  20
HETATM   20  C   UNL     1      43.943 -20.062   5.645  1.00  0.00     0.171 C 
HETATM   21  C   UNL     1      43.574 -21.330   4.902  1.00  0.00     0.034 C 
ENDBRANCH  19  20
ENDBRANCH  16  19
ENDBRANCH   9  13
ENDBRANCH   1   7
BRANCH   2  22
HETATM   22  N   UNL     1      38.911 -12.644  -0.112  1.00  0.00    -0.378 N 
HETATM   23  C   UNL     1      37.903 -12.004  -0.978  1.00  0.00     0.133 C 
HETATM   24  C   UNL     1      38.517 -11.275  -2.197  1.00  0.00     0.054 C 
HETATM   25  C   UNL     1      39.387 -12.254  -2.979  1.00  0.00     0.020 C 
HETATM   26  C   UNL     1      39.330 -10.047  -1.821  1.00  0.00     0.020 A 
HETATM   27  C   UNL     1      40.519 -12.675  -2.057  1.00  0.00     0.023 C 
HETATM   28  C   UNL     1      41.383 -11.465  -1.689  1.00  0.00     0.138 C 
HETATM   29  C   UNL     1      39.978 -13.386  -0.809  1.00  0.00     0.129 C 
HETATM   30  N   UNL     1      40.693 -10.185  -1.546  1.00  0.00    -0.317 N 
HETATM   31  C   UNL     1      41.504  -9.097  -1.202  1.00  0.00     0.247 A 
HETATM   32  O   UNL     1      42.713  -9.162  -0.991  1.00  0.00    -0.268 OA
HETATM   33  C   UNL     1      40.833  -7.776  -1.123  1.00  0.00     0.074 A 
HETATM   34  C   UNL     1      39.532  -7.667  -1.408  1.00  0.00     0.007 A 
HETATM   35  C   UNL     1      38.763  -8.827  -1.776  1.00  0.00     0.026 A 
ENDBRANCH   2  22
BRANCH   5  36
HETATM   36  C   UNL     1      40.055 -10.662   5.179  1.00  0.00     0.251 C 
HETATM   37  N   UNL     1      41.380 -10.725   5.555  1.00  0.00    -0.353 N 
HETATM   38  H   UNL     1      42.088 -10.868   4.847  1.00  0.00     0.163 HD
HETATM   39  O   UNL     1      39.169 -10.197   5.889  1.00  0.00    -0.268 OA
BRANCH  37  40
HETATM   40  C   UNL     1      41.832 -10.225   6.833  1.00  0.00     0.161 C 
BRANCH  40  41
HETATM   41  C   UNL     1      43.315 -10.450   7.000  1.00  0.00    -0.041 A 
HETATM   42  C   UNL     1      44.000 -11.382   6.208  1.00  0.00     0.009 A 
HETATM   43  C   UNL     1      45.375 -11.569   6.364  1.00  0.00     0.001 A 
HETATM   44  C   UNL     1      46.080 -10.831   7.313  1.00  0.00     0.000 A 
HETATM   45  C   UNL     1      45.410  -9.903   8.108  1.00  0.00     0.001 A 
HETATM   46  C   UNL     1      44.036  -9.713   7.953  1.00  0.00     0.009 A 
ENDBRANCH  40  41
ENDBRANCH  37  40
ENDBRANCH   5  36
TORSDOF 8
ENDMDL
MODEL 2
REMARK VINA RESULT:      -9.6      3.871      8.788
REMARK  8 active torsions:
REMARK  status: ('A' for Active; 'I' for Inactive)
REMARK    1  A    between atoms: C_2  and  O_3 
REMARK    2  A    between atoms: O_3  and  C_4 
REMARK    3  A    between atoms: C_7  and  N_8 
REMARK       I    between atoms: N_8  and  C_9 
REMARK       I    between atoms: C_9  and  N_10 
REMARK    4  A    between atoms: N_10  and  C_11 
REMARK    5  A    between atoms: C_12  and  N_13 
REMARK    6  A    between atoms: C_29  and  C_30 
REMARK       I    between atoms: C_30  and  N_31 
REMARK    7  A    between atoms: N_31  and  C_32 
REMARK    8  A    between atoms: C_32  and  C_33 
ROOT
HETATM    1  C   UNL     1      43.072 -11.010   4.996  1.00  0.00     0.043 A 
HETATM    2  C   UNL     1      43.048 -12.384   4.662  1.00  0.00     0.052 A 
HETATM    3  C   UNL     1      43.585 -13.246   5.640  1.00  0.00     0.032 A 
HETATM    4  C   UNL     1      44.063 -12.791   6.883  1.00  0.00     0.019 A 
HETATM    5  C   UNL     1      44.030 -11.437   7.195  1.00  0.00     0.033 A 
HETATM    6  C   UNL     1      43.560 -10.549   6.236  1.00  0.00     0.043 A 
ENDROOT
BRANCH   1   7
HETATM    7  N   UNL     1      42.621  -9.988   4.114  1.00  0.00    -0.213 NA
HETATM    8  C   UNL     1      41.522  -9.270   4.571  1.00  0.00     0.281 C 
HETATM    9  N   UNL     1      41.513  -7.960   4.106  1.00  0.00    -0.215 NA
HETATM   10  O   UNL     1      40.722  -9.739   5.379  1.00  0.00    -0.260 OA
HETATM   11  H   UNL     1      42.448  -7.654   3.875  1.00  0.00     0.138 HD
HETATM   12  H   UNL     1      42.510 -10.297   3.156  1.00  0.00     0.138 HD
BRANCH   9  13
HETATM   13  C   UNL     1      40.736  -7.048   4.867  1.00  0.00     0.016 C 
HETATM   14  C   UNL     1      41.356  -6.351   5.905  1.00  0.00     0.026 C 
HETATM   15  C   UNL     1      40.573  -5.839   6.942  1.00  0.00     0.038 C 
HETATM   16  C   UNL     1      39.190  -6.012   6.906  1.00  0.00     0.068 C 
HETATM   17  C   UNL     1      38.560  -6.522   5.773  1.00  0.00     0.038 C 
HETATM   18  C   UNL     1      39.340  -7.043   4.748  1.00  0.00     0.026 C 
BRANCH  16  19
HETATM   19  O   UNL     1      38.481  -5.777   8.056  1.00  0.00    -0.352 OA
BRANCH  19  20
HETATM   20  C   UNL     1      39.238  -6.264   9.182  1.00  0.00     0.171 C 
HETATM   21  C   UNL     1      38.892  -7.720   9.419  1.00  0.00     0.034 C 
ENDBRANCH  19  20
ENDBRANCH  16  19
ENDBRANCH   9  13
ENDBRANCH   1   7
BRANCH   2  22
HETATM   22  N   UNL     1      42.501 -12.875   3.471  1.00  0.00    -0.378 N 
HETATM   23  C   UNL     1      43.256 -13.817   2.624  1.00  0.00     0.133 C 
HETATM   24  C   UNL     1      42.615 -15.224   2.551  1.00  0.00     0.054 C 
HETATM   25  C   UNL     1      41.168 -15.091   2.088  1.00  0.00     0.020 C 
HETATM   26  C   UNL     1      42.670 -15.982   3.867  1.00  0.00     0.020 A 
HETATM   27  C   UNL     1      40.435 -14.289   3.149  1.00  0.00     0.023 C 
HETATM   28  C   UNL     1      40.437 -15.044   4.482  1.00  0.00     0.138 C 
HETATM   29  C   UNL     1      41.037 -12.884   3.293  1.00  0.00     0.129 C 
HETATM   30  N   UNL     1      41.625 -15.838   4.784  1.00  0.00    -0.317 N 
HETATM   31  C   UNL     1      41.605 -16.512   6.011  1.00  0.00     0.247 A 
HETATM   32  O   UNL     1      40.692 -16.450   6.831  1.00  0.00    -0.268 OA
HETATM   33  C   UNL     1      42.771 -17.382   6.303  1.00  0.00     0.074 A 
HETATM   34  C   UNL     1      43.749 -17.517   5.402  1.00  0.00     0.007 A 
HETATM   35  C   UNL     1      43.694 -16.808   4.150  1.00  0.00     0.026 A 
ENDBRANCH   2  22
BRANCH   5  36
HETATM   36  C   UNL     1      44.527 -10.963   8.518  1.00  0.00     0.251 C 
HETATM   37  N   UNL     1      43.566 -10.703   9.471  1.00  0.00    -0.353 N 
HETATM   38  H   UNL     1      42.633 -11.075   9.346  1.00  0.00     0.163 HD
HETATM   39  O   UNL     1      45.731 -10.829   8.713  1.00  0.00    -0.268 OA
BRANCH  37  40
HETATM   40  C   UNL     1      43.914 -10.257  10.801  1.00  0.00     0.161 C 
BRANCH  40  41
HETATM   41  C   UNL     1      43.381  -8.869  11.056  1.00  0.00    -0.041 A 
HETATM   42  C   UNL     1      43.075  -8.439  12.354  1.00  0.00     0.009 A 
HETATM   43  C   UNL     1      42.595  -7.146  12.577  1.00  0.00     0.001 A 
HETATM   44  C   UNL     1      42.413  -6.272  11.507  1.00  0.00     0.000 A 
HETATM   45  C   UNL     1      42.712  -6.689  10.211  1.00  0.00     0.001 A 
HETATM   46  C   UNL     1      43.193  -7.979   9.986  1.00  0.00     0.009 A 
ENDBRANCH  40  41
ENDBRANCH  37  40
ENDBRANCH   5  36
TORSDOF 8
ENDMDL
MODEL 3
REMARK VINA RESULT:      -9.5      2.669      7.537
REMARK  8 active torsions:
REMARK  status: ('A' for Active; 'I' for Inactive)
REMARK    1  A    between atoms: C_2  and  O_3 
REMARK    2  A    between atoms: O_3  and  C_4 
REMARK    3  A    between atoms: C_7  and  N_8 
REMARK       I    between atoms: N_8  and  C_9 
REMARK       I    between atoms: C_9  and  N_10 
REMARK    4  A    between atoms: N_10  and  C_11 
REMARK    5  A    between atoms: C_12  and  N_13 
REMARK    6  A    between atoms: C_29  and  C_30 
REMARK       I    between atoms: C_30  and  N_31 
REMARK    7  A    between atoms: N_31  and  C_32 
REMARK    8  A    between atoms: C_32  and  C_33 
ROOT
HETATM    1  C   UNL     1      41.694 -11.158   4.295  1.00  0.00     0.043 A 
HETATM    2  C   UNL     1      42.291 -12.438   4.211  1.00  0.00     0.052 A 
HETATM    3  C   UNL     1      43.277 -12.703   5.184  1.00  0.00     0.032 A 
HETATM    4  C   UNL     1      43.611 -11.792   6.202  1.00  0.00     0.019 A 
HETATM    5  C   UNL     1      42.971 -10.560   6.282  1.00  0.00     0.033 A 
HETATM    6  C   UNL     1      42.035 -10.238   5.309  1.00  0.00     0.043 A 
ENDROOT
BRANCH   1   7
HETATM    7  N   UNL     1      40.718 -10.694   3.369  1.00  0.00    -0.213 NA
HETATM    8  C   UNL     1      41.098 -10.777   2.035  1.00  0.00     0.281 C 
HETATM    9  N   UNL     1      40.016 -10.972   1.185  1.00  0.00    -0.215 NA
HETATM   10  O   UNL     1      42.279 -10.778   1.688  1.00  0.00    -0.260 OA
HETATM   11  H   UNL     1      39.246 -11.405   1.677  1.00  0.00     0.138 HD
HETATM   12  H   UNL     1      40.330  -9.790   3.606  1.00  0.00     0.138 HD
BRANCH   9  13
HETATM   13  C   UNL     1      40.328 -11.529  -0.083  1.00  0.00     0.016 C 
HETATM   14  C   UNL     1      40.108 -10.754  -1.223  1.00  0.00     0.026 C 
HETATM   15  C   UNL     1      39.942 -11.390  -2.454  1.00  0.00     0.038 C 
HETATM   16  C   UNL     1      40.023 -12.780  -2.525  1.00  0.00     0.068 C 
HETATM   17  C   UNL     1      40.447 -13.531  -1.430  1.00  0.00     0.038 C 
HETATM   18  C   UNL     1      40.600 -12.899  -0.201  1.00  0.00     0.026 C 
BRANCH  16  19
HETATM   19  O   UNL     1      39.565 -13.396  -3.661  1.00  0.00    -0.352 OA
BRANCH  19  20
HETATM   20  C   UNL     1      38.539 -14.342  -3.301  1.00  0.00     0.171 C 
HETATM   21  C   UNL     1      37.250 -13.595  -3.024  1.00  0.00     0.034 C 
ENDBRANCH  19  20
ENDBRANCH  16  19
ENDBRANCH   9  13
ENDBRANCH   1   7
BRANCH   2  22
HETATM   22  N   UNL     1      41.919 -13.397   3.262  1.00  0.00    -0.378 N 
HETATM   23  C   UNL     1      42.929 -14.266   2.629  1.00  0.00     0.133 C 
HETATM   24  C   UNL     1      42.776 -15.759   3.010  1.00  0.00     0.054 C 
HETATM   25  C   UNL     1      41.359 -16.216   2.682  1.00  0.00     0.020 C 
HETATM   26  C   UNL     1      43.088 -16.046   4.469  1.00  0.00     0.020 A 
HETATM   27  C   UNL     1      40.418 -15.405   3.555  1.00  0.00     0.023 C 
HETATM   28  C   UNL     1      40.679 -15.700   5.036  1.00  0.00     0.138 C 
HETATM   29  C   UNL     1      40.535 -13.906   3.247  1.00  0.00     0.129 C 
HETATM   30  N   UNL     1      42.064 -15.968   5.417  1.00  0.00    -0.317 N 
HETATM   31  C   UNL     1      42.276 -16.228   6.776  1.00  0.00     0.247 A 
HETATM   32  O   UNL     1      41.402 -16.212   7.639  1.00  0.00    -0.268 OA
HETATM   33  C   UNL     1      43.664 -16.574   7.170  1.00  0.00     0.074 A 
HETATM   34  C   UNL     1      44.623 -16.659   6.242  1.00  0.00     0.007 A 
HETATM   35  C   UNL     1      44.328 -16.398   4.858  1.00  0.00     0.026 A 
ENDBRANCH   2  22
BRANCH   5  36
HETATM   36  C   UNL     1      43.322  -9.605   7.371  1.00  0.00     0.251 C 
HETATM   37  N   UNL     1      44.489  -9.866   8.056  1.00  0.00    -0.353 N 
HETATM   38  H   UNL     1      45.168 -10.498   7.652  1.00  0.00     0.163 HD
HETATM   39  O   UNL     1      42.594  -8.647   7.610  1.00  0.00    -0.268 OA
BRANCH  37  40
HETATM   40  C   UNL     1      44.955  -9.007   9.120  1.00  0.00     0.161 C 
BRANCH  40  41
HETATM   41  C   UNL     1      44.196  -9.277  10.396  1.00  0.00    -0.041 A 
HETATM   42  C   UNL     1      43.558  -8.242  11.092  1.00  0.00     0.009 A 
HETATM   43  C   UNL     1      42.847  -8.509  12.264  1.00  0.00     0.001 A 
HETATM   44  C   UNL     1      42.770  -9.811  12.755  1.00  0.00     0.000 A 
HETATM   45  C   UNL     1      43.403 -10.849  12.074  1.00  0.00     0.001 A 
HETATM   46  C   UNL     1      44.111 -10.584  10.902  1.00  0.00     0.009 A 
ENDBRANCH  40  41
ENDBRANCH  37  40
ENDBRANCH   5  36
TORSDOF 8
ENDMDL
MODEL 4
REMARK VINA RESULT:      -9.3      2.742      8.647
REMARK  8 active torsions:
REMARK  status: ('A' for Active; 'I' for Inactive)
REMARK    1  A    between atoms: C_2  and  O_3 
REMARK    2  A    between atoms: O_3  and  C_4 
REMARK    3  A    between atoms: C_7  and  N_8 
REMARK       I    between atoms: N_8  and  C_9 
REMARK       I    between atoms: C_9  and  N_10 
REMARK    4  A    between atoms: N_10  and  C_11 
REMARK    5  A    between atoms: C_12  and  N_13 
REMARK    6  A    between atoms: C_29  and  C_30 
REMARK       I    between atoms: C_30  and  N_31 
REMARK    7  A    between atoms: N_31  and  C_32 
REMARK    8  A    between atoms: C_32  and  C_33 
ROOT
HETATM    1  C   UNL     1      41.157 -11.883   5.651  1.00  0.00     0.043 A 
HETATM    2  C   UNL     1      41.633 -10.788   6.411  1.00  0.00     0.052 A 
HETATM    3  C   UNL     1      42.764 -11.059   7.207  1.00  0.00     0.032 A 
HETATM    4  C   UNL     1      43.415 -12.306   7.213  1.00  0.00     0.019 A 
HETATM    5  C   UNL     1      42.947 -13.347   6.419  1.00  0.00     0.033 A 
HETATM    6  C   UNL     1      41.801 -13.138   5.663  1.00  0.00     0.043 A 
ENDROOT
BRANCH   1   7
HETATM    7  N   UNL     1      39.997 -11.813   4.830  1.00  0.00    -0.213 NA
HETATM    8  C   UNL     1      40.251 -11.832   3.464  1.00  0.00     0.281 C 
HETATM    9  N   UNL     1      39.219 -12.414   2.739  1.00  0.00    -0.215 NA
HETATM   10  O   UNL     1      41.325 -11.460   2.991  1.00  0.00    -0.260 OA
HETATM   11  H   UNL     1      38.689 -13.053   3.317  1.00  0.00     0.138 HD
HETATM   12  H   UNL     1      39.355 -11.077   5.095  1.00  0.00     0.138 HD
BRANCH   9  13
HETATM   13  C   UNL     1      39.574 -12.899   1.453  1.00  0.00     0.016 C 
HETATM   14  C   UNL     1      39.104 -12.213   0.331  1.00  0.00     0.026 C 
HETATM   15  C   UNL     1      39.016 -12.886  -0.889  1.00  0.00     0.038 C 
HETATM   16  C   UNL     1      39.421 -14.219  -0.967  1.00  0.00     0.068 C 
HETATM   17  C   UNL     1      40.078 -14.833   0.097  1.00  0.00     0.038 C 
HETATM   18  C   UNL     1      40.154 -14.167   1.314  1.00  0.00     0.026 C 
BRANCH  16  19
HETATM   19  O   UNL     1      39.050 -14.941  -2.072  1.00  0.00    -0.352 OA
BRANCH  19  20
HETATM   20  C   UNL     1      38.345 -14.075  -2.984  1.00  0.00     0.171 C 
HETATM   21  C   UNL     1      37.941 -14.870  -4.209  1.00  0.00     0.034 C 
ENDBRANCH  19  20
ENDBRANCH  16  19
ENDBRANCH   9  13
ENDBRANCH   1   7
BRANCH   2  22
HETATM   22  N   UNL     1      41.059  -9.512   6.360  1.00  0.00    -0.378 N 
HETATM   23  C   UNL     1      39.834  -9.204   7.122  1.00  0.00     0.133 C 
HETATM   24  C   UNL     1      40.060  -8.173   8.254  1.00  0.00     0.054 C 
HETATM   25  C   UNL     1      40.686  -6.913   7.665  1.00  0.00     0.020 C 
HETATM   26  C   UNL     1      40.926  -8.700   9.387  1.00  0.00     0.020 A 
HETATM   27  C   UNL     1      42.042  -7.311   7.107  1.00  0.00     0.023 C 
HETATM   28  C   UNL     1      42.955  -7.811   8.231  1.00  0.00     0.138 C 
HETATM   29  C   UNL     1      41.894  -8.354   5.991  1.00  0.00     0.129 C 
HETATM   30  N   UNL     1      42.312  -8.543   9.320  1.00  0.00    -0.317 N 
HETATM   31  C   UNL     1      43.170  -8.995  10.331  1.00  0.00     0.247 A 
HETATM   32  O   UNL     1      44.389  -8.845  10.337  1.00  0.00    -0.268 OA
HETATM   33  C   UNL     1      42.527  -9.676  11.481  1.00  0.00     0.074 A 
HETATM   34  C   UNL     1      41.197  -9.799  11.531  1.00  0.00     0.007 A 
HETATM   35  C   UNL     1      40.375  -9.291  10.464  1.00  0.00     0.026 A 
ENDBRANCH   2  22
BRANCH   5  36
HETATM   36  C   UNL     1      43.648 -14.663   6.422  1.00  0.00     0.251 C 
HETATM   37  N   UNL     1      42.852 -15.775   6.253  1.00  0.00    -0.353 N 
HETATM   38  H   UNL     1      41.916 -15.663   5.886  1.00  0.00     0.163 HD
HETATM   39  O   UNL     1      44.865 -14.713   6.561  1.00  0.00    -0.268 OA
BRANCH  37  40
HETATM   40  C   UNL     1      43.407 -17.109   6.216  1.00  0.00     0.161 C 
BRANCH  40  41
HETATM   41  C   UNL     1      43.361 -17.669   4.816  1.00  0.00    -0.041 A 
HETATM   42  C   UNL     1      43.971 -18.891   4.505  1.00  0.00     0.009 A 
HETATM   43  C   UNL     1      43.908 -19.405   3.207  1.00  0.00     0.001 A 
HETATM   44  C   UNL     1      43.238 -18.702   2.208  1.00  0.00     0.000 A 
HETATM   45  C   UNL     1      42.629 -17.484   2.504  1.00  0.00     0.001 A 
HETATM   46  C   UNL     1      42.689 -16.970   3.800  1.00  0.00     0.009 A 
ENDBRANCH  40  41
ENDBRANCH  37  40
ENDBRANCH   5  36
TORSDOF 8
ENDMDL
MODEL 5
REMARK VINA RESULT:      -9.3      3.426      8.598
REMARK  8 active torsions:
REMARK  status: ('A' for Active; 'I' for Inactive)
REMARK    1  A    between atoms: C_2  and  O_3 
REMARK    2  A    between atoms: O_3  and  C_4 
REMARK    3  A    between atoms: C_7  and  N_8 
REMARK       I    between atoms: N_8  and  C_9 
REMARK       I    between atoms: C_9  and  N_10 
REMARK    4  A    between atoms: N_10  and  C_11 
REMARK    5  A    between atoms: C_12  and  N_13 
REMARK    6  A    between atoms: C_29  and  C_30 
REMARK       I    between atoms: C_30  and  N_31 
REMARK    7  A    between atoms: N_31  and  C_32 
REMARK    8  A    between atoms: C_32  and  C_33 
ROOT
HETATM    1  C   UNL     1      42.963 -11.367   4.214  1.00  0.00     0.043 A 
HETATM    2  C   UNL     1      42.987 -12.779   4.133  1.00  0.00     0.052 A 
HETATM    3  C   UNL     1      43.552 -13.432   5.249  1.00  0.00     0.032 A 
HETATM    4  C   UNL     1      44.009 -12.743   6.388  1.00  0.00     0.019 A 
HETATM    5  C   UNL     1      43.928 -11.357   6.451  1.00  0.00     0.033 A 
HETATM    6  C   UNL     1      43.431 -10.673   5.349  1.00  0.00     0.043 A 
ENDROOT
BRANCH   1   7
HETATM    7  N   UNL     1      42.479 -10.538   3.163  1.00  0.00    -0.213 NA
HETATM    8  C   UNL     1      41.187 -10.062   3.348  1.00  0.00     0.281 C 
HETATM    9  N   UNL     1      40.986  -8.824   2.749  1.00  0.00    -0.215 NA
HETATM   10  O   UNL     1      40.367 -10.647   4.054  1.00  0.00    -0.260 OA
HETATM   11  H   UNL     1      41.861  -8.327   2.648  1.00  0.00     0.138 HD
HETATM   12  H   UNL     1      42.620 -10.927   2.240  1.00  0.00     0.138 HD
BRANCH   9  13
HETATM   13  C   UNL     1      39.902  -8.065   3.265  1.00  0.00     0.016 C 
HETATM   14  C   UNL     1      40.058  -7.439   4.503  1.00  0.00     0.026 C 
HETATM   15  C   UNL     1      38.922  -7.108   5.244  1.00  0.00     0.038 C 
HETATM   16  C   UNL     1      37.659  -7.386   4.723  1.00  0.00     0.068 C 
HETATM   17  C   UNL     1      37.504  -7.817   3.408  1.00  0.00     0.038 C 
HETATM   18  C   UNL     1      38.635  -8.159   2.675  1.00  0.00     0.026 C 
BRANCH  16  19
HETATM   19  O   UNL     1      36.586  -7.336   5.575  1.00  0.00    -0.352 OA
BRANCH  19  20
HETATM   20  C   UNL     1      35.474  -6.720   4.895  1.00  0.00     0.171 C 
HETATM   21  C   UNL     1      34.181  -7.224   5.502  1.00  0.00     0.034 C 
ENDBRANCH  19  20
ENDBRANCH  16  19
ENDBRANCH   9  13
ENDBRANCH   1   7
BRANCH   2  22
HETATM   22  N   UNL     1      42.462 -13.496   3.052  1.00  0.00    -0.378 N 
HETATM   23  C   UNL     1      43.270 -14.514   2.355  1.00  0.00     0.133 C 
HETATM   24  C   UNL     1      42.726 -15.952   2.530  1.00  0.00     0.054 C 
HETATM   25  C   UNL     1      41.268 -15.993   2.083  1.00  0.00     0.020 C 
HETATM   26  C   UNL     1      42.847 -16.476   3.951  1.00  0.00     0.020 A 
HETATM   27  C   UNL     1      40.494 -15.075   3.015  1.00  0.00     0.023 C 
HETATM   28  C   UNL     1      40.562 -15.596   4.454  1.00  0.00     0.138 C 
HETATM   29  C   UNL     1      41.000 -13.630   2.911  1.00  0.00     0.129 C 
HETATM   30  N   UNL     1      41.805 -16.250   4.855  1.00  0.00    -0.317 N 
HETATM   31  C   UNL     1      41.844 -16.711   6.177  1.00  0.00     0.247 A 
HETATM   32  O   UNL     1      40.939 -16.574   6.996  1.00  0.00    -0.268 OA
HETATM   33  C   UNL     1      43.070 -17.442   6.582  1.00  0.00     0.074 A 
HETATM   34  C   UNL     1      44.045 -17.661   5.694  1.00  0.00     0.007 A 
HETATM   35  C   UNL     1      43.928 -17.175   4.343  1.00  0.00     0.026 A 
ENDBRANCH   2  22
BRANCH   5  36
HETATM   36  C   UNL     1      44.404 -10.635   7.665  1.00  0.00     0.251 C 
HETATM   37  N   UNL     1      43.817  -9.414   7.915  1.00  0.00    -0.353 N 
HETATM   38  H   UNL     1      42.947  -9.180   7.454  1.00  0.00     0.163 HD
HETATM   39  O   UNL     1      45.267 -11.133   8.380  1.00  0.00    -0.268 OA
BRANCH  37  40
HETATM   40  C   UNL     1      44.173  -8.620   9.069  1.00  0.00     0.161 C 
BRANCH  40  41
HETATM   41  C   UNL     1      43.254  -8.920  10.228  1.00  0.00    -0.041 A 
HETATM   42  C   UNL     1      41.909  -9.251  10.018  1.00  0.00     0.009 A 
HETATM   43  C   UNL     1      41.073  -9.540  11.099  1.00  0.00     0.001 A 
HETATM   44  C   UNL     1      41.571  -9.497  12.400  1.00  0.00     0.000 A 
HETATM   45  C   UNL     1      42.906  -9.167  12.622  1.00  0.00     0.001 A 
HETATM   46  C   UNL     1      43.743  -8.880  11.543  1.00  0.00     0.009 A 
ENDBRANCH  40  41
ENDBRANCH  37  40
ENDBRANCH   5  36
TORSDOF 8
ENDMDL
MODEL 6
REMARK VINA RESULT:      -9.1      2.733      8.281
REMARK  8 active torsions:
REMARK  status: ('A' for Active; 'I' for Inactive)
REMARK    1  A    between atoms: C_2  and  O_3 
REMARK    2  A    between atoms: O_3  and  C_4 
REMARK    3  A    between atoms: C_7  and  N_8 
REMARK       I    between atoms: N_8  and  C_9 
REMARK       I    between atoms: C_9  and  N_10 
REMARK    4  A    between atoms: N_10  and  C_11 
REMARK    5  A    between atoms: C_12  and  N_13 
REMARK    6  A    between atoms: C_29  and  C_30 
REMARK       I    between atoms: C_30  and  N_31 
REMARK    7  A    between atoms: N_31  and  C_32 
REMARK    8  A    between atoms: C_32  and  C_33 
ROOT
HETATM    1  C   UNL     1      41.706 -12.720   3.313  1.00  0.00     0.043 A 
HETATM    2  C   UNL     1      40.901 -11.887   4.125  1.00  0.00     0.052 A 
HETATM    3  C   UNL     1      40.870 -12.234   5.492  1.00  0.00     0.032 A 
HETATM    4  C   UNL     1      41.622 -13.295   6.029  1.00  0.00     0.019 A 
HETATM    5  C   UNL     1      42.438 -14.065   5.209  1.00  0.00     0.033 A 
HETATM    6  C   UNL     1      42.453 -13.791   3.847  1.00  0.00     0.043 A 
ENDROOT
BRANCH   1   7
HETATM    7  N   UNL     1      41.820 -12.555   1.904  1.00  0.00    -0.213 NA
HETATM    8  C   UNL     1      40.742 -13.042   1.174  1.00  0.00     0.281 C 
HETATM    9  N   UNL     1      40.535 -12.334  -0.003  1.00  0.00    -0.215 NA
HETATM   10  O   UNL     1      40.010 -13.934   1.601  1.00  0.00    -0.260 OA
HETATM   11  H   UNL     1      40.910 -11.398   0.069  1.00  0.00     0.138 HD
HETATM   12  H   UNL     1      42.710 -12.859   1.530  1.00  0.00     0.138 HD
BRANCH   9  13
HETATM   13  C   UNL     1      39.230 -12.433  -0.554  1.00  0.00     0.016 C 
HETATM   14  C   UNL     1      39.009 -13.355  -1.579  1.00  0.00     0.026 C 
HETATM   15  C   UNL     1      37.931 -13.162  -2.445  1.00  0.00     0.038 C 
HETATM   16  C   UNL     1      37.085 -12.069  -2.253  1.00  0.00     0.068 C 
HETATM   17  C   UNL     1      37.186 -11.274  -1.114  1.00  0.00     0.038 C 
HETATM   18  C   UNL     1      38.266 -11.459  -0.259  1.00  0.00     0.026 C 
BRANCH  16  19
HETATM   19  O   UNL     1      36.232 -11.729  -3.271  1.00  0.00    -0.352 OA
BRANCH  19  20
HETATM   20  C   UNL     1      35.793 -10.369  -3.083  1.00  0.00     0.171 C 
HETATM   21  C   UNL     1      34.292 -10.301  -3.279  1.00  0.00     0.034 C 
ENDBRANCH  19  20
ENDBRANCH  16  19
ENDBRANCH   9  13
ENDBRANCH   1   7
BRANCH   2  22
HETATM   22  N   UNL     1      40.209 -10.774   3.634  1.00  0.00    -0.378 N 
HETATM   23  C   UNL     1      38.873 -10.424   4.153  1.00  0.00     0.133 C 
HETATM   24  C   UNL     1      38.849  -9.085   4.928  1.00  0.00     0.054 C 
HETATM   25  C   UNL     1      39.410  -7.981   4.037  1.00  0.00     0.020 C 
HETATM   26  C   UNL     1      39.615  -9.131   6.240  1.00  0.00     0.020 A 
HETATM   27  C   UNL     1      40.859  -8.338   3.750  1.00  0.00     0.023 C 
HETATM   28  C   UNL     1      41.670  -8.355   5.049  1.00  0.00     0.138 C 
HETATM   29  C   UNL     1      40.960  -9.673   3.001  1.00  0.00     0.129 C 
HETATM   30  N   UNL     1      40.976  -8.813   6.250  1.00  0.00    -0.317 N 
HETATM   31  C   UNL     1      41.742  -8.826   7.422  1.00  0.00     0.247 A 
HETATM   32  O   UNL     1      42.929  -8.516   7.488  1.00  0.00    -0.268 OA
HETATM   33  C   UNL     1      41.034  -9.219   8.665  1.00  0.00     0.074 A 
HETATM   34  C   UNL     1      39.728  -9.502   8.633  1.00  0.00     0.007 A 
HETATM   35  C   UNL     1      38.998  -9.448   7.393  1.00  0.00     0.026 A 
ENDBRANCH   2  22
BRANCH   5  36
HETATM   36  C   UNL     1      43.241 -15.179   5.787  1.00  0.00     0.251 C 
HETATM   37  N   UNL     1      43.598 -16.186   4.916  1.00  0.00    -0.353 N 
HETATM   38  H   UNL     1      43.544 -16.020   3.920  1.00  0.00     0.163 HD
HETATM   39  O   UNL     1      43.553 -15.165   6.973  1.00  0.00    -0.268 OA
BRANCH  37  40
HETATM   40  C   UNL     1      44.394 -17.315   5.343  1.00  0.00     0.161 C 
BRANCH  40  41
HETATM   41  C   UNL     1      44.123 -18.518   4.475  1.00  0.00    -0.041 A 
HETATM   42  C   UNL     1      43.776 -18.374   3.125  1.00  0.00     0.009 A 
HETATM   43  C   UNL     1      43.543 -19.498   2.329  1.00  0.00     0.001 A 
HETATM   44  C   UNL     1      43.650 -20.776   2.873  1.00  0.00     0.000 A 
HETATM   45  C   UNL     1      43.992 -20.933   4.215  1.00  0.00     0.001 A 
HETATM   46  C   UNL     1      44.228 -19.812   5.011  1.00  0.00     0.009 A 
ENDBRANCH  40  41
ENDBRANCH  37  40
ENDBRANCH   5  36
TORSDOF 8
ENDMDL
MODEL 7
REMARK VINA RESULT:      -9.0      2.321      7.736
REMARK  8 active torsions:
REMARK  status: ('A' for Active; 'I' for Inactive)
REMARK    1  A    between atoms: C_2  and  O_3 
REMARK    2  A    between atoms: O_3  and  C_4 
REMARK    3  A    between atoms: C_7  and  N_8 
REMARK       I    between atoms: N_8  and  C_9 
REMARK       I    between atoms: C_9  and  N_10 
REMARK    4  A    between atoms: N_10  and  C_11 
REMARK    5  A    between atoms: C_12  and  N_13 
REMARK    6  A    between atoms: C_29  and  C_30 
REMARK       I    between atoms: C_30  and  N_31 
REMARK    7  A    between atoms: N_31  and  C_32 
REMARK    8  A    between atoms: C_32  and  C_33 
ROOT
HETATM    1  C   UNL     1      40.675 -12.199   3.394  1.00  0.00     0.043 A 
HETATM    2  C   UNL     1      41.855 -12.977   3.330  1.00  0.00     0.052 A 
HETATM    3  C   UNL     1      42.903 -12.545   4.170  1.00  0.00     0.032 A 
HETATM    4  C   UNL     1      42.777 -11.456   5.051  1.00  0.00     0.019 A 
HETATM    5  C   UNL     1      41.586 -10.741   5.121  1.00  0.00     0.033 A 
HETATM    6  C   UNL     1      40.550 -11.100   4.269  1.00  0.00     0.043 A 
ENDROOT
BRANCH   1   7
HETATM    7  N   UNL     1      39.533 -12.452   2.583  1.00  0.00    -0.213 NA
HETATM    8  C   UNL     1      39.551 -11.823   1.344  1.00  0.00     0.281 C 
HETATM    9  N   UNL     1      38.865 -12.543   0.373  1.00  0.00    -0.215 NA
HETATM   10  O   UNL     1      40.198 -10.797   1.139  1.00  0.00    -0.260 OA
HETATM   11  H   UNL     1      38.831 -13.525   0.611  1.00  0.00     0.138 HD
HETATM   12  H   UNL     1      38.654 -12.328   3.069  1.00  0.00     0.138 HD
BRANCH   9  13
HETATM   13  C   UNL     1      39.218 -12.246  -0.970  1.00  0.00     0.016 C 
HETATM   14  C   UNL     1      40.440 -12.716  -1.456  1.00  0.00     0.026 C 
HETATM   15  C   UNL     1      41.027 -12.075  -2.548  1.00  0.00     0.038 C 
HETATM   16  C   UNL     1      40.372 -10.998  -3.144  1.00  0.00     0.068 C 
HETATM   17  C   UNL     1      39.066 -10.667  -2.791  1.00  0.00     0.038 C 
HETATM   18  C   UNL     1      38.487 -11.296  -1.695  1.00  0.00     0.026 C 
BRANCH  16  19
HETATM   19  O   UNL     1      41.088 -10.203  -4.002  1.00  0.00    -0.352 OA
BRANCH  19  20
HETATM   20  C   UNL     1      40.965  -8.829  -3.584  1.00  0.00     0.171 C 
HETATM   21  C   UNL     1      40.738  -7.958  -4.803  1.00  0.00     0.034 C 
ENDBRANCH  19  20
ENDBRANCH  16  19
ENDBRANCH   9  13
ENDBRANCH   1   7
BRANCH   2  22
HETATM   22  N   UNL     1      41.980 -14.116   2.527  1.00  0.00    -0.378 N 
HETATM   23  C   UNL     1      43.268 -14.828   2.419  1.00  0.00     0.133 C 
HETATM   24  C   UNL     1      43.234 -16.251   3.028  1.00  0.00     0.054 C 
HETATM   25  C   UNL     1      42.100 -17.043   2.384  1.00  0.00     0.020 C 
HETATM   26  C   UNL     1      43.077 -16.258   4.540  1.00  0.00     0.020 A 
HETATM   27  C   UNL     1      40.805 -16.339   2.749  1.00  0.00     0.023 C 
HETATM   28  C   UNL     1      40.595 -16.362   4.266  1.00  0.00     0.138 C 
HETATM   29  C   UNL     1      40.780 -14.908   2.196  1.00  0.00     0.129 C 
HETATM   30  N   UNL     1      41.795 -16.271   5.095  1.00  0.00    -0.317 N 
HETATM   31  C   UNL     1      41.575 -16.287   6.478  1.00  0.00     0.247 A 
HETATM   32  O   UNL     1      40.470 -16.339   7.013  1.00  0.00    -0.268 OA
HETATM   33  C   UNL     1      42.786 -16.269   7.336  1.00  0.00     0.074 A 
HETATM   34  C   UNL     1      44.001 -16.274   6.780  1.00  0.00     0.007 A 
HETATM   35  C   UNL     1      44.152 -16.279   5.349  1.00  0.00     0.026 A 
ENDBRANCH   2  22
BRANCH   5  36
HETATM   36  C   UNL     1      41.456  -9.595   6.065  1.00  0.00     0.251 C 
HETATM   37  N   UNL     1      41.233  -9.919   7.386  1.00  0.00    -0.353 N 
HETATM   38  H   UNL     1      41.421 -10.861   7.703  1.00  0.00     0.163 HD
HETATM   39  O   UNL     1      41.555  -8.444   5.655  1.00  0.00    -0.268 OA
BRANCH  37  40
HETATM   40  C   UNL     1      41.108  -8.904   8.407  1.00  0.00     0.161 C 
BRANCH  40  41
HETATM   41  C   UNL     1      42.212  -9.033   9.427  1.00  0.00    -0.041 A 
HETATM   42  C   UNL     1      41.925  -9.170  10.792  1.00  0.00     0.009 A 
HETATM   43  C   UNL     1      42.957  -9.303  11.723  1.00  0.00     0.001 A 
HETATM   44  C   UNL     1      44.285  -9.296  11.303  1.00  0.00     0.000 A 
HETATM   45  C   UNL     1      44.585  -9.157   9.949  1.00  0.00     0.001 A 
HETATM   46  C   UNL     1      43.555  -9.027   9.016  1.00  0.00     0.009 A 
ENDBRANCH  40  41
ENDBRANCH  37  40
ENDBRANCH   5  36
TORSDOF 8
ENDMDL
MODEL 8
REMARK VINA RESULT:      -9.0      2.695      8.281
REMARK  8 active torsions:
REMARK  status: ('A' for Active; 'I' for Inactive)
REMARK    1  A    between atoms: C_2  and  O_3 
REMARK    2  A    between atoms: O_3  and  C_4 
REMARK    3  A    between atoms: C_7  and  N_8 
REMARK       I    between atoms: N_8  and  C_9 
REMARK       I    between atoms: C_9  and  N_10 
REMARK    4  A    between atoms: N_10  and  C_11 
REMARK    5  A    between atoms: C_12  and  N_13 
REMARK    6  A    between atoms: C_29  and  C_30 
REMARK       I    between atoms: C_30  and  N_31 
REMARK    7  A    between atoms: N_31  and  C_32 
REMARK    8  A    between atoms: C_32  and  C_33 
ROOT
HETATM    1  C   UNL     1      42.034 -11.542   4.269  1.00  0.00     0.043 A 
HETATM    2  C   UNL     1      40.871 -11.127   4.957  1.00  0.00     0.052 A 
HETATM    3  C   UNL     1      40.440 -11.996   5.982  1.00  0.00     0.032 A 
HETATM    4  C   UNL     1      41.139 -13.164   6.338  1.00  0.00     0.019 A 
HETATM    5  C   UNL     1      42.305 -13.518   5.669  1.00  0.00     0.033 A 
HETATM    6  C   UNL     1      42.731 -12.718   4.616  1.00  0.00     0.043 A 
ENDROOT
BRANCH   1   7
HETATM    7  N   UNL     1      42.587 -10.821   3.173  1.00  0.00    -0.213 NA
HETATM    8  C   UNL     1      42.060 -11.159   1.932  1.00  0.00     0.281 C 
HETATM    9  N   UNL     1      42.074 -10.092   1.041  1.00  0.00    -0.215 NA
HETATM   10  O   UNL     1      41.553 -12.258   1.711  1.00  0.00    -0.260 OA
HETATM   11  H   UNL     1      42.075  -9.210   1.536  1.00  0.00     0.138 HD
HETATM   12  H   UNL     1      43.598 -10.796   3.171  1.00  0.00     0.138 HD
BRANCH   9  13
HETATM   13  C   UNL     1      41.160 -10.189  -0.041  1.00  0.00     0.016 C 
HETATM   14  C   UNL     1      39.793 -10.212   0.242  1.00  0.00     0.026 C 
HETATM   15  C   UNL     1      38.916 -10.770  -0.690  1.00  0.00     0.038 C 
HETATM   16  C   UNL     1      39.418 -11.269  -1.891  1.00  0.00     0.068 C 
HETATM   17  C   UNL     1      40.746 -11.058  -2.257  1.00  0.00     0.038 C 
HETATM   18  C   UNL     1      41.621 -10.515  -1.324  1.00  0.00     0.026 C 
BRANCH  16  19
HETATM   19  O   UNL     1      38.603 -12.072  -2.646  1.00  0.00    -0.352 OA
BRANCH  19  20
HETATM   20  C   UNL     1      38.084 -13.130  -1.815  1.00  0.00     0.171 C 
HETATM   21  C   UNL     1      38.922 -14.376  -2.020  1.00  0.00     0.034 C 
ENDBRANCH  19  20
ENDBRANCH  16  19
ENDBRANCH   9  13
ENDBRANCH   1   7
BRANCH   2  22
HETATM   22  N   UNL     1      40.203  -9.928   4.683  1.00  0.00    -0.378 N 
HETATM   23  C   UNL     1      38.904  -9.625   5.314  1.00  0.00     0.133 C 
HETATM   24  C   UNL     1      38.965  -8.427   6.292  1.00  0.00     0.054 C 
HETATM   25  C   UNL     1      39.530  -7.213   5.562  1.00  0.00     0.020 C 
HETATM   26  C   UNL     1      39.783  -8.707   7.542  1.00  0.00     0.020 A 
HETATM   27  C   UNL     1      40.951  -7.564   5.153  1.00  0.00     0.023 C 
HETATM   28  C   UNL     1      41.815  -7.816   6.393  1.00  0.00     0.138 C 
HETATM   29  C   UNL     1      40.968  -8.765   4.198  1.00  0.00     0.129 C 
HETATM   30  N   UNL     1      41.154  -8.438   7.537  1.00  0.00    -0.317 N 
HETATM   31  C   UNL     1      41.968  -8.663   8.655  1.00  0.00     0.247 A 
HETATM   32  O   UNL     1      43.167  -8.406   8.713  1.00  0.00    -0.268 OA
HETATM   33  C   UNL     1      41.298  -9.228   9.852  1.00  0.00     0.074 A 
HETATM   34  C   UNL     1      39.981  -9.460   9.837  1.00  0.00     0.007 A 
HETATM   35  C   UNL     1      39.202  -9.185   8.658  1.00  0.00     0.026 A 
ENDBRANCH   2  22
BRANCH   5  36
HETATM   36  C   UNL     1      43.047 -14.751   6.059  1.00  0.00     0.251 C 
HETATM   37  N   UNL     1      43.379 -15.610   5.034  1.00  0.00    -0.353 N 
HETATM   38  H   UNL     1      43.353 -15.275   4.080  1.00  0.00     0.163 HD
HETATM   39  O   UNL     1      43.334 -14.952   7.234  1.00  0.00    -0.268 OA
BRANCH  37  40
HETATM   40  C   UNL     1      44.115 -16.830   5.273  1.00  0.00     0.161 C 
BRANCH  40  41
HETATM   41  C   UNL     1      43.819 -17.852   4.202  1.00  0.00    -0.041 A 
HETATM   42  C   UNL     1      44.213 -19.188   4.349  1.00  0.00     0.009 A 
HETATM   43  C   UNL     1      43.920 -20.126   3.356  1.00  0.00     0.001 A 
HETATM   44  C   UNL     1      43.233 -19.739   2.207  1.00  0.00     0.000 A 
HETATM   45  C   UNL     1      42.838 -18.412   2.048  1.00  0.00     0.001 A 
HETATM   46  C   UNL     1      43.128 -17.474   3.040  1.00  0.00     0.009 A 
ENDBRANCH  40  41
ENDBRANCH  37  40
ENDBRANCH   5  36
TORSDOF 8
ENDMDL
MODEL 9
REMARK VINA RESULT:      -8.9      1.540      2.485
REMARK  8 active torsions:
REMARK  status: ('A' for Active; 'I' for Inactive)
REMARK    1  A    between atoms: C_2  and  O_3 
REMARK    2  A    between atoms: O_3  and  C_4 
REMARK    3  A    between atoms: C_7  and  N_8 
REMARK       I    between atoms: N_8  and  C_9 
REMARK       I    between atoms: C_9  and  N_10 
REMARK    4  A    between atoms: N_10  and  C_11 
REMARK    5  A    between atoms: C_12  and  N_13 
REMARK    6  A    between atoms: C_29  and  C_30 
REMARK       I    between atoms: C_30  and  N_31 
REMARK    7  A    between atoms: N_31  and  C_32 
REMARK    8  A    between atoms: C_32  and  C_33 
ROOT
HETATM    1  C   UNL     1      39.515 -13.140   2.195  1.00  0.00     0.043 A 
HETATM    2  C   UNL     1      39.156 -12.208   1.193  1.00  0.00     0.052 A 
HETATM    3  C   UNL     1      39.049 -10.871   1.630  1.00  0.00     0.032 A 
HETATM    4  C   UNL     1      39.331 -10.473   2.950  1.00  0.00     0.019 A 
HETATM    5  C   UNL     1      39.726 -11.410   3.898  1.00  0.00     0.033 A 
HETATM    6  C   UNL     1      39.787 -12.745   3.521  1.00  0.00     0.043 A 
ENDROOT
BRANCH   1   7
HETATM    7  N   UNL     1      39.620 -14.538   1.952  1.00  0.00    -0.213 NA
HETATM    8  C   UNL     1      40.917 -15.037   1.984  1.00  0.00     0.281 C 
HETATM    9  N   UNL     1      40.967 -16.359   2.408  1.00  0.00    -0.215 NA
HETATM   10  O   UNL     1      41.897 -14.330   1.756  1.00  0.00    -0.260 OA
HETATM   11  H   UNL     1      40.162 -16.586   2.976  1.00  0.00     0.138 HD
HETATM   12  H   UNL     1      39.105 -14.850   1.139  1.00  0.00     0.138 HD
BRANCH   9  13
HETATM   13  C   UNL     1      42.221 -16.790   2.916  1.00  0.00     0.016 C 
HETATM   14  C   UNL     1      42.963 -17.705   2.167  1.00  0.00     0.026 C 
HETATM   15  C   UNL     1      43.917 -18.494   2.812  1.00  0.00     0.038 C 
HETATM   16  C   UNL     1      44.126 -18.336   4.181  1.00  0.00     0.068 C 
HETATM   17  C   UNL     1      43.536 -17.286   4.881  1.00  0.00     0.038 C 
HETATM   18  C   UNL     1      42.576 -16.509   4.242  1.00  0.00     0.026 C 
BRANCH  16  19
HETATM   19  O   UNL     1      44.833 -19.307   4.843  1.00  0.00    -0.352 OA
BRANCH  19  20
HETATM   20  C   UNL     1      43.927 -20.070   5.664  1.00  0.00     0.171 C 
HETATM   21  C   UNL     1      43.626 -21.388   4.979  1.00  0.00     0.034 C 
ENDBRANCH  19  20
ENDBRANCH  16  19
ENDBRANCH   9  13
ENDBRANCH   1   7
BRANCH   2  22
HETATM   22  N   UNL     1      38.953 -12.561  -0.146  1.00  0.00    -0.378 N 
HETATM   23  C   UNL     1      37.922 -11.887  -0.958  1.00  0.00     0.133 C 
HETATM   24  C   UNL     1      38.508 -11.039  -2.112  1.00  0.00     0.054 C 
HETATM   25  C   UNL     1      39.410 -11.920  -2.971  1.00  0.00     0.020 C 
HETATM   26  C   UNL     1      39.278  -9.819  -1.636  1.00  0.00     0.020 A 
HETATM   27  C   UNL     1      40.558 -12.375  -2.086  1.00  0.00     0.023 C 
HETATM   28  C   UNL     1      41.380 -11.170  -1.618  1.00  0.00     0.138 C 
HETATM   29  C   UNL     1      40.044 -13.205  -0.901  1.00  0.00     0.129 C 
HETATM   30  N   UNL     1      40.645  -9.932  -1.370  1.00  0.00    -0.317 N 
HETATM   31  C   UNL     1      41.419  -8.848  -0.937  1.00  0.00     0.247 A 
HETATM   32  O   UNL     1      42.630  -8.888  -0.730  1.00  0.00    -0.268 OA
HETATM   33  C   UNL     1      40.703  -7.563  -0.751  1.00  0.00     0.074 A 
HETATM   34  C   UNL     1      39.398  -7.475  -1.028  1.00  0.00     0.007 A 
HETATM   35  C   UNL     1      38.669  -8.628  -1.490  1.00  0.00     0.026 A 
ENDBRANCH   2  22
BRANCH   5  36
HETATM   36  C   UNL     1      40.033 -10.979   5.291  1.00  0.00     0.251 C 
HETATM   37  N   UNL     1      40.958  -9.967   5.424  1.00  0.00    -0.353 N 
HETATM   38  H   UNL     1      41.186  -9.396   4.620  1.00  0.00     0.163 HD
HETATM   39  O   UNL     1      39.471 -11.514   6.241  1.00  0.00    -0.268 OA
BRANCH  37  40
HETATM   40  C   UNL     1      41.332  -9.442   6.718  1.00  0.00     0.161 C 
BRANCH  40  41
HETATM   41  C   UNL     1      40.331  -8.415   7.187  1.00  0.00    -0.041 A 
HETATM   42  C   UNL     1      39.944  -7.352   6.361  1.00  0.00     0.009 A 
HETATM   43  C   UNL     1      39.005  -6.416   6.804  1.00  0.00     0.001 A 
HETATM   44  C   UNL     1      38.448  -6.531   8.076  1.00  0.00     0.000 A 
HETATM   45  C   UNL     1      38.827  -7.582   8.908  1.00  0.00     0.001 A 
HETATM   46  C   UNL     1      39.762  -8.519   8.467  1.00  0.00     0.009 A 
ENDBRANCH  40  41
ENDBRANCH  37  40
ENDBRANCH   5  36
TORSDOF 8
ENDMDL
MODEL 10
REMARK VINA RESULT:      -8.9     17.373     19.515
REMARK  8 active torsions:
REMARK  status: ('A' for Active; 'I' for Inactive)
REMARK    1  A    between atoms: C_2  and  O_3 
REMARK    2  A    between atoms: O_3  and  C_4 
REMARK    3  A    between atoms: C_7  and  N_8 
REMARK       I    between atoms: N_8  and  C_9 
REMARK       I    between atoms: C_9  and  N_10 
REMARK    4  A    between atoms: N_10  and  C_11 
REMARK    5  A    between atoms: C_12  and  N_13 
REMARK    6  A    between atoms: C_29  and  C_30 
REMARK       I    between atoms: C_30  and  N_31 
REMARK    7  A    between atoms: N_31  and  C_32 
REMARK    8  A    between atoms: C_32  and  C_33 
ROOT
HETATM    1  C   UNL     1      44.578 -30.143   2.209  1.00  0.00     0.043 A 
HETATM    2  C   UNL     1      45.043 -30.207   0.875  1.00  0.00     0.052 A 
HETATM    3  C   UNL     1      44.146 -30.791  -0.043  1.00  0.00     0.032 A 
HETATM    4  C   UNL     1      42.860 -31.232   0.319  1.00  0.00     0.019 A 
HETATM    5  C   UNL     1      42.419 -31.112   1.632  1.00  0.00     0.033 A 
HETATM    6  C   UNL     1      43.294 -30.594   2.578  1.00  0.00     0.043 A 
ENDROOT
BRANCH   1   7
HETATM    7  N   UNL     1      45.364 -29.634   3.282  1.00  0.00    -0.213 NA
HETATM    8  C   UNL     1      46.396 -30.469   3.692  1.00  0.00     0.281 C 
HETATM    9  N   UNL     1      47.482 -29.763   4.196  1.00  0.00    -0.215 NA
HETATM   10  O   UNL     1      46.363 -31.687   3.520  1.00  0.00    -0.260 OA
HETATM   11  H   UNL     1      47.506 -28.825   3.821  1.00  0.00     0.138 HD
HETATM   12  H   UNL     1      44.816 -29.285   4.057  1.00  0.00     0.138 HD
BRANCH   9  13
HETATM   13  C   UNL     1      48.718 -30.461   4.191  1.00  0.00     0.016 C 
HETATM   14  C   UNL     1      48.931 -31.445   5.158  1.00  0.00     0.026 C 
HETATM   15  C   UNL     1      50.240 -31.799   5.490  1.00  0.00     0.038 C 
HETATM   16  C   UNL     1      51.304 -31.182   4.833  1.00  0.00     0.068 C 
HETATM   17  C   UNL     1      51.088 -30.358   3.731  1.00  0.00     0.038 C 
HETATM   18  C   UNL     1      49.785 -29.996   3.410  1.00  0.00     0.026 C 
BRANCH  16  19
HETATM   19  O   UNL     1      52.559 -31.314   5.372  1.00  0.00    -0.352 OA
BRANCH  19  20
HETATM   20  C   UNL     1      52.442 -31.847   6.707  1.00  0.00     0.171 C 
HETATM   21  C   UNL     1      53.566 -31.294   7.560  1.00  0.00     0.034 C 
ENDBRANCH  19  20
ENDBRANCH  16  19
ENDBRANCH   9  13
ENDBRANCH   1   7
BRANCH   2  22
HETATM   22  N   UNL     1      46.282 -29.699   0.469  1.00  0.00    -0.378 N 
HETATM   23  C   UNL     1      47.320 -30.590  -0.085  1.00  0.00     0.133 C 
HETATM   24  C   UNL     1      47.629 -30.317  -1.577  1.00  0.00     0.054 C 
HETATM   25  C   UNL     1      48.001 -28.848  -1.749  1.00  0.00     0.020 C 
HETATM   26  C   UNL     1      46.481 -30.672  -2.507  1.00  0.00     0.020 A 
HETATM   27  C   UNL     1      46.780 -28.032  -1.360  1.00  0.00     0.023 C 
HETATM   28  C   UNL     1      45.613 -28.338  -2.304  1.00  0.00     0.138 C 
HETATM   29  C   UNL     1      46.401 -28.274   0.107  1.00  0.00     0.129 C 
HETATM   30  N   UNL     1      45.512 -29.709  -2.799  1.00  0.00    -0.317 N 
HETATM   31  C   UNL     1      44.433 -29.963  -3.654  1.00  0.00     0.247 A 
HETATM   32  O   UNL     1      43.580 -29.138  -3.973  1.00  0.00    -0.268 OA
HETATM   33  C   UNL     1      44.355 -31.330  -4.225  1.00  0.00     0.074 A 
HETATM   34  C   UNL     1      45.303 -32.229  -3.944  1.00  0.00     0.007 A 
HETATM   35  C   UNL     1      46.398 -31.891  -3.072  1.00  0.00     0.026 A 
ENDBRANCH   2  22
BRANCH   5  36
HETATM   36  C   UNL     1      41.051 -31.571   2.006  1.00  0.00     0.251 C 
HETATM   37  N   UNL     1      40.944 -32.254   3.198  1.00  0.00    -0.353 N 
HETATM   38  H   UNL     1      41.696 -32.193   3.872  1.00  0.00     0.163 HD
HETATM   39  O   UNL     1      40.097 -31.330   1.273  1.00  0.00    -0.268 OA
BRANCH  37  40
HETATM   40  C   UNL     1      39.672 -32.736   3.687  1.00  0.00     0.161 C 
BRANCH  40  41
HETATM   41  C   UNL     1      39.628 -32.692   5.194  1.00  0.00    -0.041 A 
HETATM   42  C   UNL     1      38.526 -33.192   5.901  1.00  0.00     0.009 A 
HETATM   43  C   UNL     1      38.504 -33.158   7.297  1.00  0.00     0.001 A 
HETATM   44  C   UNL     1      39.580 -32.621   8.001  1.00  0.00     0.000 A 
HETATM   45  C   UNL     1      40.681 -32.117   7.310  1.00  0.00     0.001 A 
HETATM   46  C   UNL     1      40.705 -32.153   5.915  1.00  0.00     0.009 A 
ENDBRANCH  40  41
ENDBRANCH  37  40
ENDBRANCH   5  36
TORSDOF 8
ENDMDL
