MODEL 1
REMARK VINA RESULT:      -9.0      0.000      0.000
REMARK  3 active torsions:
REMARK  status: ('A' for Active; 'I' for Inactive)
REMARK    1  A    between atoms: C_9  and  C_10 
REMARK    2  A    between atoms: C_10  and  C_11 
REMARK       I    between atoms: C_11  and  N_12 
REMARK    3  A    between atoms: N_12  and  C_13 
ROOT
HETATM    1  C   UNL     1      43.039 -16.032   1.734  1.00  0.00     0.165 C 
ENDROOT
BRANCH   1   2
HETATM    2  C   UNL     1      43.273 -16.482   3.167  1.00  0.00     0.074 A 
HETATM    3  C   UNL     1      43.508 -17.926   3.455  1.00  0.00     0.006 A 
HETATM    4  C   UNL     1      43.488 -18.930   2.478  1.00  0.00     0.014 A 
HETATM    5  C   UNL     1      43.741 -18.282   4.783  1.00  0.00     0.046 A 
HETATM    6  C   UNL     1      43.729 -20.262   2.831  1.00  0.00     0.001 A 
HETATM    7  C   UNL     1      43.982 -20.604   4.159  1.00  0.00     0.001 A 
HETATM    8  C   UNL     1      43.984 -19.615   5.139  1.00  0.00     0.018 A 
HETATM    9  C   UNL     1      43.702 -17.242   5.822  1.00  0.00     0.272 A 
HETATM   10  O   UNL     1      43.907 -17.503   7.002  1.00  0.00    -0.266 OA
HETATM   11  N   UNL     1      43.408 -15.971   5.395  1.00  0.00    -0.243 N 
HETATM   12  N   UNL     1      43.200 -15.586   4.110  1.00  0.00    -0.175 NA
HETATM   13  H   UNL     1      43.365 -15.252   6.111  1.00  0.00     0.192 HD
ENDBRANCH   1   2
BRANCH   1  14
HETATM   14  C   UNL     1      41.648 -15.579   1.326  1.00  0.00     0.227 C 
HETATM   15  N   UNL     1      41.603 -14.555   0.405  1.00  0.00    -0.327 N 
HETATM   16  H   UNL     1      42.496 -14.323  -0.030  1.00  0.00     0.169 HD
HETATM   17  O   UNL     1      40.671 -16.083   1.878  1.00  0.00    -0.273 OA
BRANCH  15  18
HETATM   18  C   UNL     1      40.471 -13.868  -0.078  1.00  0.00     0.036 A 
HETATM   19  C   UNL     1      39.751 -14.248  -1.215  1.00  0.00     0.056 A 
HETATM   20  C   UNL     1      38.629 -13.514  -1.613  1.00  0.00     0.074 A 
HETATM   21 CL   UNL     1      37.749 -14.001  -3.012  1.00  0.00    -0.081 Cl
HETATM   22  C   UNL     1      38.226 -12.402  -0.879  1.00  0.00     0.138 A 
HETATM   23  F   UNL     1      37.153 -11.687  -1.246  1.00  0.00    -0.204 F 
HETATM   24  C   UNL     1      38.932 -12.013   0.253  1.00  0.00     0.046 A 
HETATM   25  C   UNL     1      40.051 -12.747   0.654  1.00  0.00     0.032 A 
ENDBRANCH  15  18
ENDBRANCH   1  14
TORSDOF 3
ENDMDL
MODEL 2
REMARK VINA RESULT:      -8.7      5.955      7.548
REMARK  3 active torsions:
REMARK  status: ('A' for Active; 'I' for Inactive)
REMARK    1  A    between atoms: C_9  and  C_10 
REMARK    2  A    between atoms: C_10  and  C_11 
REMARK       I    between atoms: C_11  and  N_12 
REMARK    3  A    between atoms: N_12  and  C_13 
ROOT
HETATM    1  C   UNL     1      41.366 -14.259   5.987  1.00  0.00     0.165 C 
ENDROOT
BRANCH   1   2
HETATM    2  C   UNL     1      42.071 -15.605   5.934  1.00  0.00     0.074 A 
HETATM    3  C   UNL     1      42.441 -16.189   4.613  1.00  0.00     0.006 A 
HETATM    4  C   UNL     1      42.141 -15.590   3.382  1.00  0.00     0.014 A 
HETATM    5  C   UNL     1      43.107 -17.414   4.622  1.00  0.00     0.046 A 
HETATM    6  C   UNL     1      42.533 -16.201   2.187  1.00  0.00     0.001 A 
HETATM    7  C   UNL     1      43.218 -17.415   2.208  1.00  0.00     0.001 A 
HETATM    8  C   UNL     1      43.502 -18.027   3.426  1.00  0.00     0.018 A 
HETATM    9  C   UNL     1      43.370 -18.079   5.907  1.00  0.00     0.272 A 
HETATM   10  O   UNL     1      43.957 -19.153   5.967  1.00  0.00    -0.266 OA
HETATM   11  N   UNL     1      42.906 -17.435   7.026  1.00  0.00    -0.243 N 
HETATM   12  N   UNL     1      42.276 -16.233   7.057  1.00  0.00    -0.175 NA
HETATM   13  H   UNL     1      43.071 -17.898   7.915  1.00  0.00     0.192 HD
ENDBRANCH   1   2
BRANCH   1  14
HETATM   14  C   UNL     1      42.204 -12.996   6.084  1.00  0.00     0.227 C 
HETATM   15  N   UNL     1      43.257 -13.048   6.970  1.00  0.00    -0.327 N 
HETATM   16  H   UNL     1      43.467 -13.975   7.341  1.00  0.00     0.169 HD
HETATM   17  O   UNL     1      41.861 -12.003   5.443  1.00  0.00    -0.273 OA
BRANCH  15  18
HETATM   18  C   UNL     1      44.134 -12.009   7.342  1.00  0.00     0.036 A 
HETATM   19  C   UNL     1      43.948 -11.188   8.458  1.00  0.00     0.056 A 
HETATM   20  C   UNL     1      44.878 -10.190   8.759  1.00  0.00     0.074 A 
HETATM   21 CL   UNL     1      44.636  -9.193  10.144  1.00  0.00    -0.081 Cl
HETATM   22  C   UNL     1      45.995 -10.008   7.947  1.00  0.00     0.138 A 
HETATM   23  F   UNL     1      46.899  -9.056   8.222  1.00  0.00    -0.204 F 
HETATM   24  C   UNL     1      46.193 -10.817   6.835  1.00  0.00     0.046 A 
HETATM   25  C   UNL     1      45.266 -11.817   6.534  1.00  0.00     0.032 A 
ENDBRANCH  15  18
ENDBRANCH   1  14
TORSDOF 3
ENDMDL
MODEL 3
REMARK VINA RESULT:      -8.3      1.558      2.552
REMARK  3 active torsions:
REMARK  status: ('A' for Active; 'I' for Inactive)
REMARK    1  A    between atoms: C_9  and  C_10 
REMARK    2  A    between atoms: C_10  and  C_11 
REMARK       I    between atoms: C_11  and  N_12 
REMARK    3  A    between atoms: N_12  and  C_13 
ROOT
HETATM    1  C   UNL     1      42.635 -14.739   2.255  1.00  0.00     0.165 C 
ENDROOT
BRANCH   1   2
HETATM    2  C   UNL     1      43.072 -16.043   2.902  1.00  0.00     0.074 A 
HETATM    3  C   UNL     1      43.262 -16.103   4.379  1.00  0.00     0.006 A 
HETATM    4  C   UNL     1      43.100 -15.003   5.233  1.00  0.00     0.014 A 
HETATM    5  C   UNL     1      43.640 -17.330   4.924  1.00  0.00     0.046 A 
HETATM    6  C   UNL     1      43.288 -15.148   6.612  1.00  0.00     0.001 A 
HETATM    7  C   UNL     1      43.645 -16.384   7.148  1.00  0.00     0.001 A 
HETATM    8  C   UNL     1      43.827 -17.477   6.305  1.00  0.00     0.018 A 
HETATM    9  C   UNL     1      43.872 -18.473   4.028  1.00  0.00     0.272 A 
HETATM   10  O   UNL     1      44.199 -19.572   4.459  1.00  0.00    -0.266 OA
HETATM   11  N   UNL     1      43.715 -18.229   2.686  1.00  0.00    -0.243 N 
HETATM   12  N   UNL     1      43.325 -17.057   2.124  1.00  0.00    -0.175 NA
HETATM   13  H   UNL     1      43.889 -19.011   2.062  1.00  0.00     0.192 HD
ENDBRANCH   1   2
BRANCH   1  14
HETATM   14  C   UNL     1      41.290 -14.684   1.551  1.00  0.00     0.227 C 
HETATM   15  N   UNL     1      41.259 -13.948   0.387  1.00  0.00    -0.327 N 
HETATM   16  H   UNL     1      42.171 -13.659   0.031  1.00  0.00     0.169 HD
HETATM   17  O   UNL     1      40.317 -15.219   2.081  1.00  0.00    -0.273 OA
BRANCH  15  18
HETATM   18  C   UNL     1      40.144 -13.639  -0.418  1.00  0.00     0.036 A 
HETATM   19  C   UNL     1      39.762 -14.374  -1.544  1.00  0.00     0.056 A 
HETATM   20  C   UNL     1      38.631 -14.001  -2.276  1.00  0.00     0.074 A 
HETATM   21 CL   UNL     1      38.171 -14.923  -3.657  1.00  0.00    -0.081 Cl
HETATM   22  C   UNL     1      37.879 -12.896  -1.885  1.00  0.00     0.138 A 
HETATM   23  F   UNL     1      36.791 -12.525  -2.574  1.00  0.00    -0.204 F 
HETATM   24  C   UNL     1      38.246 -12.156  -0.768  1.00  0.00     0.046 A 
HETATM   25  C   UNL     1      39.375 -12.529  -0.034  1.00  0.00     0.032 A 
ENDBRANCH  15  18
ENDBRANCH   1  14
TORSDOF 3
ENDMDL
MODEL 4
REMARK VINA RESULT:      -8.0      7.958      9.956
REMARK  3 active torsions:
REMARK  status: ('A' for Active; 'I' for Inactive)
REMARK    1  A    between atoms: C_9  and  C_10 
REMARK    2  A    between atoms: C_10  and  C_11 
REMARK       I    between atoms: C_11  and  N_12 
REMARK    3  A    between atoms: N_12  and  C_13 
ROOT
HETATM    1  C   UNL     1      45.261 -10.356   8.361  1.00  0.00     0.165 C 
ENDROOT
BRANCH   1   2
HETATM    2  C   UNL     1      44.309 -10.171   9.532  1.00  0.00     0.074 A 
HETATM    3  C   UNL     1      43.706  -8.830   9.783  1.00  0.00     0.006 A 
HETATM    4  C   UNL     1      43.994  -7.689   9.022  1.00  0.00     0.014 A 
HETATM    5  C   UNL     1      42.821  -8.720  10.856  1.00  0.00     0.046 A 
HETATM    6  C   UNL     1      43.376  -6.470   9.319  1.00  0.00     0.001 A 
HETATM    7  C   UNL     1      42.476  -6.376  10.380  1.00  0.00     0.001 A 
HETATM    8  C   UNL     1      42.200  -7.500  11.154  1.00  0.00     0.018 A 
HETATM    9  C   UNL     1      42.563  -9.898  11.697  1.00  0.00     0.272 A 
HETATM   10  O   UNL     1      41.789  -9.854  12.646  1.00  0.00    -0.266 OA
HETATM   11  N   UNL     1      43.250 -11.039  11.366  1.00  0.00    -0.243 N 
HETATM   12  N   UNL     1      44.098 -11.189  10.317  1.00  0.00    -0.175 NA
HETATM   13  H   UNL     1      43.086 -11.852  11.954  1.00  0.00     0.192 HD
ENDBRANCH   1   2
BRANCH   1  14
HETATM   14  C   UNL     1      44.873 -11.310   7.245  1.00  0.00     0.227 C 
HETATM   15  N   UNL     1      43.834 -12.168   7.531  1.00  0.00    -0.327 N 
HETATM   16  H   UNL     1      43.325 -11.962   8.391  1.00  0.00     0.169 HD
HETATM   17  O   UNL     1      45.536 -11.316   6.208  1.00  0.00    -0.273 OA
BRANCH  15  18
HETATM   18  C   UNL     1      43.328 -13.218   6.737  1.00  0.00     0.036 A 
HETATM   19  C   UNL     1      43.927 -14.477   6.630  1.00  0.00     0.056 A 
HETATM   20  C   UNL     1      43.346 -15.464   5.829  1.00  0.00     0.074 A 
HETATM   21 CL   UNL     1      44.093 -17.013   5.715  1.00  0.00    -0.081 Cl
HETATM   22  C   UNL     1      42.169 -15.197   5.134  1.00  0.00     0.138 A 
HETATM   23  F   UNL     1      41.598 -16.133   4.362  1.00  0.00    -0.204 F 
HETATM   24  C   UNL     1      41.563 -13.951   5.232  1.00  0.00     0.046 A 
HETATM   25  C   UNL     1      42.140 -12.964   6.034  1.00  0.00     0.032 A 
ENDBRANCH  15  18
ENDBRANCH   1  14
TORSDOF 3
ENDMDL
MODEL 5
REMARK VINA RESULT:      -7.6      2.708      3.913
REMARK  3 active torsions:
REMARK  status: ('A' for Active; 'I' for Inactive)
REMARK    1  A    between atoms: C_9  and  C_10 
REMARK    2  A    between atoms: C_10  and  C_11 
REMARK       I    between atoms: C_11  and  N_12 
REMARK    3  A    between atoms: N_12  and  C_13 
ROOT
HETATM    1  C   UNL     1      42.203 -15.445   1.612  1.00  0.00     0.165 C 
ENDROOT
BRANCH   1   2
HETATM    2  C   UNL     1      42.328 -15.286   3.118  1.00  0.00     0.074 A 
HETATM    3  C   UNL     1      42.839 -14.004   3.683  1.00  0.00     0.006 A 
HETATM    4  C   UNL     1      43.262 -12.921   2.901  1.00  0.00     0.014 A 
HETATM    5  C   UNL     1      42.912 -13.903   5.072  1.00  0.00     0.046 A 
HETATM    6  C   UNL     1      43.719 -11.748   3.511  1.00  0.00     0.001 A 
HETATM    7  C   UNL     1      43.767 -11.649   4.901  1.00  0.00     0.001 A 
HETATM    8  C   UNL     1      43.368 -12.729   5.685  1.00  0.00     0.018 A 
HETATM    9  C   UNL     1      42.529 -15.058   5.897  1.00  0.00     0.272 A 
HETATM   10  O   UNL     1      42.569 -15.016   7.121  1.00  0.00    -0.266 OA
HETATM   11  N   UNL     1      42.141 -16.185   5.216  1.00  0.00    -0.243 N 
HETATM   12  N   UNL     1      42.036 -16.311   3.868  1.00  0.00    -0.175 NA
HETATM   13  H   UNL     1      41.890 -16.991   5.781  1.00  0.00     0.192 HD
ENDBRANCH   1   2
BRANCH   1  14
HETATM   14  C   UNL     1      40.851 -15.215   0.960  1.00  0.00     0.227 C 
HETATM   15  N   UNL     1      40.840 -14.320  -0.087  1.00  0.00    -0.327 N 
HETATM   16  H   UNL     1      41.761 -14.035  -0.423  1.00  0.00     0.169 HD
HETATM   17  O   UNL     1      39.858 -15.765   1.436  1.00  0.00    -0.273 OA
BRANCH  15  18
HETATM   18  C   UNL     1      39.730 -13.837  -0.808  1.00  0.00     0.036 A 
HETATM   19  C   UNL     1      39.040 -12.663  -0.491  1.00  0.00     0.056 A 
HETATM   20  C   UNL     1      37.957 -12.252  -1.273  1.00  0.00     0.074 A 
HETATM   21 CL   UNL     1      37.124 -10.798  -0.872  1.00  0.00    -0.081 Cl
HETATM   22  C   UNL     1      37.559 -13.012  -2.370  1.00  0.00     0.138 A 
HETATM   23  F   UNL     1      36.523 -12.632  -3.132  1.00  0.00    -0.204 F 
HETATM   24  C   UNL     1      38.236 -14.180  -2.697  1.00  0.00     0.046 A 
HETATM   25  C   UNL     1      39.321 -14.591  -1.920  1.00  0.00     0.032 A 
ENDBRANCH  15  18
ENDBRANCH   1  14
TORSDOF 3
ENDMDL
MODEL 6
REMARK VINA RESULT:      -7.6      2.332      2.779
REMARK  3 active torsions:
REMARK  status: ('A' for Active; 'I' for Inactive)
REMARK    1  A    between atoms: C_9  and  C_10 
REMARK    2  A    between atoms: C_10  and  C_11 
REMARK       I    between atoms: C_11  and  N_12 
REMARK    3  A    between atoms: N_12  and  C_13 
ROOT
HETATM    1  C   UNL     1      39.959 -15.819   1.909  1.00  0.00     0.165 C 
ENDROOT
BRANCH   1   2
HETATM    2  C   UNL     1      40.955 -15.709   3.052  1.00  0.00     0.074 A 
HETATM    3  C   UNL     1      42.060 -16.704   3.163  1.00  0.00     0.006 A 
HETATM    4  C   UNL     1      42.226 -17.786   2.288  1.00  0.00     0.014 A 
HETATM    5  C   UNL     1      42.960 -16.543   4.216  1.00  0.00     0.046 A 
HETATM    6  C   UNL     1      43.298 -18.669   2.456  1.00  0.00     0.001 A 
HETATM    7  C   UNL     1      44.204 -18.487   3.500  1.00  0.00     0.001 A 
HETATM    8  C   UNL     1      44.034 -17.425   4.385  1.00  0.00     0.018 A 
HETATM    9  C   UNL     1      42.756 -15.446   5.174  1.00  0.00     0.272 A 
HETATM   10  O   UNL     1      43.522 -15.260   6.111  1.00  0.00    -0.266 OA
HETATM   11  N   UNL     1      41.651 -14.659   4.964  1.00  0.00    -0.243 N 
HETATM   12  N   UNL     1      40.769 -14.771   3.937  1.00  0.00    -0.175 NA
HETATM   13  H   UNL     1      41.497 -13.909   5.632  1.00  0.00     0.192 HD
ENDBRANCH   1   2
BRANCH   1  14
HETATM   14  C   UNL     1      39.956 -14.747   0.833  1.00  0.00     0.227 C 
HETATM   15  N   UNL     1      39.992 -13.448   1.289  1.00  0.00    -0.327 N 
HETATM   16  H   UNL     1      40.186 -13.342   2.285  1.00  0.00     0.169 HD
HETATM   17  O   UNL     1      39.849 -15.086  -0.345  1.00  0.00    -0.273 OA
BRANCH  15  18
HETATM   18  C   UNL     1      39.898 -12.259   0.537  1.00  0.00     0.036 A 
HETATM   19  C   UNL     1      40.999 -11.497   0.136  1.00  0.00     0.056 A 
HETATM   20  C   UNL     1      40.812 -10.337  -0.622  1.00  0.00     0.074 A 
HETATM   21 CL   UNL     1      42.181  -9.414  -1.114  1.00  0.00    -0.081 Cl
HETATM   22  C   UNL     1      39.527  -9.936  -0.978  1.00  0.00     0.138 A 
HETATM   23  F   UNL     1      39.329  -8.826  -1.705  1.00  0.00    -0.204 F 
HETATM   24  C   UNL     1      38.424 -10.683  -0.587  1.00  0.00     0.046 A 
HETATM   25  C   UNL     1      38.609 -11.845   0.167  1.00  0.00     0.032 A 
ENDBRANCH  15  18
ENDBRANCH   1  14
TORSDOF 3
ENDMDL
MODEL 7
REMARK VINA RESULT:      -7.5      7.913      9.824
REMARK  3 active torsions:
REMARK  status: ('A' for Active; 'I' for Inactive)
REMARK    1  A    between atoms: C_9  and  C_10 
REMARK    2  A    between atoms: C_10  and  C_11 
REMARK       I    between atoms: C_11  and  N_12 
REMARK    3  A    between atoms: N_12  and  C_13 
ROOT
HETATM    1  C   UNL     1      45.581 -10.400   8.596  1.00  0.00     0.165 C 
ENDROOT
BRANCH   1   2
HETATM    2  C   UNL     1      44.732  -9.262   9.138  1.00  0.00     0.074 A 
HETATM    3  C   UNL     1      43.976  -9.450  10.410  1.00  0.00     0.006 A 
HETATM    4  C   UNL     1      43.959 -10.647  11.139  1.00  0.00     0.014 A 
HETATM    5  C   UNL     1      43.231  -8.366  10.876  1.00  0.00     0.046 A 
HETATM    6  C   UNL     1      43.231 -10.736  12.330  1.00  0.00     0.001 A 
HETATM    7  C   UNL     1      42.507  -9.640  12.797  1.00  0.00     0.001 A 
HETATM    8  C   UNL     1      42.502  -8.453  12.068  1.00  0.00     0.018 A 
HETATM    9  C   UNL     1      43.194  -7.128  10.084  1.00  0.00     0.272 A 
HETATM   10  O   UNL     1      42.560  -6.147  10.453  1.00  0.00    -0.266 OA
HETATM   11  N   UNL     1      43.895  -7.144   8.903  1.00  0.00    -0.243 N 
HETATM   12  N   UNL     1      44.648  -8.171   8.432  1.00  0.00    -0.175 NA
HETATM   13  H   UNL     1      43.859  -6.296   8.345  1.00  0.00     0.192 HD
ENDBRANCH   1   2
BRANCH   1  14
HETATM   14  C   UNL     1      45.075 -11.187   7.399  1.00  0.00     0.227 C 
HETATM   15  N   UNL     1      43.938 -11.934   7.617  1.00  0.00    -0.327 N 
HETATM   16  H   UNL     1      43.461 -11.751   8.501  1.00  0.00     0.169 HD
HETATM   17  O   UNL     1      45.729 -11.174   6.358  1.00  0.00    -0.273 OA
BRANCH  15  18
HETATM   18  C   UNL     1      43.305 -12.832   6.734  1.00  0.00     0.036 A 
HETATM   19  C   UNL     1      42.248 -12.483   5.888  1.00  0.00     0.056 A 
HETATM   20  C   UNL     1      41.689 -13.438   5.033  1.00  0.00     0.074 A 
HETATM   21 CL   UNL     1      40.392 -12.989   3.991  1.00  0.00    -0.081 Cl
HETATM   22  C   UNL     1      42.182 -14.740   5.023  1.00  0.00     0.138 A 
HETATM   23  F   UNL     1      41.658 -15.669   4.210  1.00  0.00    -0.204 F 
HETATM   24  C   UNL     1      43.231 -15.100   5.859  1.00  0.00     0.046 A 
HETATM   25  C   UNL     1      43.794 -14.147   6.711  1.00  0.00     0.032 A 
ENDBRANCH  15  18
ENDBRANCH   1  14
TORSDOF 3
ENDMDL
MODEL 8
REMARK VINA RESULT:      -7.5      2.439      3.189
REMARK  3 active torsions:
REMARK  status: ('A' for Active; 'I' for Inactive)
REMARK    1  A    between atoms: C_9  and  C_10 
REMARK    2  A    between atoms: C_10  and  C_11 
REMARK       I    between atoms: C_11  and  N_12 
REMARK    3  A    between atoms: N_12  and  C_13 
ROOT
HETATM    1  C   UNL     1      40.999 -14.918   0.777  1.00  0.00     0.165 C 
ENDROOT
BRANCH   1   2
HETATM    2  C   UNL     1      41.025 -15.120   2.283  1.00  0.00     0.074 A 
HETATM    3  C   UNL     1      41.955 -16.125   2.874  1.00  0.00     0.006 A 
HETATM    4  C   UNL     1      42.800 -16.947   2.116  1.00  0.00     0.014 A 
HETATM    5  C   UNL     1      41.956 -16.254   4.263  1.00  0.00     0.046 A 
HETATM    6  C   UNL     1      43.651 -17.858   2.751  1.00  0.00     0.001 A 
HETATM    7  C   UNL     1      43.659 -17.964   4.141  1.00  0.00     0.001 A 
HETATM    8  C   UNL     1      42.808 -17.165   4.900  1.00  0.00     0.018 A 
HETATM    9  C   UNL     1      41.027 -15.439   5.060  1.00  0.00     0.272 A 
HETATM   10  O   UNL     1      40.994 -15.511   6.282  1.00  0.00    -0.266 OA
HETATM   11  N   UNL     1      40.192 -14.609   4.354  1.00  0.00    -0.243 N 
HETATM   12  N   UNL     1      40.181 -14.441   3.006  1.00  0.00    -0.175 NA
HETATM   13  H   UNL     1      39.538 -14.056   4.898  1.00  0.00     0.192 HD
ENDBRANCH   1   2
BRANCH   1  14
HETATM   14  C   UNL     1      40.445 -13.618   0.221  1.00  0.00     0.227 C 
HETATM   15  N   UNL     1      39.093 -13.612  -0.042  1.00  0.00    -0.327 N 
HETATM   16  H   UNL     1      38.578 -14.416   0.318  1.00  0.00     0.169 HD
HETATM   17  O   UNL     1      41.222 -12.696  -0.027  1.00  0.00    -0.273 OA
BRANCH  15  18
HETATM   18  C   UNL     1      38.329 -12.595  -0.649  1.00  0.00     0.036 A 
HETATM   19  C   UNL     1      37.921 -11.427   0.002  1.00  0.00     0.056 A 
HETATM   20  C   UNL     1      37.176 -10.464  -0.684  1.00  0.00     0.074 A 
HETATM   21 CL   UNL     1      36.689  -9.027   0.132  1.00  0.00    -0.081 Cl
HETATM   22  C   UNL     1      36.835 -10.666  -2.019  1.00  0.00     0.138 A 
HETATM   23  F   UNL     1      36.121  -9.752  -2.693  1.00  0.00    -0.204 F 
HETATM   24  C   UNL     1      37.233 -11.822  -2.679  1.00  0.00     0.046 A 
HETATM   25  C   UNL     1      37.981 -12.784  -1.996  1.00  0.00     0.032 A 
ENDBRANCH  15  18
ENDBRANCH   1  14
TORSDOF 3
ENDMDL
MODEL 9
REMARK VINA RESULT:      -7.4     14.364     15.636
REMARK  3 active torsions:
REMARK  status: ('A' for Active; 'I' for Inactive)
REMARK    1  A    between atoms: C_9  and  C_10 
REMARK    2  A    between atoms: C_10  and  C_11 
REMARK       I    between atoms: C_11  and  N_12 
REMARK    3  A    between atoms: N_12  and  C_13 
ROOT
HETATM    1  C   UNL     1      45.883 -28.832   2.588  1.00  0.00     0.165 C 
ENDROOT
BRANCH   1   2
HETATM    2  C   UNL     1      46.971 -29.021   1.545  1.00  0.00     0.074 A 
HETATM    3  C   UNL     1      46.668 -28.755   0.109  1.00  0.00     0.006 A 
HETATM    4  C   UNL     1      45.406 -28.372  -0.365  1.00  0.00     0.014 A 
HETATM    5  C   UNL     1      47.709 -28.921  -0.804  1.00  0.00     0.046 A 
HETATM    6  C   UNL     1      45.209 -28.132  -1.729  1.00  0.00     0.001 A 
HETATM    7  C   UNL     1      46.262 -28.281  -2.630  1.00  0.00     0.001 A 
HETATM    8  C   UNL     1      47.514 -28.680  -2.170  1.00  0.00     0.018 A 
HETATM    9  C   UNL     1      49.020 -29.383  -0.323  1.00  0.00     0.272 A 
HETATM   10  O   UNL     1      49.967 -29.539  -1.084  1.00  0.00    -0.266 OA
HETATM   11  N   UNL     1      49.112 -29.645   1.022  1.00  0.00    -0.243 N 
HETATM   12  N   UNL     1      48.128 -29.471   1.942  1.00  0.00    -0.175 NA
HETATM   13  H   UNL     1      50.010 -29.979   1.357  1.00  0.00     0.192 HD
ENDBRANCH   1   2
BRANCH   1  14
HETATM   14  C   UNL     1      44.860 -29.937   2.790  1.00  0.00     0.227 C 
HETATM   15  N   UNL     1      43.552 -29.588   2.540  1.00  0.00    -0.327 N 
HETATM   16  H   UNL     1      43.422 -28.682   2.087  1.00  0.00     0.169 HD
HETATM   17  O   UNL     1      45.236 -31.025   3.224  1.00  0.00    -0.273 OA
BRANCH  15  18
HETATM   18  C   UNL     1      42.391 -30.363   2.737  1.00  0.00     0.036 A 
HETATM   19  C   UNL     1      41.823 -30.619   3.988  1.00  0.00     0.056 A 
HETATM   20  C   UNL     1      40.660 -31.389   4.088  1.00  0.00     0.074 A 
HETATM   21 CL   UNL     1      39.969 -31.686   5.638  1.00  0.00    -0.081 Cl
HETATM   22  C   UNL     1      40.064 -31.905   2.940  1.00  0.00     0.138 A 
HETATM   23  F   UNL     1      38.948 -32.645   3.016  1.00  0.00    -0.204 F 
HETATM   24  C   UNL     1      40.618 -31.659   1.690  1.00  0.00     0.046 A 
HETATM   25  C   UNL     1      41.778 -30.887   1.588  1.00  0.00     0.032 A 
ENDBRANCH  15  18
ENDBRANCH   1  14
TORSDOF 3
ENDMDL
MODEL 10
REMARK VINA RESULT:      -7.4      3.342      3.773
REMARK  3 active torsions:
REMARK  status: ('A' for Active; 'I' for Inactive)
REMARK    1  A    between atoms: C_9  and  C_10 
REMARK    2  A    between atoms: C_10  and  C_11 
REMARK       I    between atoms: C_11  and  N_12 
REMARK    3  A    between atoms: N_12  and  C_13 
ROOT
HETATM    1  C   UNL     1      42.870 -14.650   2.964  1.00  0.00     0.165 C 
ENDROOT
BRANCH   1   2
HETATM    2  C   UNL     1      43.096 -15.566   4.156  1.00  0.00     0.074 A 
HETATM    3  C   UNL     1      43.383 -17.012   3.928  1.00  0.00     0.006 A 
HETATM    4  C   UNL     1      43.420 -17.610   2.661  1.00  0.00     0.014 A 
HETATM    5  C   UNL     1      43.606 -17.803   5.054  1.00  0.00     0.046 A 
HETATM    6  C   UNL     1      43.706 -18.973   2.534  1.00  0.00     0.001 A 
HETATM    7  C   UNL     1      43.949 -19.750   3.665  1.00  0.00     0.001 A 
HETATM    8  C   UNL     1      43.895 -19.168   4.929  1.00  0.00     0.018 A 
HETATM    9  C   UNL     1      43.508 -17.195   6.389  1.00  0.00     0.272 A 
HETATM   10  O   UNL     1      43.701 -17.846   7.409  1.00  0.00    -0.266 OA
HETATM   11  N   UNL     1      43.171 -15.865   6.424  1.00  0.00    -0.243 N 
HETATM   12  N   UNL     1      42.971 -15.060   5.349  1.00  0.00    -0.175 NA
HETATM   13  H   UNL     1      43.087 -15.444   7.345  1.00  0.00     0.192 HD
ENDBRANCH   1   2
BRANCH   1  14
HETATM   14  C   UNL     1      42.248 -13.284   3.197  1.00  0.00     0.227 C 
HETATM   15  N   UNL     1      41.022 -13.288   3.824  1.00  0.00    -0.327 N 
HETATM   16  H   UNL     1      40.738 -14.187   4.216  1.00  0.00     0.169 HD
HETATM   17  O   UNL     1      42.820 -12.286   2.760  1.00  0.00    -0.273 OA
BRANCH  15  18
HETATM   18  C   UNL     1      40.170 -12.194   4.078  1.00  0.00     0.036 A 
HETATM   19  C   UNL     1      39.532 -11.450   3.082  1.00  0.00     0.056 A 
HETATM   20  C   UNL     1      38.691 -10.388   3.428  1.00  0.00     0.074 A 
HETATM   21 CL   UNL     1      37.907  -9.488   2.186  1.00  0.00    -0.081 Cl
HETATM   22  C   UNL     1      38.488 -10.067   4.767  1.00  0.00     0.138 A 
HETATM   23  F   UNL     1      37.684  -9.052   5.117  1.00  0.00    -0.204 F 
HETATM   24  C   UNL     1      39.115 -10.797   5.768  1.00  0.00     0.046 A 
HETATM   25  C   UNL     1      39.953 -11.861   5.425  1.00  0.00     0.032 A 
ENDBRANCH  15  18
ENDBRANCH   1  14
TORSDOF 3
ENDMDL
