MODEL 1
REMARK VINA RESULT:      -8.3      0.000      0.000
REMARK  6 active torsions:
REMARK  status: ('A' for Active; 'I' for Inactive)
REMARK    1  A    between atoms: C_10  and  C_11 
REMARK       I    between atoms: C_11  and  N_12 
REMARK    2  A    between atoms: N_12  and  C_13 
REMARK    3  A    between atoms: C_13  and  C_14 
REMARK    4  A    between atoms: C_14  and  N_15 
REMARK    5  A    between atoms: C_14  and  C_19 
REMARK    6  A    between atoms: C_20  and  O_21 
ROOT
HETATM    1  C   UNL     1      42.819 -13.434   3.413  1.00  0.00     0.276 C 
HETATM    2  N   UNL     1      41.833 -13.145   2.486  1.00  0.00    -0.353 N 
HETATM    3  O   UNL     1      43.464 -12.539   3.951  1.00  0.00    -0.265 OA
HETATM    4  H   UNL     1      41.455 -13.955   1.999  1.00  0.00     0.162 HD
ENDROOT
BRANCH   2   5
HETATM    5  C   UNL     1      41.682 -11.823   1.912  1.00  0.00     0.161 C 
BRANCH   5   6
HETATM    6  C   UNL     1      40.403 -11.562   1.037  1.00  0.00     0.240 C 
BRANCH   6   7
HETATM    7  N   UNL     1      40.104 -10.034   0.964  1.00  0.00    -0.069 N 
HETATM    8  H   UNL     1      40.494  -9.697   0.076  1.00  0.00     0.279 HD
HETATM    9  C   UNL     1      38.616  -9.764   0.905  1.00  0.00     0.270 C 
HETATM   10  C   UNL     1      40.716  -9.244   2.087  1.00  0.00     0.270 C 
ENDBRANCH   6   7
BRANCH   6  11
HETATM   11  C   UNL     1      40.524 -12.156  -0.365  1.00  0.00     0.007 A 
HETATM   12  C   UNL     1      40.098 -13.480  -0.615  1.00  0.00     0.076 A 
HETATM   13  C   UNL     1      40.194 -14.015  -1.902  1.00  0.00     0.037 A 
HETATM   14  C   UNL     1      40.709 -13.248  -2.947  1.00  0.00     0.003 A 
HETATM   15  C   UNL     1      41.122 -11.941  -2.717  1.00  0.00     0.001 A 
HETATM   16  C   UNL     1      41.026 -11.393  -1.438  1.00  0.00     0.012 A 
BRANCH  12  17
HETATM   17  O   UNL     1      39.542 -14.142   0.449  1.00  0.00    -0.355 OA
HETATM   18  C   UNL     1      39.970 -15.483   0.671  1.00  0.00     0.210 C 
ENDBRANCH  12  17
ENDBRANCH   6  11
ENDBRANCH   5   6
ENDBRANCH   2   5
BRANCH   1  19
HETATM   19  C   UNL     1      43.015 -14.850   3.637  1.00  0.00     0.150 A 
HETATM   20  O   UNL     1      42.924 -15.689   2.557  1.00  0.00    -0.304 OA
HETATM   21  C   UNL     1      43.226 -16.942   2.989  1.00  0.00     0.087 A 
HETATM   22  C   UNL     1      43.293 -18.076   2.185  1.00  0.00     0.045 A 
HETATM   23  C   UNL     1      43.474 -16.934   4.352  1.00  0.00     0.007 A 
HETATM   24  C   UNL     1      43.646 -19.289   2.807  1.00  0.00    -0.053 A 
HETATM   25  C   UNL     1      43.864 -19.337   4.202  1.00  0.00    -0.055 A 
HETATM   26  C   UNL     1      43.743 -20.528   1.953  1.00  0.00     0.049 C 
HETATM   27  C   UNL     1      44.229 -20.625   4.895  1.00  0.00     0.049 C 
HETATM   28  C   UNL     1      43.794 -18.156   4.972  1.00  0.00     0.022 A 
HETATM   29  C   UNL     1      43.335 -15.576   4.777  1.00  0.00    -0.009 A 
HETATM   30  C   UNL     1      43.517 -15.049   6.153  1.00  0.00     0.052 C 
ENDBRANCH   1  19
TORSDOF 6
ENDMDL
MODEL 2
REMARK VINA RESULT:      -8.2      1.185      1.884
REMARK  6 active torsions:
REMARK  status: ('A' for Active; 'I' for Inactive)
REMARK    1  A    between atoms: C_10  and  C_11 
REMARK       I    between atoms: C_11  and  N_12 
REMARK    2  A    between atoms: N_12  and  C_13 
REMARK    3  A    between atoms: C_13  and  C_14 
REMARK    4  A    between atoms: C_14  and  N_15 
REMARK    5  A    between atoms: C_14  and  C_19 
REMARK    6  A    between atoms: C_20  and  O_21 
ROOT
HETATM    1  C   UNL     1      42.529 -13.628   3.032  1.00  0.00     0.276 C 
HETATM    2  N   UNL     1      41.199 -13.391   2.734  1.00  0.00    -0.353 N 
HETATM    3  O   UNL     1      43.360 -12.726   2.981  1.00  0.00    -0.265 OA
HETATM    4  H   UNL     1      40.622 -14.227   2.671  1.00  0.00     0.162 HD
ENDROOT
BRANCH   2   5
HETATM    5  C   UNL     1      40.760 -12.161   2.108  1.00  0.00     0.161 C 
BRANCH   5   6
HETATM    6  C   UNL     1      39.525 -12.250   1.139  1.00  0.00     0.240 C 
BRANCH   6   7
HETATM    7  N   UNL     1      38.687 -10.937   1.214  1.00  0.00    -0.069 N 
HETATM    8  H   UNL     1      39.074 -10.297   0.511  1.00  0.00     0.279 HD
HETATM    9  C   UNL     1      37.246 -11.178   0.824  1.00  0.00     0.270 C 
HETATM   10  C   UNL     1      38.740 -10.262   2.556  1.00  0.00     0.270 C 
ENDBRANCH   6   7
BRANCH   6  11
HETATM   11  C   UNL     1      39.934 -12.546  -0.302  1.00  0.00     0.007 A 
HETATM   12  C   UNL     1      40.623 -11.572  -1.059  1.00  0.00     0.076 A 
HETATM   13  C   UNL     1      41.013 -11.852  -2.371  1.00  0.00     0.037 A 
HETATM   14  C   UNL     1      40.725 -13.091  -2.942  1.00  0.00     0.003 A 
HETATM   15  C   UNL     1      40.057 -14.062  -2.205  1.00  0.00     0.001 A 
HETATM   16  C   UNL     1      39.668 -13.797  -0.892  1.00  0.00     0.012 A 
BRANCH  12  17
HETATM   17  O   UNL     1      40.927 -10.407  -0.403  1.00  0.00    -0.355 OA
HETATM   18  C   UNL     1      41.829  -9.516  -1.054  1.00  0.00     0.210 C 
ENDBRANCH  12  17
ENDBRANCH   6  11
ENDBRANCH   5   6
ENDBRANCH   2   5
BRANCH   1  19
HETATM   19  C   UNL     1      42.819 -15.008   3.360  1.00  0.00     0.150 A 
HETATM   20  O   UNL     1      42.751 -15.935   2.354  1.00  0.00    -0.304 OA
HETATM   21  C   UNL     1      43.142 -17.128   2.873  1.00  0.00     0.087 A 
HETATM   22  C   UNL     1      43.258 -18.318   2.159  1.00  0.00     0.045 A 
HETATM   23  C   UNL     1      43.427 -16.996   4.222  1.00  0.00     0.007 A 
HETATM   24  C   UNL     1      43.702 -19.453   2.862  1.00  0.00    -0.053 A 
HETATM   25  C   UNL     1      43.962 -19.375   4.249  1.00  0.00    -0.055 A 
HETATM   26  C   UNL     1      43.853 -20.749   2.107  1.00  0.00     0.049 C 
HETATM   27  C   UNL     1      44.425 -20.579   5.029  1.00  0.00     0.049 C 
HETATM   28  C   UNL     1      43.840 -18.142   4.926  1.00  0.00     0.022 A 
HETATM   29  C   UNL     1      43.215 -15.618   4.543  1.00  0.00    -0.009 A 
HETATM   30  C   UNL     1      43.403 -14.972   5.867  1.00  0.00     0.052 C 
ENDBRANCH   1  19
TORSDOF 6
ENDMDL
MODEL 3
REMARK VINA RESULT:      -8.1      4.056      7.881
REMARK  6 active torsions:
REMARK  status: ('A' for Active; 'I' for Inactive)
REMARK    1  A    between atoms: C_10  and  C_11 
REMARK       I    between atoms: C_11  and  N_12 
REMARK    2  A    between atoms: N_12  and  C_13 
REMARK    3  A    between atoms: C_13  and  C_14 
REMARK    4  A    between atoms: C_14  and  N_15 
REMARK    5  A    between atoms: C_14  and  C_19 
REMARK    6  A    between atoms: C_20  and  O_21 
ROOT
HETATM    1  C   UNL     1      43.438 -11.677   4.415  1.00  0.00     0.276 C 
HETATM    2  N   UNL     1      42.815 -12.912   4.401  1.00  0.00    -0.353 N 
HETATM    3  O   UNL     1      43.929 -11.203   3.395  1.00  0.00    -0.265 OA
HETATM    4  H   UNL     1      42.565 -13.274   5.319  1.00  0.00     0.162 HD
ENDROOT
BRANCH   2   5
HETATM    5  C   UNL     1      42.929 -13.817   3.275  1.00  0.00     0.161 C 
BRANCH   5   6
HETATM    6  C   UNL     1      42.045 -15.116   3.305  1.00  0.00     0.240 C 
BRANCH   6   7
HETATM    7  N   UNL     1      41.246 -15.252   1.973  1.00  0.00    -0.069 N 
HETATM    8  H   UNL     1      41.647 -16.051   1.467  1.00  0.00     0.279 HD
HETATM    9  C   UNL     1      39.796 -15.597   2.232  1.00  0.00     0.270 C 
HETATM   10  C   UNL     1      41.326 -14.037   1.092  1.00  0.00     0.270 C 
ENDBRANCH   6   7
BRANCH   6  11
HETATM   11  C   UNL     1      42.866 -16.375   3.573  1.00  0.00     0.007 A 
HETATM   12  C   UNL     1      43.356 -16.639   4.872  1.00  0.00     0.076 A 
HETATM   13  C   UNL     1      44.092 -17.801   5.119  1.00  0.00     0.037 A 
HETATM   14  C   UNL     1      44.348 -18.705   4.090  1.00  0.00     0.003 A 
HETATM   15  C   UNL     1      43.862 -18.463   2.810  1.00  0.00     0.001 A 
HETATM   16  C   UNL     1      43.121 -17.310   2.551  1.00  0.00     0.012 A 
BRANCH  12  17
HETATM   17  O   UNL     1      43.004 -15.736   5.841  1.00  0.00    -0.355 OA
HETATM   18  C   UNL     1      42.175 -16.213   6.898  1.00  0.00     0.210 C 
ENDBRANCH  12  17
ENDBRANCH   6  11
ENDBRANCH   5   6
ENDBRANCH   2   5
BRANCH   1  19
HETATM   19  C   UNL     1      43.472 -11.053   5.721  1.00  0.00     0.150 A 
HETATM   20  O   UNL     1      42.323 -10.461   6.179  1.00  0.00    -0.304 OA
HETATM   21  C   UNL     1      42.567 -10.026   7.443  1.00  0.00     0.087 A 
HETATM   22  C   UNL     1      41.636  -9.410   8.275  1.00  0.00     0.045 A 
HETATM   23  C   UNL     1      43.879 -10.292   7.800  1.00  0.00     0.007 A 
HETATM   24  C   UNL     1      42.065  -9.047   9.566  1.00  0.00    -0.053 A 
HETATM   25  C   UNL     1      43.405  -9.258   9.958  1.00  0.00    -0.055 A 
HETATM   26  C   UNL     1      41.070  -8.395  10.493  1.00  0.00     0.049 C 
HETATM   27  C   UNL     1      43.894  -8.865  11.328  1.00  0.00     0.049 C 
HETATM   28  C   UNL     1      44.309  -9.896   9.080  1.00  0.00     0.022 A 
HETATM   29  C   UNL     1      44.471 -10.958   6.681  1.00  0.00    -0.009 A 
HETATM   30  C   UNL     1      45.863 -11.463   6.578  1.00  0.00     0.052 C 
ENDBRANCH   1  19
TORSDOF 6
ENDMDL
MODEL 4
REMARK VINA RESULT:      -8.0      1.632      2.223
REMARK  6 active torsions:
REMARK  status: ('A' for Active; 'I' for Inactive)
REMARK    1  A    between atoms: C_10  and  C_11 
REMARK       I    between atoms: C_11  and  N_12 
REMARK    2  A    between atoms: N_12  and  C_13 
REMARK    3  A    between atoms: C_13  and  C_14 
REMARK    4  A    between atoms: C_14  and  N_15 
REMARK    5  A    between atoms: C_14  and  C_19 
REMARK    6  A    between atoms: C_20  and  O_21 
ROOT
HETATM    1  C   UNL     1      41.851 -13.654   2.291  1.00  0.00     0.276 C 
HETATM    2  N   UNL     1      41.555 -13.637   0.940  1.00  0.00    -0.353 N 
HETATM    3  O   UNL     1      41.764 -12.637   2.971  1.00  0.00    -0.265 OA
HETATM    4  H   UNL     1      41.790 -14.492   0.441  1.00  0.00     0.162 HD
ENDROOT
BRANCH   2   5
HETATM    5  C   UNL     1      41.380 -12.399   0.208  1.00  0.00     0.161 C 
BRANCH   5   6
HETATM    6  C   UNL     1      39.905 -11.931  -0.071  1.00  0.00     0.240 C 
BRANCH   6   7
HETATM    7  N   UNL     1      39.881 -10.412  -0.422  1.00  0.00    -0.069 N 
HETATM    8  H   UNL     1      38.946 -10.208  -0.792  1.00  0.00     0.279 HD
HETATM    9  C   UNL     1      40.046  -9.557   0.815  1.00  0.00     0.270 C 
HETATM   10  C   UNL     1      40.901 -10.013  -1.452  1.00  0.00     0.270 C 
ENDBRANCH   6   7
BRANCH   6  11
HETATM   11  C   UNL     1      39.231 -12.750  -1.170  1.00  0.00     0.007 A 
HETATM   12  C   UNL     1      37.899 -12.470  -1.546  1.00  0.00     0.076 A 
HETATM   13  C   UNL     1      37.289 -13.208  -2.564  1.00  0.00     0.037 A 
HETATM   14  C   UNL     1      37.990 -14.224  -3.214  1.00  0.00     0.003 A 
HETATM   15  C   UNL     1      39.305 -14.503  -2.859  1.00  0.00     0.001 A 
HETATM   16  C   UNL     1      39.926 -13.769  -1.849  1.00  0.00     0.012 A 
BRANCH  12  17
HETATM   17  O   UNL     1      37.304 -11.412  -0.908  1.00  0.00    -0.355 OA
HETATM   18  C   UNL     1      36.671 -10.434  -1.729  1.00  0.00     0.210 C 
ENDBRANCH  12  17
ENDBRANCH   6  11
ENDBRANCH   5   6
ENDBRANCH   2   5
BRANCH   1  19
HETATM   19  C   UNL     1      42.290 -14.945   2.778  1.00  0.00     0.150 A 
HETATM   20  O   UNL     1      42.257 -16.004   1.908  1.00  0.00    -0.304 OA
HETATM   21  C   UNL     1      42.789 -17.076   2.553  1.00  0.00     0.087 A 
HETATM   22  C   UNL     1      42.979 -18.337   1.995  1.00  0.00     0.045 A 
HETATM   23  C   UNL     1      43.132 -16.735   3.851  1.00  0.00     0.007 A 
HETATM   24  C   UNL     1      43.569 -19.321   2.811  1.00  0.00    -0.053 A 
HETATM   25  C   UNL     1      43.893 -19.032   4.155  1.00  0.00    -0.055 A 
HETATM   26  C   UNL     1      43.802 -20.690   2.223  1.00  0.00     0.049 C 
HETATM   27  C   UNL     1      44.511 -20.072   5.054  1.00  0.00     0.049 C 
HETATM   28  C   UNL     1      43.690 -17.733   4.670  1.00  0.00     0.022 A 
HETATM   29  C   UNL     1      42.806 -15.351   4.001  1.00  0.00    -0.009 A 
HETATM   30  C   UNL     1      43.002 -14.515   5.213  1.00  0.00     0.052 C 
ENDBRANCH   1  19
TORSDOF 6
ENDMDL
MODEL 5
REMARK VINA RESULT:      -7.9      3.357      6.131
REMARK  6 active torsions:
REMARK  status: ('A' for Active; 'I' for Inactive)
REMARK    1  A    between atoms: C_10  and  C_11 
REMARK       I    between atoms: C_11  and  N_12 
REMARK    2  A    between atoms: N_12  and  C_13 
REMARK    3  A    between atoms: C_13  and  C_14 
REMARK    4  A    between atoms: C_14  and  N_15 
REMARK    5  A    between atoms: C_14  and  C_19 
REMARK    6  A    between atoms: C_20  and  O_21 
ROOT
HETATM    1  C   UNL     1      42.579 -13.549   4.203  1.00  0.00     0.276 C 
HETATM    2  N   UNL     1      42.094 -13.392   5.488  1.00  0.00    -0.353 N 
HETATM    3  O   UNL     1      42.690 -12.589   3.446  1.00  0.00    -0.265 OA
HETATM    4  H   UNL     1      41.912 -14.261   5.984  1.00  0.00     0.162 HD
ENDROOT
BRANCH   2   5
HETATM    5  C   UNL     1      41.459 -12.165   5.925  1.00  0.00     0.161 C 
BRANCH   5   6
HETATM    6  C   UNL     1      42.253 -10.826   5.703  1.00  0.00     0.240 C 
BRANCH   6   7
HETATM    7  N   UNL     1      41.317  -9.601   5.939  1.00  0.00    -0.069 N 
HETATM    8  H   UNL     1      41.522  -9.250   6.882  1.00  0.00     0.279 HD
HETATM    9  C   UNL     1      41.636  -8.472   4.984  1.00  0.00     0.270 C 
HETATM   10  C   UNL     1      39.854  -9.934   5.858  1.00  0.00     0.270 C 
ENDBRANCH   6   7
BRANCH   6  11
HETATM   11  C   UNL     1      43.497 -10.733   6.585  1.00  0.00     0.007 A 
HETATM   12  C   UNL     1      43.395 -10.243   7.906  1.00  0.00     0.076 A 
HETATM   13  C   UNL     1      44.530 -10.176   8.717  1.00  0.00     0.037 A 
HETATM   14  C   UNL     1      45.770 -10.589   8.229  1.00  0.00     0.003 A 
HETATM   15  C   UNL     1      45.882 -11.083   6.935  1.00  0.00     0.001 A 
HETATM   16  C   UNL     1      44.754 -11.161   6.117  1.00  0.00     0.012 A 
BRANCH  12  17
HETATM   17  O   UNL     1      42.131  -9.922   8.331  1.00  0.00    -0.355 OA
HETATM   18  C   UNL     1      42.030  -9.075   9.474  1.00  0.00     0.210 C 
ENDBRANCH  12  17
ENDBRANCH   6  11
ENDBRANCH   5   6
ENDBRANCH   2   5
BRANCH   1  19
HETATM   19  C   UNL     1      42.893 -14.919   3.858  1.00  0.00     0.150 A 
HETATM   20  O   UNL     1      43.387 -15.732   4.845  1.00  0.00    -0.304 OA
HETATM   21  C   UNL     1      43.522 -16.976   4.317  1.00  0.00     0.087 A 
HETATM   22  C   UNL     1      43.951 -18.104   5.012  1.00  0.00     0.045 A 
HETATM   23  C   UNL     1      43.160 -16.974   2.979  1.00  0.00     0.007 A 
HETATM   24  C   UNL     1      44.007 -19.318   4.302  1.00  0.00    -0.053 A 
HETATM   25  C   UNL     1      43.690 -19.354   2.926  1.00  0.00    -0.055 A 
HETATM   26  C   UNL     1      44.451 -20.557   5.038  1.00  0.00     0.049 C 
HETATM   27  C   UNL     1      43.756 -20.638   2.139  1.00  0.00     0.049 C 
HETATM   28  C   UNL     1      43.250 -18.185   2.268  1.00  0.00     0.022 A 
HETATM   29  C   UNL     1      42.752 -15.637   2.677  1.00  0.00    -0.009 A 
HETATM   30  C   UNL     1      42.259 -15.128   1.372  1.00  0.00     0.052 C 
ENDBRANCH   1  19
TORSDOF 6
ENDMDL
MODEL 6
REMARK VINA RESULT:      -7.9      2.502      3.297
REMARK  6 active torsions:
REMARK  status: ('A' for Active; 'I' for Inactive)
REMARK    1  A    between atoms: C_10  and  C_11 
REMARK       I    between atoms: C_11  and  N_12 
REMARK    2  A    between atoms: N_12  and  C_13 
REMARK    3  A    between atoms: C_13  and  C_14 
REMARK    4  A    between atoms: C_14  and  N_15 
REMARK    5  A    between atoms: C_14  and  C_19 
REMARK    6  A    between atoms: C_20  and  O_21 
ROOT
HETATM    1  C   UNL     1      42.980 -13.400   3.891  1.00  0.00     0.276 C 
HETATM    2  N   UNL     1      42.125 -12.860   4.834  1.00  0.00    -0.353 N 
HETATM    3  O   UNL     1      43.505 -12.695   3.034  1.00  0.00    -0.265 OA
HETATM    4  H   UNL     1      41.638 -13.544   5.409  1.00  0.00     0.162 HD
ENDROOT
BRANCH   2   5
HETATM    5  C   UNL     1      41.603 -11.513   4.716  1.00  0.00     0.161 C 
BRANCH   5   6
HETATM    6  C   UNL     1      40.078 -11.304   5.034  1.00  0.00     0.240 C 
BRANCH   6   7
HETATM    7  N   UNL     1      39.903 -10.197   6.119  1.00  0.00    -0.069 N 
HETATM    8  H   UNL     1      39.400  -9.422   5.672  1.00  0.00     0.279 HD
HETATM    9  C   UNL     1      39.028 -10.674   7.258  1.00  0.00     0.270 C 
HETATM   10  C   UNL     1      41.202  -9.674   6.665  1.00  0.00     0.270 C 
ENDBRANCH   6   7
BRANCH   6  11
HETATM   11  C   UNL     1      39.262 -10.971   3.787  1.00  0.00     0.007 A 
HETATM   12  C   UNL     1      38.945 -11.985   2.856  1.00  0.00     0.076 A 
HETATM   13  C   UNL     1      38.183 -11.683   1.724  1.00  0.00     0.037 A 
HETATM   14  C   UNL     1      37.731 -10.382   1.507  1.00  0.00     0.003 A 
HETATM   15  C   UNL     1      38.027  -9.377   2.421  1.00  0.00     0.001 A 
HETATM   16  C   UNL     1      38.782  -9.667   3.557  1.00  0.00     0.012 A 
BRANCH  12  17
HETATM   17  O   UNL     1      39.368 -13.249   3.177  1.00  0.00    -0.355 OA
HETATM   18  C   UNL     1      39.819 -14.072   2.104  1.00  0.00     0.210 C 
ENDBRANCH  12  17
ENDBRANCH   6  11
ENDBRANCH   5   6
ENDBRANCH   2   5
BRANCH   1  19
HETATM   19  C   UNL     1      43.148 -14.833   4.005  1.00  0.00     0.150 A 
HETATM   20  O   UNL     1      42.953 -15.593   2.881  1.00  0.00    -0.304 OA
HETATM   21  C   UNL     1      43.246 -16.880   3.204  1.00  0.00     0.087 A 
HETATM   22  C   UNL     1      43.220 -17.957   2.323  1.00  0.00     0.045 A 
HETATM   23  C   UNL     1      43.592 -16.973   4.543  1.00  0.00     0.007 A 
HETATM   24  C   UNL     1      43.579 -19.219   2.834  1.00  0.00    -0.053 A 
HETATM   25  C   UNL     1      43.895 -19.369   4.203  1.00  0.00    -0.055 A 
HETATM   26  C   UNL     1      43.575 -20.398   1.895  1.00  0.00     0.049 C 
HETATM   27  C   UNL     1      44.268 -20.711   4.780  1.00  0.00     0.049 C 
HETATM   28  C   UNL     1      43.918 -18.243   5.054  1.00  0.00     0.022 A 
HETATM   29  C   UNL     1      43.526 -15.644   5.067  1.00  0.00    -0.009 A 
HETATM   30  C   UNL     1      43.824 -15.218   6.458  1.00  0.00     0.052 C 
ENDBRANCH   1  19
TORSDOF 6
ENDMDL
MODEL 7
REMARK VINA RESULT:      -7.9      3.708      7.846
REMARK  6 active torsions:
REMARK  status: ('A' for Active; 'I' for Inactive)
REMARK    1  A    between atoms: C_10  and  C_11 
REMARK       I    between atoms: C_11  and  N_12 
REMARK    2  A    between atoms: N_12  and  C_13 
REMARK    3  A    between atoms: C_13  and  C_14 
REMARK    4  A    between atoms: C_14  and  N_15 
REMARK    5  A    between atoms: C_14  and  C_19 
REMARK    6  A    between atoms: C_20  and  O_21 
ROOT
HETATM    1  C   UNL     1      43.247 -12.229   4.022  1.00  0.00     0.276 C 
HETATM    2  N   UNL     1      42.812 -13.531   4.193  1.00  0.00    -0.353 N 
HETATM    3  O   UNL     1      43.614 -11.823   2.924  1.00  0.00    -0.265 OA
HETATM    4  H   UNL     1      42.662 -13.807   5.161  1.00  0.00     0.162 HD
ENDROOT
BRANCH   2   5
HETATM    5  C   UNL     1      43.002 -14.544   3.174  1.00  0.00     0.161 C 
BRANCH   5   6
HETATM    6  C   UNL     1      42.030 -15.780   3.200  1.00  0.00     0.240 C 
BRANCH   6   7
HETATM    7  N   UNL     1      41.133 -15.784   1.925  1.00  0.00    -0.069 N 
HETATM    8  H   UNL     1      41.258 -16.700   1.478  1.00  0.00     0.279 HD
HETATM    9  C   UNL     1      39.667 -15.680   2.281  1.00  0.00     0.270 C 
HETATM   10  C   UNL     1      41.488 -14.714   0.931  1.00  0.00     0.270 C 
ENDBRANCH   6   7
BRANCH   6  11
HETATM   11  C   UNL     1      42.775 -17.105   3.341  1.00  0.00     0.007 A 
HETATM   12  C   UNL     1      43.405 -17.438   4.561  1.00  0.00     0.076 A 
HETATM   13  C   UNL     1      44.071 -18.660   4.694  1.00  0.00     0.037 A 
HETATM   14  C   UNL     1      44.119 -19.556   3.626  1.00  0.00     0.003 A 
HETATM   15  C   UNL     1      43.495 -19.244   2.424  1.00  0.00     0.001 A 
HETATM   16  C   UNL     1      42.822 -18.031   2.281  1.00  0.00     0.012 A 
BRANCH  12  17
HETATM   17  O   UNL     1      43.254 -16.535   5.581  1.00  0.00    -0.355 OA
HETATM   18  C   UNL     1      44.399 -16.276   6.390  1.00  0.00     0.210 C 
ENDBRANCH  12  17
ENDBRANCH   6  11
ENDBRANCH   5   6
ENDBRANCH   2   5
BRANCH   1  19
HETATM   19  C   UNL     1      43.253 -11.449   5.242  1.00  0.00     0.150 A 
HETATM   20  O   UNL     1      44.183 -11.761   6.198  1.00  0.00    -0.304 OA
HETATM   21  C   UNL     1      44.055 -10.852   7.201  1.00  0.00     0.087 A 
HETATM   22  C   UNL     1      44.852 -10.794   8.341  1.00  0.00     0.045 A 
HETATM   23  C   UNL     1      43.021  -9.973   6.925  1.00  0.00     0.007 A 
HETATM   24  C   UNL     1      44.586  -9.764   9.263  1.00  0.00    -0.053 A 
HETATM   25  C   UNL     1      43.513  -8.873   9.045  1.00  0.00    -0.055 A 
HETATM   26  C   UNL     1      45.448  -9.670  10.497  1.00  0.00     0.049 C 
HETATM   27  C   UNL     1      43.197  -7.771  10.024  1.00  0.00     0.049 C 
HETATM   28  C   UNL     1      42.740  -8.967   7.867  1.00  0.00     0.022 A 
HETATM   29  C   UNL     1      42.495 -10.360   5.652  1.00  0.00    -0.009 A 
HETATM   30  C   UNL     1      41.380  -9.714   4.914  1.00  0.00     0.052 C 
ENDBRANCH   1  19
TORSDOF 6
ENDMDL
MODEL 8
REMARK VINA RESULT:      -7.8      2.052      8.211
REMARK  6 active torsions:
REMARK  status: ('A' for Active; 'I' for Inactive)
REMARK    1  A    between atoms: C_10  and  C_11 
REMARK       I    between atoms: C_11  and  N_12 
REMARK    2  A    between atoms: N_12  and  C_13 
REMARK    3  A    between atoms: C_13  and  C_14 
REMARK    4  A    between atoms: C_14  and  N_15 
REMARK    5  A    between atoms: C_14  and  C_19 
REMARK    6  A    between atoms: C_20  and  O_21 
ROOT
HETATM    1  C   UNL     1      40.004 -14.708   0.877  1.00  0.00     0.276 C 
HETATM    2  N   UNL     1      40.204 -14.365   2.202  1.00  0.00    -0.353 N 
HETATM    3  O   UNL     1      39.749 -15.864   0.553  1.00  0.00    -0.265 OA
HETATM    4  H   UNL     1      40.543 -13.417   2.350  1.00  0.00     0.162 HD
ENDROOT
BRANCH   2   5
HETATM    5  C   UNL     1      40.380 -15.365   3.236  1.00  0.00     0.161 C 
BRANCH   5   6
HETATM    6  C   UNL     1      41.747 -15.361   4.013  1.00  0.00     0.240 C 
BRANCH   6   7
HETATM    7  N   UNL     1      41.491 -15.250   5.547  1.00  0.00    -0.069 N 
HETATM    8  H   UNL     1      42.353 -15.557   6.013  1.00  0.00     0.279 HD
HETATM    9  C   UNL     1      41.267 -13.814   5.967  1.00  0.00     0.270 C 
HETATM   10  C   UNL     1      40.353 -16.102   6.034  1.00  0.00     0.270 C 
ENDBRANCH   6   7
BRANCH   6  11
HETATM   11  C   UNL     1      42.602 -16.585   3.695  1.00  0.00     0.007 A 
HETATM   12  C   UNL     1      43.712 -16.906   4.508  1.00  0.00     0.076 A 
HETATM   13  C   UNL     1      44.483 -18.037   4.226  1.00  0.00     0.037 A 
HETATM   14  C   UNL     1      44.163 -18.855   3.143  1.00  0.00     0.003 A 
HETATM   15  C   UNL     1      43.068 -18.556   2.341  1.00  0.00     0.001 A 
HETATM   16  C   UNL     1      42.287 -17.433   2.615  1.00  0.00     0.012 A 
BRANCH  12  17
HETATM   17  O   UNL     1      43.917 -16.091   5.592  1.00  0.00    -0.355 OA
HETATM   18  C   UNL     1      44.317 -16.721   6.807  1.00  0.00     0.210 C 
ENDBRANCH  12  17
ENDBRANCH   6  11
ENDBRANCH   5   6
ENDBRANCH   2   5
BRANCH   1  19
HETATM   19  C   UNL     1      40.158 -13.602  -0.044  1.00  0.00     0.150 A 
HETATM   20  O   UNL     1      40.753 -12.458   0.421  1.00  0.00    -0.304 OA
HETATM   21  C   UNL     1      40.865 -11.603  -0.630  1.00  0.00     0.087 A 
HETATM   22  C   UNL     1      41.462 -10.346  -0.584  1.00  0.00     0.045 A 
HETATM   23  C   UNL     1      40.310 -12.163  -1.769  1.00  0.00     0.007 A 
HETATM   24  C   UNL     1      41.507  -9.608  -1.782  1.00  0.00    -0.053 A 
HETATM   25  C   UNL     1      40.914 -10.121  -2.957  1.00  0.00    -0.055 A 
HETATM   26  C   UNL     1      42.164  -8.251  -1.761  1.00  0.00     0.049 C 
HETATM   27  C   UNL     1      40.935  -9.345  -4.249  1.00  0.00     0.049 C 
HETATM   28  C   UNL     1      40.330 -11.406  -2.955  1.00  0.00     0.022 A 
HETATM   29  C   UNL     1      39.847 -13.462  -1.390  1.00  0.00    -0.009 A 
HETATM   30  C   UNL     1      39.188 -14.464  -2.267  1.00  0.00     0.052 C 
ENDBRANCH   1  19
TORSDOF 6
ENDMDL
MODEL 9
REMARK VINA RESULT:      -7.8      2.004      7.526
REMARK  6 active torsions:
REMARK  status: ('A' for Active; 'I' for Inactive)
REMARK    1  A    between atoms: C_10  and  C_11 
REMARK       I    between atoms: C_11  and  N_12 
REMARK    2  A    between atoms: N_12  and  C_13 
REMARK    3  A    between atoms: C_13  and  C_14 
REMARK    4  A    between atoms: C_14  and  N_15 
REMARK    5  A    between atoms: C_14  and  C_19 
REMARK    6  A    between atoms: C_20  and  O_21 
ROOT
HETATM    1  C   UNL     1      41.800 -12.482   1.910  1.00  0.00     0.276 C 
HETATM    2  N   UNL     1      42.323 -13.722   2.231  1.00  0.00    -0.353 N 
HETATM    3  O   UNL     1      42.167 -11.468   2.497  1.00  0.00    -0.265 OA
HETATM    4  H   UNL     1      41.857 -14.509   1.787  1.00  0.00     0.162 HD
ENDROOT
BRANCH   2   5
HETATM    5  C   UNL     1      43.120 -13.933   3.423  1.00  0.00     0.161 C 
BRANCH   5   6
HETATM    6  C   UNL     1      42.652 -15.066   4.408  1.00  0.00     0.240 C 
BRANCH   6   7
HETATM    7  N   UNL     1      41.101 -15.035   4.564  1.00  0.00    -0.069 N 
HETATM    8  H   UNL     1      40.706 -15.137   3.623  1.00  0.00     0.279 HD
HETATM    9  C   UNL     1      40.603 -16.217   5.366  1.00  0.00     0.270 C 
HETATM   10  C   UNL     1      40.580 -13.760   5.168  1.00  0.00     0.270 C 
ENDBRANCH   6   7
BRANCH   6  11
HETATM   11  C   UNL     1      43.122 -16.451   3.969  1.00  0.00     0.007 A 
HETATM   12  C   UNL     1      43.982 -17.205   4.798  1.00  0.00     0.076 A 
HETATM   13  C   UNL     1      44.397 -18.479   4.403  1.00  0.00     0.037 A 
HETATM   14  C   UNL     1      43.966 -19.016   3.190  1.00  0.00     0.003 A 
HETATM   15  C   UNL     1      43.111 -18.289   2.369  1.00  0.00     0.001 A 
HETATM   16  C   UNL     1      42.685 -17.018   2.755  1.00  0.00     0.012 A 
BRANCH  12  17
HETATM   17  O   UNL     1      44.304 -16.635   6.003  1.00  0.00    -0.355 OA
HETATM   18  C   UNL     1      43.726 -17.218   7.169  1.00  0.00     0.210 C 
ENDBRANCH  12  17
ENDBRANCH   6  11
ENDBRANCH   5   6
ENDBRANCH   2   5
BRANCH   1  19
HETATM   19  C   UNL     1      40.791 -12.523   0.872  1.00  0.00     0.150 A 
HETATM   20  O   UNL     1      40.933 -13.454  -0.123  1.00  0.00    -0.304 OA
HETATM   21  C   UNL     1      39.838 -13.364  -0.923  1.00  0.00     0.087 A 
HETATM   22  C   UNL     1      39.576 -14.174  -2.024  1.00  0.00     0.045 A 
HETATM   23  C   UNL     1      39.001 -12.352  -0.481  1.00  0.00     0.007 A 
HETATM   24  C   UNL     1      38.375 -13.948  -2.722  1.00  0.00    -0.053 A 
HETATM   25  C   UNL     1      37.513 -12.898  -2.334  1.00  0.00    -0.055 A 
HETATM   26  C   UNL     1      38.060 -14.825  -3.908  1.00  0.00     0.049 C 
HETATM   27  C   UNL     1      36.227 -12.625  -3.073  1.00  0.00     0.049 C 
HETATM   28  C   UNL     1      37.818 -12.110  -1.202  1.00  0.00     0.022 A 
HETATM   29  C   UNL     1      39.620 -11.802   0.685  1.00  0.00    -0.009 A 
HETATM   30  C   UNL     1      39.101 -10.699   1.534  1.00  0.00     0.052 C 
ENDBRANCH   1  19
TORSDOF 6
ENDMDL
MODEL 10
REMARK VINA RESULT:      -7.8      2.059      3.341
REMARK  6 active torsions:
REMARK  status: ('A' for Active; 'I' for Inactive)
REMARK    1  A    between atoms: C_10  and  C_11 
REMARK       I    between atoms: C_11  and  N_12 
REMARK    2  A    between atoms: N_12  and  C_13 
REMARK    3  A    between atoms: C_13  and  C_14 
REMARK    4  A    between atoms: C_14  and  N_15 
REMARK    5  A    between atoms: C_14  and  C_19 
REMARK    6  A    between atoms: C_20  and  O_21 
ROOT
HETATM    1  C   UNL     1      39.358 -13.016   2.966  1.00  0.00     0.276 C 
HETATM    2  N   UNL     1      38.631 -12.872   1.798  1.00  0.00    -0.353 N 
HETATM    3  O   UNL     1      39.222 -12.227   3.897  1.00  0.00    -0.265 OA
HETATM    4  H   UNL     1      38.915 -13.490   1.041  1.00  0.00     0.162 HD
ENDROOT
BRANCH   2   5
HETATM    5  C   UNL     1      37.880 -11.669   1.504  1.00  0.00     0.161 C 
BRANCH   5   6
HETATM    6  C   UNL     1      37.565 -11.370  -0.007  1.00  0.00     0.240 C 
BRANCH   6   7
HETATM    7  N   UNL     1      37.521  -9.831  -0.252  1.00  0.00    -0.069 N 
HETATM    8  H   UNL     1      38.490  -9.526  -0.398  1.00  0.00     0.279 HD
HETATM    9  C   UNL     1      36.773  -9.496  -1.524  1.00  0.00     0.270 C 
HETATM   10  C   UNL     1      36.940  -9.052   0.894  1.00  0.00     0.270 C 
ENDBRANCH   6   7
BRANCH   6  11
HETATM   11  C   UNL     1      38.558 -12.040  -0.954  1.00  0.00     0.007 A 
HETATM   12  C   UNL     1      39.907 -11.621  -0.978  1.00  0.00     0.076 A 
HETATM   13  C   UNL     1      40.819 -12.247  -1.832  1.00  0.00     0.037 A 
HETATM   14  C   UNL     1      40.405 -13.286  -2.664  1.00  0.00     0.003 A 
HETATM   15  C   UNL     1      39.083 -13.714  -2.644  1.00  0.00     0.001 A 
HETATM   16  C   UNL     1      38.164 -13.101  -1.791  1.00  0.00     0.012 A 
BRANCH  12  17
HETATM   17  O   UNL     1      40.248 -10.642  -0.081  1.00  0.00    -0.355 OA
HETATM   18  C   UNL     1      41.426 -10.856   0.694  1.00  0.00     0.210 C 
ENDBRANCH  12  17
ENDBRANCH   6  11
ENDBRANCH   5   6
ENDBRANCH   2   5
BRANCH   1  19
HETATM   19  C   UNL     1      40.279 -14.132   2.950  1.00  0.00     0.150 A 
HETATM   20  O   UNL     1      41.002 -14.384   4.086  1.00  0.00    -0.304 OA
HETATM   21  C   UNL     1      41.724 -15.514   3.867  1.00  0.00     0.087 A 
HETATM   22  C   UNL     1      42.553 -16.133   4.798  1.00  0.00     0.045 A 
HETATM   23  C   UNL     1      41.509 -15.980   2.580  1.00  0.00     0.007 A 
HETATM   24  C   UNL     1      43.206 -17.315   4.398  1.00  0.00    -0.053 A 
HETATM   25  C   UNL     1      43.051 -17.802   3.081  1.00  0.00    -0.055 A 
HETATM   26  C   UNL     1      44.096 -18.013   5.395  1.00  0.00     0.049 C 
HETATM   27  C   UNL     1      43.750 -19.057   2.622  1.00  0.00     0.049 C 
HETATM   28  C   UNL     1      42.189 -17.144   2.177  1.00  0.00     0.022 A 
HETATM   29  C   UNL     1      40.572 -15.082   1.980  1.00  0.00    -0.009 A 
HETATM   30  C   UNL     1      40.011 -15.164   0.607  1.00  0.00     0.052 C 
ENDBRANCH   1  19
TORSDOF 6
ENDMDL
