MODEL 1
REMARK VINA RESULT:      -7.9      0.000      0.000
REMARK  3 active torsions:
REMARK  status: ('A' for Active; 'I' for Inactive)
REMARK    1  A    between atoms: C_9  and  C_10 
REMARK    2  A    between atoms: C_16  and  C_17 
REMARK       I    between atoms: C_17  and  N_18 
REMARK    3  A    between atoms: N_18  and  C_19 
ROOT
HETATM    1  C   UNL     1      42.971 -15.899   8.023  1.00  0.00     0.070 C 
HETATM    2  C   UNL     1      43.031 -14.801   6.993  1.00  0.00     0.037 A 
HETATM    3  N   UNL     1      43.351 -13.537   7.474  1.00  0.00    -0.192 N 
HETATM    4  C   UNL     1      43.623 -12.491   6.668  1.00  0.00     0.725 A 
HETATM    5  N   UNL     1      43.464 -12.625   5.315  1.00  0.00    -0.082 N 
HETATM    6  N   UNL     1      43.920 -11.531   4.660  1.00  0.00    -0.149 NA
HETATM    7  C   UNL     1      44.254 -10.749   5.693  1.00  0.00     0.275 A 
HETATM    8  N   UNL     1      44.093 -11.300   6.938  1.00  0.00    -0.054 NA
HETATM    9  C   UNL     1      43.000 -13.847   4.659  1.00  0.00     0.221 A 
HETATM   10  C   UNL     1      42.848 -14.982   5.662  1.00  0.00     0.064 A 
HETATM   11  H   UNL     1      43.548 -13.444   8.467  1.00  0.00     0.184 HD
ENDROOT
BRANCH  10  12
HETATM   12  C   UNL     1      42.546 -16.291   5.036  1.00  0.00     0.256 C 
HETATM   13  N   UNL     1      43.670 -17.015   4.718  1.00  0.00    -0.322 N 
HETATM   14  H   UNL     1      44.559 -16.628   5.016  1.00  0.00     0.169 HD
HETATM   15  O   UNL     1      41.377 -16.626   4.895  1.00  0.00    -0.267 OA
BRANCH  13  16
HETATM   16  C   UNL     1      43.709 -18.260   4.058  1.00  0.00     0.052 A 
HETATM   17  C   UNL     1      44.099 -19.463   4.640  1.00  0.00     0.145 A 
HETATM   18  N   UNL     1      44.110 -20.656   3.988  1.00  0.00    -0.271 NA
HETATM   19  C   UNL     1      43.711 -20.652   2.700  1.00  0.00     0.116 A 
HETATM   20  C   UNL     1      43.304 -19.512   2.030  1.00  0.00     0.021 A 
HETATM   21  C   UNL     1      43.309 -18.300   2.720  1.00  0.00     0.032 A 
ENDBRANCH  13  16
ENDBRANCH  10  12
BRANCH   9  22
HETATM   22  C   UNL     1      41.704 -13.549   3.912  1.00  0.00     0.064 A 
HETATM   23  N   UNL     1      41.651 -13.809   2.573  1.00  0.00    -0.263 NA
HETATM   24  C   UNL     1      40.482 -13.565   1.938  1.00  0.00     0.117 A 
HETATM   25  C   UNL     1      39.354 -13.062   2.561  1.00  0.00     0.019 A 
HETATM   26  C   UNL     1      39.420 -12.796   3.923  1.00  0.00     0.003 A 
HETATM   27  C   UNL     1      40.604 -13.044   4.610  1.00  0.00     0.030 A 
ENDBRANCH   9  22
TORSDOF 3
ENDMDL
MODEL 2
REMARK VINA RESULT:      -7.9      2.048      4.519
REMARK  3 active torsions:
REMARK  status: ('A' for Active; 'I' for Inactive)
REMARK    1  A    between atoms: C_9  and  C_10 
REMARK    2  A    between atoms: C_16  and  C_17 
REMARK       I    between atoms: C_17  and  N_18 
REMARK    3  A    between atoms: N_18  and  C_19 
ROOT
HETATM    1  C   UNL     1      39.935 -15.363   0.558  1.00  0.00     0.070 C 
HETATM    2  C   UNL     1      39.906 -14.212   1.530  1.00  0.00     0.037 A 
HETATM    3  N   UNL     1      39.334 -13.036   1.058  1.00  0.00    -0.192 N 
HETATM    4  C   UNL     1      39.067 -11.979   1.851  1.00  0.00     0.725 A 
HETATM    5  N   UNL     1      39.478 -11.996   3.157  1.00  0.00    -0.082 N 
HETATM    6  N   UNL     1      38.998 -10.927   3.833  1.00  0.00    -0.149 NA
HETATM    7  C   UNL     1      38.382 -10.268   2.844  1.00  0.00     0.275 A 
HETATM    8  N   UNL     1      38.396 -10.880   1.618  1.00  0.00    -0.054 NA
HETATM    9  C   UNL     1      40.215 -13.100   3.772  1.00  0.00     0.221 A 
HETATM   10  C   UNL     1      40.343 -14.274   2.811  1.00  0.00     0.064 A 
HETATM   11  H   UNL     1      38.955 -13.039   0.115  1.00  0.00     0.184 HD
ENDROOT
BRANCH  10  12
HETATM   12  C   UNL     1      40.929 -15.486   3.431  1.00  0.00     0.256 C 
HETATM   13  N   UNL     1      42.198 -15.767   2.983  1.00  0.00    -0.322 N 
HETATM   14  H   UNL     1      42.621 -15.087   2.361  1.00  0.00     0.169 HD
HETATM   15  O   UNL     1      40.286 -16.088   4.281  1.00  0.00    -0.267 OA
BRANCH  13  16
HETATM   16  C   UNL     1      42.986 -16.881   3.336  1.00  0.00     0.052 A 
HETATM   17  C   UNL     1      43.737 -16.995   4.503  1.00  0.00     0.145 A 
HETATM   18  N   UNL     1      44.474 -18.089   4.830  1.00  0.00    -0.271 NA
HETATM   19  C   UNL     1      44.461 -19.118   3.958  1.00  0.00     0.116 A 
HETATM   20  C   UNL     1      43.749 -19.105   2.773  1.00  0.00     0.021 A 
HETATM   21  C   UNL     1      43.006 -17.968   2.458  1.00  0.00     0.032 A 
ENDBRANCH  13  16
ENDBRANCH  10  12
BRANCH   9  22
HETATM   22  C   UNL     1      41.568 -12.587   4.254  1.00  0.00     0.064 A 
HETATM   23  N   UNL     1      41.847 -12.644   5.589  1.00  0.00    -0.263 NA
HETATM   24  C   UNL     1      43.064 -12.210   5.989  1.00  0.00     0.117 A 
HETATM   25  C   UNL     1      44.027 -11.710   5.131  1.00  0.00     0.019 A 
HETATM   26  C   UNL     1      43.732 -11.653   3.775  1.00  0.00     0.003 A 
HETATM   27  C   UNL     1      42.491 -12.098   3.327  1.00  0.00     0.030 A 
ENDBRANCH   9  22
TORSDOF 3
ENDMDL
MODEL 3
REMARK VINA RESULT:      -7.8      3.027      6.119
REMARK  3 active torsions:
REMARK  status: ('A' for Active; 'I' for Inactive)
REMARK    1  A    between atoms: C_9  and  C_10 
REMARK    2  A    between atoms: C_16  and  C_17 
REMARK       I    between atoms: C_17  and  N_18 
REMARK    3  A    between atoms: N_18  and  C_19 
ROOT
HETATM    1  C   UNL     1      41.501 -10.046   1.192  1.00  0.00     0.070 C 
HETATM    2  C   UNL     1      41.876 -11.076   2.226  1.00  0.00     0.037 A 
HETATM    3  N   UNL     1      42.926 -10.730   3.071  1.00  0.00    -0.192 N 
HETATM    4  C   UNL     1      43.263 -11.454   4.156  1.00  0.00     0.725 A 
HETATM    5  N   UNL     1      42.639 -12.650   4.390  1.00  0.00    -0.082 N 
HETATM    6  N   UNL     1      42.997 -13.161   5.591  1.00  0.00    -0.149 NA
HETATM    7  C   UNL     1      43.905 -12.259   5.979  1.00  0.00     0.275 A 
HETATM    8  N   UNL     1      44.094 -11.197   5.133  1.00  0.00    -0.054 NA
HETATM    9  C   UNL     1      41.611 -13.223   3.520  1.00  0.00     0.221 A 
HETATM   10  C   UNL     1      41.237 -12.256   2.406  1.00  0.00     0.064 A 
HETATM   11  H   UNL     1      43.343  -9.811   2.956  1.00  0.00     0.184 HD
ENDROOT
BRANCH  10  12
HETATM   12  C   UNL     1      40.082 -12.707   1.593  1.00  0.00     0.256 C 
HETATM   13  N   UNL     1      40.382 -12.864   0.261  1.00  0.00    -0.322 N 
HETATM   14  H   UNL     1      41.353 -12.743  -0.003  1.00  0.00     0.169 HD
HETATM   15  O   UNL     1      39.016 -12.933   2.151  1.00  0.00    -0.267 OA
BRANCH  13  16
HETATM   16  C   UNL     1      39.484 -13.217  -0.767  1.00  0.00     0.052 A 
HETATM   17  C   UNL     1      38.428 -12.429  -1.216  1.00  0.00     0.145 A 
HETATM   18  N   UNL     1      37.587 -12.784  -2.223  1.00  0.00    -0.271 NA
HETATM   19  C   UNL     1      37.809 -13.976  -2.813  1.00  0.00     0.116 A 
HETATM   20  C   UNL     1      38.830 -14.832  -2.443  1.00  0.00     0.021 A 
HETATM   21  C   UNL     1      39.674 -14.447  -1.402  1.00  0.00     0.032 A 
ENDBRANCH  13  16
ENDBRANCH  10  12
BRANCH   9  22
HETATM   22  C   UNL     1      42.102 -14.567   2.990  1.00  0.00     0.064 A 
HETATM   23  N   UNL     1      41.499 -15.704   3.445  1.00  0.00    -0.263 NA
HETATM   24  C   UNL     1      41.931 -16.881   2.938  1.00  0.00     0.117 A 
HETATM   25  C   UNL     1      42.944 -16.996   2.003  1.00  0.00     0.019 A 
HETATM   26  C   UNL     1      43.553 -15.832   1.550  1.00  0.00     0.003 A 
HETATM   27  C   UNL     1      43.129 -14.603   2.044  1.00  0.00     0.030 A 
ENDBRANCH   9  22
TORSDOF 3
ENDMDL
MODEL 4
REMARK VINA RESULT:      -7.3      1.767      2.088
REMARK  3 active torsions:
REMARK  status: ('A' for Active; 'I' for Inactive)
REMARK    1  A    between atoms: C_9  and  C_10 
REMARK    2  A    between atoms: C_16  and  C_17 
REMARK       I    between atoms: C_17  and  N_18 
REMARK    3  A    between atoms: N_18  and  C_19 
ROOT
HETATM    1  C   UNL     1      40.301 -15.408   6.866  1.00  0.00     0.070 C 
HETATM    2  C   UNL     1      40.780 -14.314   5.948  1.00  0.00     0.037 A 
HETATM    3  N   UNL     1      40.719 -13.023   6.462  1.00  0.00    -0.192 N 
HETATM    4  C   UNL     1      41.274 -11.960   5.846  1.00  0.00     0.725 A 
HETATM    5  N   UNL     1      41.819 -12.113   4.600  1.00  0.00    -0.082 N 
HETATM    6  N   UNL     1      42.454 -10.985   4.204  1.00  0.00    -0.149 NA
HETATM    7  C   UNL     1      42.169 -10.172   5.227  1.00  0.00     0.275 A 
HETATM    8  N   UNL     1      41.454 -10.731   6.254  1.00  0.00    -0.054 NA
HETATM    9  C   UNL     1      41.839 -13.376   3.861  1.00  0.00     0.221 A 
HETATM   10  C   UNL     1      41.297 -14.516   4.712  1.00  0.00     0.064 A 
HETATM   11  H   UNL     1      40.389 -12.909   7.416  1.00  0.00     0.184 HD
ENDROOT
BRANCH  10  12
HETATM   12  C   UNL     1      41.448 -15.849   4.083  1.00  0.00     0.256 C 
HETATM   13  N   UNL     1      42.653 -16.449   4.362  1.00  0.00    -0.322 N 
HETATM   14  H   UNL     1      43.257 -15.970   5.020  1.00  0.00     0.169 HD
HETATM   15  O   UNL     1      40.519 -16.307   3.430  1.00  0.00    -0.267 OA
BRANCH  13  16
HETATM   16  C   UNL     1      43.114 -17.683   3.860  1.00  0.00     0.052 A 
HETATM   17  C   UNL     1      43.814 -18.636   4.594  1.00  0.00     0.145 A 
HETATM   18  N   UNL     1      44.231 -19.829   4.092  1.00  0.00    -0.271 NA
HETATM   19  C   UNL     1      43.935 -20.086   2.802  1.00  0.00     0.116 A 
HETATM   20  C   UNL     1      43.244 -19.206   1.987  1.00  0.00     0.021 A 
HETATM   21  C   UNL     1      42.833 -17.988   2.525  1.00  0.00     0.032 A 
ENDBRANCH  13  16
ENDBRANCH  10  12
BRANCH   9  22
HETATM   22  C   UNL     1      41.066 -13.200   2.557  1.00  0.00     0.064 A 
HETATM   23  N   UNL     1      39.815 -12.657   2.611  1.00  0.00    -0.263 NA
HETATM   24  C   UNL     1      39.162 -12.484   1.440  1.00  0.00     0.117 A 
HETATM   25  C   UNL     1      39.680 -12.833   0.206  1.00  0.00     0.019 A 
HETATM   26  C   UNL     1      40.952 -13.389   0.163  1.00  0.00     0.003 A 
HETATM   27  C   UNL     1      41.657 -13.574   1.348  1.00  0.00     0.030 A 
ENDBRANCH   9  22
TORSDOF 3
ENDMDL
MODEL 5
REMARK VINA RESULT:      -7.2      3.060      6.998
REMARK  3 active torsions:
REMARK  status: ('A' for Active; 'I' for Inactive)
REMARK    1  A    between atoms: C_9  and  C_10 
REMARK    2  A    between atoms: C_16  and  C_17 
REMARK       I    between atoms: C_17  and  N_18 
REMARK    3  A    between atoms: N_18  and  C_19 
ROOT
HETATM    1  C   UNL     1      39.032 -10.389   2.453  1.00  0.00     0.070 C 
HETATM    2  C   UNL     1      39.513 -11.538   1.605  1.00  0.00     0.037 A 
HETATM    3  N   UNL     1      38.635 -11.971   0.617  1.00  0.00    -0.192 N 
HETATM    4  C   UNL     1      38.982 -12.857  -0.337  1.00  0.00     0.725 A 
HETATM    5  N   UNL     1      40.208 -13.464  -0.279  1.00  0.00    -0.082 N 
HETATM    6  N   UNL     1      40.438 -14.205  -1.388  1.00  0.00    -0.149 NA
HETATM    7  C   UNL     1      39.269 -14.065  -2.023  1.00  0.00     0.275 A 
HETATM    8  N   UNL     1      38.353 -13.244  -1.417  1.00  0.00    -0.054 NA
HETATM    9  C   UNL     1      41.194 -13.224   0.774  1.00  0.00     0.221 A 
HETATM   10  C   UNL     1      40.733 -12.118   1.713  1.00  0.00     0.064 A 
HETATM   11  H   UNL     1      37.755 -11.473   0.515  1.00  0.00     0.184 HD
ENDROOT
BRANCH  10  12
HETATM   12  C   UNL     1      41.761 -11.710   2.699  1.00  0.00     0.256 C 
HETATM   13  N   UNL     1      41.631 -12.341   3.914  1.00  0.00    -0.322 N 
HETATM   14  H   UNL     1      40.921 -13.062   3.978  1.00  0.00     0.169 HD
HETATM   15  O   UNL     1      42.627 -10.915   2.359  1.00  0.00    -0.267 OA
BRANCH  13  16
HETATM   16  C   UNL     1      42.414 -12.118   5.065  1.00  0.00     0.052 A 
HETATM   17  C   UNL     1      42.366 -10.974   5.858  1.00  0.00     0.145 A 
HETATM   18  N   UNL     1      43.117 -10.790   6.976  1.00  0.00    -0.271 NA
HETATM   19  C   UNL     1      43.951 -11.791   7.323  1.00  0.00     0.116 A 
HETATM   20  C   UNL     1      44.073 -12.967   6.604  1.00  0.00     0.021 A 
HETATM   21  C   UNL     1      43.296 -13.127   5.458  1.00  0.00     0.032 A 
ENDBRANCH  13  16
ENDBRANCH  10  12
BRANCH   9  22
HETATM   22  C   UNL     1      41.471 -14.534   1.505  1.00  0.00     0.064 A 
HETATM   23  N   UNL     1      40.502 -15.038   2.324  1.00  0.00    -0.263 NA
HETATM   24  C   UNL     1      40.758 -16.216   2.938  1.00  0.00     0.117 A 
HETATM   25  C   UNL     1      41.937 -16.924   2.791  1.00  0.00     0.019 A 
HETATM   26  C   UNL     1      42.918 -16.400   1.959  1.00  0.00     0.003 A 
HETATM   27  C   UNL     1      42.685 -15.194   1.305  1.00  0.00     0.030 A 
ENDBRANCH   9  22
TORSDOF 3
ENDMDL
MODEL 6
REMARK VINA RESULT:      -7.1      2.168      4.156
REMARK  3 active torsions:
REMARK  status: ('A' for Active; 'I' for Inactive)
REMARK    1  A    between atoms: C_9  and  C_10 
REMARK    2  A    between atoms: C_16  and  C_17 
REMARK       I    between atoms: C_17  and  N_18 
REMARK    3  A    between atoms: N_18  and  C_19 
ROOT
HETATM    1  C   UNL     1      39.419 -13.612   2.639  1.00  0.00     0.070 C 
HETATM    2  C   UNL     1      39.942 -12.718   3.733  1.00  0.00     0.037 A 
HETATM    3  N   UNL     1      39.497 -11.401   3.704  1.00  0.00    -0.192 N 
HETATM    4  C   UNL     1      39.722 -10.527   4.705  1.00  0.00     0.725 A 
HETATM    5  N   UNL     1      40.527 -10.893   5.750  1.00  0.00    -0.082 N 
HETATM    6  N   UNL     1      40.520  -9.952   6.723  1.00  0.00    -0.149 NA
HETATM    7  C   UNL     1      39.760  -9.013   6.150  1.00  0.00     0.275 A 
HETATM    8  N   UNL     1      39.247  -9.327   4.918  1.00  0.00    -0.054 NA
HETATM    9  C   UNL     1      41.187 -12.194   5.863  1.00  0.00     0.221 A 
HETATM   10  C   UNL     1      40.754 -13.125   4.739  1.00  0.00     0.064 A 
HETATM   11  H   UNL     1      38.836 -11.141   2.977  1.00  0.00     0.184 HD
ENDROOT
BRANCH  10  12
HETATM   12  C   UNL     1      41.255 -14.512   4.892  1.00  0.00     0.256 C 
HETATM   13  N   UNL     1      42.303 -14.808   4.053  1.00  0.00    -0.322 N 
HETATM   14  H   UNL     1      42.669 -14.043   3.496  1.00  0.00     0.169 HD
HETATM   15  O   UNL     1      40.749 -15.235   5.740  1.00  0.00    -0.267 OA
BRANCH  13  16
HETATM   16  C   UNL     1      42.947 -16.054   3.920  1.00  0.00     0.052 A 
HETATM   17  C   UNL     1      43.783 -16.631   4.872  1.00  0.00     0.145 A 
HETATM   18  N   UNL     1      44.378 -17.845   4.729  1.00  0.00    -0.271 NA
HETATM   19  C   UNL     1      44.125 -18.518   3.588  1.00  0.00     0.116 A 
HETATM   20  C   UNL     1      43.310 -18.034   2.581  1.00  0.00     0.021 A 
HETATM   21  C   UNL     1      42.718 -16.783   2.750  1.00  0.00     0.032 A 
ENDBRANCH  13  16
ENDBRANCH  10  12
BRANCH   9  22
HETATM   22  C   UNL     1      42.697 -11.983   5.899  1.00  0.00     0.064 A 
HETATM   23  N   UNL     1      43.336 -11.657   4.738  1.00  0.00    -0.263 NA
HETATM   24  C   UNL     1      44.670 -11.446   4.800  1.00  0.00     0.117 A 
HETATM   25  C   UNL     1      45.417 -11.552   5.960  1.00  0.00     0.019 A 
HETATM   26  C   UNL     1      44.758 -11.889   7.135  1.00  0.00     0.003 A 
HETATM   27  C   UNL     1      43.383 -12.105   7.110  1.00  0.00     0.030 A 
ENDBRANCH   9  22
TORSDOF 3
ENDMDL
MODEL 7
REMARK VINA RESULT:      -7.0      2.213      5.425
REMARK  3 active torsions:
REMARK  status: ('A' for Active; 'I' for Inactive)
REMARK    1  A    between atoms: C_9  and  C_10 
REMARK    2  A    between atoms: C_16  and  C_17 
REMARK       I    between atoms: C_17  and  N_18 
REMARK    3  A    between atoms: N_18  and  C_19 
ROOT
HETATM    1  C   UNL     1      42.445 -11.103   4.211  1.00  0.00     0.070 C 
HETATM    2  C   UNL     1      42.378 -12.504   4.762  1.00  0.00     0.037 A 
HETATM    3  N   UNL     1      43.125 -12.739   5.911  1.00  0.00    -0.192 N 
HETATM    4  C   UNL     1      43.032 -13.876   6.628  1.00  0.00     0.725 A 
HETATM    5  N   UNL     1      42.265 -14.908   6.157  1.00  0.00    -0.082 N 
HETATM    6  N   UNL     1      42.172 -15.902   7.071  1.00  0.00    -0.149 NA
HETATM    7  C   UNL     1      42.981 -15.433   8.027  1.00  0.00     0.275 A 
HETATM    8  N   UNL     1      43.523 -14.194   7.798  1.00  0.00    -0.054 NA
HETATM    9  C   UNL     1      41.527 -14.874   4.895  1.00  0.00     0.221 A 
HETATM   10  C   UNL     1      41.616 -13.499   4.247  1.00  0.00     0.064 A 
HETATM   11  H   UNL     1      43.635 -11.957   6.312  1.00  0.00     0.184 HD
ENDROOT
BRANCH  10  12
HETATM   12  C   UNL     1      40.750 -13.349   3.054  1.00  0.00     0.256 C 
HETATM   13  N   UNL     1      41.404 -13.602   1.871  1.00  0.00    -0.322 N 
HETATM   14  H   UNL     1      42.357 -13.940   1.943  1.00  0.00     0.169 HD
HETATM   15  O   UNL     1      39.569 -13.066   3.209  1.00  0.00    -0.267 OA
BRANCH  13  16
HETATM   16  C   UNL     1      40.869 -13.481   0.573  1.00  0.00     0.052 A 
HETATM   17  C   UNL     1      40.171 -14.478  -0.103  1.00  0.00     0.145 A 
HETATM   18  N   UNL     1      39.647 -14.331  -1.349  1.00  0.00    -0.271 NA
HETATM   19  C   UNL     1      39.824 -13.136  -1.948  1.00  0.00     0.116 A 
HETATM   20  C   UNL     1      40.501 -12.081  -1.363  1.00  0.00     0.021 A 
HETATM   21  C   UNL     1      41.034 -12.261  -0.088  1.00  0.00     0.032 A 
ENDBRANCH  13  16
ENDBRANCH  10  12
BRANCH   9  22
HETATM   22  C   UNL     1      42.045 -15.984   3.986  1.00  0.00     0.064 A 
HETATM   23  N   UNL     1      41.217 -16.466   3.013  1.00  0.00    -0.263 NA
HETATM   24  C   UNL     1      41.708 -17.429   2.200  1.00  0.00     0.117 A 
HETATM   25  C   UNL     1      42.984 -17.953   2.305  1.00  0.00     0.019 A 
HETATM   26  C   UNL     1      43.816 -17.458   3.301  1.00  0.00     0.003 A 
HETATM   27  C   UNL     1      43.346 -16.461   4.151  1.00  0.00     0.030 A 
ENDBRANCH   9  22
TORSDOF 3
ENDMDL
MODEL 8
REMARK VINA RESULT:      -7.0      2.245      6.188
REMARK  3 active torsions:
REMARK  status: ('A' for Active; 'I' for Inactive)
REMARK    1  A    between atoms: C_9  and  C_10 
REMARK    2  A    between atoms: C_16  and  C_17 
REMARK       I    between atoms: C_17  and  N_18 
REMARK    3  A    between atoms: N_18  and  C_19 
ROOT
HETATM    1  C   UNL     1      43.404 -13.508   7.182  1.00  0.00     0.070 C 
HETATM    2  C   UNL     1      43.084 -14.562   6.153  1.00  0.00     0.037 A 
HETATM    3  N   UNL     1      44.097 -15.476   5.887  1.00  0.00    -0.192 N 
HETATM    4  C   UNL     1      43.912 -16.579   5.136  1.00  0.00     0.725 A 
HETATM    5  N   UNL     1      42.716 -16.766   4.496  1.00  0.00    -0.082 N 
HETATM    6  N   UNL     1      42.660 -17.987   3.915  1.00  0.00    -0.149 NA
HETATM    7  C   UNL     1      43.892 -18.438   4.173  1.00  0.00     0.275 A 
HETATM    8  N   UNL     1      44.688 -17.611   4.922  1.00  0.00    -0.054 NA
HETATM    9  C   UNL     1      41.595 -15.828   4.560  1.00  0.00     0.221 A 
HETATM   10  C   UNL     1      41.886 -14.694   5.533  1.00  0.00     0.064 A 
HETATM   11  H   UNL     1      44.961 -15.392   6.415  1.00  0.00     0.184 HD
ENDROOT
BRANCH  10  12
HETATM   12  C   UNL     1      40.725 -13.805   5.771  1.00  0.00     0.256 C 
HETATM   13  N   UNL     1      40.769 -12.643   5.036  1.00  0.00    -0.322 N 
HETATM   14  H   UNL     1      41.523 -12.560   4.364  1.00  0.00     0.169 HD
HETATM   15  O   UNL     1      39.841 -14.173   6.534  1.00  0.00    -0.267 OA
BRANCH  13  16
HETATM   16  C   UNL     1      39.848 -11.578   5.093  1.00  0.00     0.052 A 
HETATM   17  C   UNL     1      39.304 -11.049   6.260  1.00  0.00     0.145 A 
HETATM   18  N   UNL     1      38.431 -10.007   6.289  1.00  0.00    -0.271 NA
HETATM   19  C   UNL     1      38.088  -9.464   5.104  1.00  0.00     0.116 A 
HETATM   20  C   UNL     1      38.572  -9.915   3.889  1.00  0.00     0.021 A 
HETATM   21  C   UNL     1      39.460 -10.989   3.886  1.00  0.00     0.032 A 
ENDBRANCH  13  16
ENDBRANCH  10  12
BRANCH   9  22
HETATM   22  C   UNL     1      41.286 -15.327   3.153  1.00  0.00     0.064 A 
HETATM   23  N   UNL     1      42.088 -14.362   2.616  1.00  0.00    -0.263 NA
HETATM   24  C   UNL     1      41.812 -13.954   1.356  1.00  0.00     0.117 A 
HETATM   25  C   UNL     1      40.768 -14.448   0.595  1.00  0.00     0.019 A 
HETATM   26  C   UNL     1      39.955 -15.427   1.152  1.00  0.00     0.003 A 
HETATM   27  C   UNL     1      40.215 -15.876   2.443  1.00  0.00     0.030 A 
ENDBRANCH   9  22
TORSDOF 3
ENDMDL
MODEL 9
REMARK VINA RESULT:      -7.0      3.779      5.897
REMARK  3 active torsions:
REMARK  status: ('A' for Active; 'I' for Inactive)
REMARK    1  A    between atoms: C_9  and  C_10 
REMARK    2  A    between atoms: C_16  and  C_17 
REMARK       I    between atoms: C_17  and  N_18 
REMARK    3  A    between atoms: N_18  and  C_19 
ROOT
HETATM    1  C   UNL     1      40.157 -10.942   3.417  1.00  0.00     0.070 C 
HETATM    2  C   UNL     1      40.376 -10.934   1.926  1.00  0.00     0.037 A 
HETATM    3  N   UNL     1      40.359  -9.683   1.319  1.00  0.00    -0.192 N 
HETATM    4  C   UNL     1      40.718  -9.485   0.035  1.00  0.00     0.725 A 
HETATM    5  N   UNL     1      40.998 -10.564  -0.760  1.00  0.00    -0.082 N 
HETATM    6  N   UNL     1      41.477 -10.171  -1.963  1.00  0.00    -0.149 NA
HETATM    7  C   UNL     1      41.372  -8.843  -1.847  1.00  0.00     0.275 A 
HETATM    8  N   UNL     1      40.917  -8.382  -0.639  1.00  0.00    -0.054 NA
HETATM    9  C   UNL     1      40.926 -11.955  -0.313  1.00  0.00     0.221 A 
HETATM   10  C   UNL     1      40.633 -12.035   1.179  1.00  0.00     0.064 A 
HETATM   11  H   UNL     1      40.231  -8.870   1.914  1.00  0.00     0.184 HD
ENDROOT
BRANCH  10  12
HETATM   12  C   UNL     1      40.716 -13.409   1.727  1.00  0.00     0.256 C 
HETATM   13  N   UNL     1      41.992 -13.777   2.082  1.00  0.00    -0.322 N 
HETATM   14  H   UNL     1      42.707 -13.060   2.017  1.00  0.00     0.169 HD
HETATM   15  O   UNL     1      39.689 -14.062   1.852  1.00  0.00    -0.267 OA
BRANCH  13  16
HETATM   16  C   UNL     1      42.400 -15.035   2.570  1.00  0.00     0.052 A 
HETATM   17  C   UNL     1      42.325 -15.443   3.899  1.00  0.00     0.145 A 
HETATM   18  N   UNL     1      42.706 -16.671   4.342  1.00  0.00    -0.271 NA
HETATM   19  C   UNL     1      43.180 -17.533   3.420  1.00  0.00     0.116 A 
HETATM   20  C   UNL     1      43.294 -17.226   2.076  1.00  0.00     0.021 A 
HETATM   21  C   UNL     1      42.903 -15.958   1.649  1.00  0.00     0.032 A 
ENDBRANCH  13  16
ENDBRANCH  10  12
BRANCH   9  22
HETATM   22  C   UNL     1      39.890 -12.695  -1.153  1.00  0.00     0.064 A 
HETATM   23  N   UNL     1      38.605 -12.235  -1.152  1.00  0.00    -0.263 NA
HETATM   24  C   UNL     1      37.710 -12.889  -1.928  1.00  0.00     0.117 A 
HETATM   25  C   UNL     1      38.020 -13.991  -2.704  1.00  0.00     0.019 A 
HETATM   26  C   UNL     1      39.330 -14.454  -2.694  1.00  0.00     0.003 A 
HETATM   27  C   UNL     1      40.278 -13.800  -1.914  1.00  0.00     0.030 A 
ENDBRANCH   9  22
TORSDOF 3
ENDMDL
MODEL 10
REMARK VINA RESULT:      -6.9      2.709      5.173
REMARK  3 active torsions:
REMARK  status: ('A' for Active; 'I' for Inactive)
REMARK    1  A    between atoms: C_9  and  C_10 
REMARK    2  A    between atoms: C_16  and  C_17 
REMARK       I    between atoms: C_17  and  N_18 
REMARK    3  A    between atoms: N_18  and  C_19 
ROOT
HETATM    1  C   UNL     1      42.790 -15.806   1.205  1.00  0.00     0.070 C 
HETATM    2  C   UNL     1      41.762 -14.718   1.374  1.00  0.00     0.037 A 
HETATM    3  N   UNL     1      41.466 -13.981   0.233  1.00  0.00    -0.192 N 
HETATM    4  C   UNL     1      40.447 -13.102   0.169  1.00  0.00     0.725 A 
HETATM    5  N   UNL     1      39.733 -12.815   1.302  1.00  0.00    -0.082 N 
HETATM    6  N   UNL     1      38.666 -12.032   1.020  1.00  0.00    -0.149 NA
HETATM    7  C   UNL     1      38.857 -11.818  -0.286  1.00  0.00     0.275 A 
HETATM    8  N   UNL     1      39.931 -12.459  -0.847  1.00  0.00    -0.054 NA
HETATM    9  C   UNL     1      40.007 -13.399   2.615  1.00  0.00     0.221 A 
HETATM   10  C   UNL     1      41.094 -14.461   2.525  1.00  0.00     0.064 A 
HETATM   11  H   UNL     1      41.934 -14.240  -0.632  1.00  0.00     0.184 HD
ENDROOT
BRANCH  10  12
HETATM   12  C   UNL     1      41.298 -15.209   3.788  1.00  0.00     0.256 C 
HETATM   13  N   UNL     1      42.393 -14.784   4.502  1.00  0.00    -0.322 N 
HETATM   14  H   UNL     1      42.881 -13.970   4.144  1.00  0.00     0.169 HD
HETATM   15  O   UNL     1      40.492 -16.075   4.102  1.00  0.00    -0.267 OA
BRANCH  13  16
HETATM   16  C   UNL     1      42.880 -15.338   5.703  1.00  0.00     0.052 A 
HETATM   17  C   UNL     1      42.481 -14.958   6.982  1.00  0.00     0.145 A 
HETATM   18  N   UNL     1      42.952 -15.521   8.126  1.00  0.00    -0.271 NA
HETATM   19  C   UNL     1      43.857 -16.512   7.992  1.00  0.00     0.116 A 
HETATM   20  C   UNL     1      44.318 -16.964   6.768  1.00  0.00     0.021 A 
HETATM   21  C   UNL     1      43.824 -16.364   5.611  1.00  0.00     0.032 A 
ENDBRANCH  13  16
ENDBRANCH  10  12
BRANCH   9  22
HETATM   22  C   UNL     1      40.359 -12.282   3.592  1.00  0.00     0.064 A 
HETATM   23  N   UNL     1      41.560 -11.650   3.450  1.00  0.00    -0.263 NA
HETATM   24  C   UNL     1      41.838 -10.643   4.310  1.00  0.00     0.117 A 
HETATM   25  C   UNL     1      40.986 -10.230   5.319  1.00  0.00     0.019 A 
HETATM   26  C   UNL     1      39.768 -10.884   5.457  1.00  0.00     0.003 A 
HETATM   27  C   UNL     1      39.446 -11.919   4.585  1.00  0.00     0.030 A 
ENDBRANCH   9  22
TORSDOF 3
ENDMDL
