MODEL 1
REMARK VINA RESULT:      -9.0      0.000      0.000
REMARK  9 active torsions:
REMARK  status: ('A' for Active; 'I' for Inactive)
REMARK    1  A    between atoms: O_2  and  C_3 
REMARK    2  A    between atoms: C_4  and  O_5 
REMARK    3  A    between atoms: C_8  and  C_9 
REMARK    4  A    between atoms: C_9  and  N_10 
REMARK    5  A    between atoms: C_14  and  O_15 
REMARK    6  A    between atoms: C_14  and  C_16 
REMARK    7  A    between atoms: C_21  and  C_22 
REMARK       I    between atoms: C_22  and  N_23 
REMARK    8  A    between atoms: N_23  and  C_24 
REMARK    9  A    between atoms: C_24  and  C_25 
ROOT
HETATM    1  N   UNL     1      39.685 -14.159   1.792  1.00  0.00    -0.067 N 
HETATM    2  H   UNL     1      38.931 -14.092   1.097  1.00  0.00     0.280 HD
HETATM    3  C   UNL     1      39.251 -13.339   2.986  1.00  0.00     0.238 C 
HETATM    4  C   UNL     1      39.159 -11.868   2.605  1.00  0.00     0.071 C 
HETATM    5  C   UNL     1      40.504 -11.325   2.085  1.00  0.00     0.088 C 
HETATM    6  C   UNL     1      40.829 -12.163   0.831  1.00  0.00     0.071 C 
HETATM    7  C   UNL     1      40.953 -13.643   1.151  1.00  0.00     0.238 C 
ENDROOT
BRANCH   5   8
HETATM    8  O   UNL     1      40.264  -9.992   1.634  1.00  0.00    -0.385 OA
HETATM    9  H   UNL     1      40.243  -9.385   2.397  1.00  0.00     0.211 HD
ENDBRANCH   5   8
BRANCH   5  10
HETATM   10  C   UNL     1      41.622 -11.284   3.138  1.00  0.00    -0.023 A 
HETATM   11  C   UNL     1      41.369 -10.815   4.449  1.00  0.00     0.024 A 
HETATM   12  C   UNL     1      42.375 -10.880   5.432  1.00  0.00     0.001 A 
HETATM   13  C   UNL     1      43.625 -11.353   5.072  1.00  0.00     0.086 A 
HETATM   14  C   UNL     1      42.460 -10.574   6.814  1.00  0.00     0.057 A 
HETATM   15  O   UNL     1      44.453 -11.383   6.149  1.00  0.00    -0.304 OA
HETATM   16  C   UNL     1      43.962 -11.737   3.780  1.00  0.00     0.039 A 
HETATM   17  C   UNL     1      43.736 -10.917   7.222  1.00  0.00     0.144 A 
HETATM   18  C   UNL     1      42.938 -11.682   2.821  1.00  0.00     0.013 A 
BRANCH  17  19
HETATM   19  C   UNL     1      44.347 -10.881   8.534  1.00  0.00     0.275 C 
HETATM   20  N   UNL     1      43.449 -10.755   9.566  1.00  0.00    -0.353 N 
HETATM   21  H   UNL     1      42.472 -10.619   9.329  1.00  0.00     0.162 HD
HETATM   22  O   UNL     1      45.561 -10.918   8.708  1.00  0.00    -0.265 OA
BRANCH  20  23
HETATM   23  C   UNL     1      43.837 -10.534  10.945  1.00  0.00     0.155 C 
BRANCH  23  24
HETATM   24  C   UNL     1      42.760  -9.806  11.766  1.00  0.00     0.139 C 
HETATM   25  O   UNL     1      41.669  -9.430  10.895  1.00  0.00    -0.384 OA
HETATM   26  C   UNL     1      41.356  -8.055  11.141  1.00  0.00     0.168 C 
HETATM   27  C   UNL     1      42.633  -7.425  11.647  1.00  0.00     0.029 C 
HETATM   28  C   UNL     1      43.227  -8.539  12.473  1.00  0.00     0.035 C 
ENDBRANCH  23  24
ENDBRANCH  20  23
ENDBRANCH  17  19
ENDBRANCH   5  10
BRANCH   1  29
HETATM   29  C   UNL     1      39.835 -15.640   2.114  1.00  0.00     0.273 C 
BRANCH  29  30
HETATM   30  C   UNL     1      41.104 -15.992   2.841  1.00  0.00    -0.030 A 
HETATM   31  C   UNL     1      41.957 -17.003   2.365  1.00  0.00     0.048 A 
HETATM   32  C   UNL     1      43.114 -17.379   3.072  1.00  0.00     0.102 A 
HETATM   33  C   UNL     1      43.423 -16.714   4.273  1.00  0.00     0.101 A 
HETATM   34  C   UNL     1      42.574 -15.699   4.734  1.00  0.00     0.040 A 
HETATM   35  C   UNL     1      41.428 -15.337   4.031  1.00  0.00     0.012 A 
BRANCH  32  36
HETATM   36  O   UNL     1      43.948 -18.378   2.658  1.00  0.00    -0.353 OA
HETATM   37  C   UNL     1      43.407 -19.657   2.357  1.00  0.00     0.210 C 
ENDBRANCH  32  36
BRANCH  33  38
HETATM   38  O   UNL     1      44.474 -16.919   5.124  1.00  0.00    -0.353 OA
HETATM   39  C   UNL     1      44.344 -16.565   6.492  1.00  0.00     0.210 C 
ENDBRANCH  33  38
ENDBRANCH  29  30
ENDBRANCH   1  29
TORSDOF 9
ENDMDL
MODEL 2
REMARK VINA RESULT:      -8.8      2.870     11.039
REMARK  9 active torsions:
REMARK  status: ('A' for Active; 'I' for Inactive)
REMARK    1  A    between atoms: O_2  and  C_3 
REMARK    2  A    between atoms: C_4  and  O_5 
REMARK    3  A    between atoms: C_8  and  C_9 
REMARK    4  A    between atoms: C_9  and  N_10 
REMARK    5  A    between atoms: C_14  and  O_15 
REMARK    6  A    between atoms: C_14  and  C_16 
REMARK    7  A    between atoms: C_21  and  C_22 
REMARK       I    between atoms: C_22  and  N_23 
REMARK    8  A    between atoms: N_23  and  C_24 
REMARK    9  A    between atoms: C_24  and  C_25 
ROOT
HETATM    1  N   UNL     1      43.517  -9.097  11.306  1.00  0.00    -0.067 N 
HETATM    2  H   UNL     1      44.086  -8.417  11.825  1.00  0.00     0.280 HD
HETATM    3  C   UNL     1      44.444 -10.223  10.903  1.00  0.00     0.238 C 
HETATM    4  C   UNL     1      45.488  -9.714   9.921  1.00  0.00     0.071 C 
HETATM    5  C   UNL     1      44.843  -9.116   8.656  1.00  0.00     0.088 C 
HETATM    6  C   UNL     1      43.982  -7.936   9.150  1.00  0.00     0.071 C 
HETATM    7  C   UNL     1      42.905  -8.385  10.122  1.00  0.00     0.238 C 
ENDROOT
BRANCH   5   8
HETATM    8  O   UNL     1      45.901  -8.553   7.880  1.00  0.00    -0.385 OA
HETATM    9  H   UNL     1      45.890  -8.935   6.982  1.00  0.00     0.211 HD
ENDBRANCH   5   8
BRANCH   5  10
HETATM   10  C   UNL     1      44.095 -10.136   7.783  1.00  0.00    -0.023 A 
HETATM   11  C   UNL     1      44.582 -11.456   7.627  1.00  0.00     0.024 A 
HETATM   12  C   UNL     1      43.832 -12.409   6.911  1.00  0.00     0.001 A 
HETATM   13  C   UNL     1      42.648 -12.009   6.315  1.00  0.00     0.086 A 
HETATM   14  C   UNL     1      43.969 -13.788   6.614  1.00  0.00     0.057 A 
HETATM   15  O   UNL     1      42.043 -13.061   5.703  1.00  0.00    -0.304 OA
HETATM   16  C   UNL     1      42.168 -10.706   6.350  1.00  0.00     0.039 A 
HETATM   17  C   UNL     1      42.846 -14.157   5.897  1.00  0.00     0.144 A 
HETATM   18  C   UNL     1      42.921  -9.778   7.087  1.00  0.00     0.013 A 
BRANCH  17  19
HETATM   19  C   UNL     1      42.430 -15.450   5.396  1.00  0.00     0.275 C 
HETATM   20  N   UNL     1      42.839 -15.710   4.111  1.00  0.00    -0.353 N 
HETATM   21  H   UNL     1      43.310 -14.968   3.605  1.00  0.00     0.162 HD
HETATM   22  O   UNL     1      41.740 -16.229   6.047  1.00  0.00    -0.265 OA
BRANCH  20  23
HETATM   23  C   UNL     1      42.405 -16.865   3.349  1.00  0.00     0.155 C 
BRANCH  23  24
HETATM   24  C   UNL     1      43.570 -17.756   2.888  1.00  0.00     0.139 C 
HETATM   25  O   UNL     1      43.054 -18.837   2.079  1.00  0.00    -0.384 OA
HETATM   26  C   UNL     1      43.628 -20.060   2.552  1.00  0.00     0.168 C 
HETATM   27  C   UNL     1      43.951 -19.828   4.010  1.00  0.00     0.029 C 
HETATM   28  C   UNL     1      44.390 -18.385   4.009  1.00  0.00     0.035 C 
ENDBRANCH  23  24
ENDBRANCH  20  23
ENDBRANCH  17  19
ENDBRANCH   5  10
BRANCH   1  29
HETATM   29  C   UNL     1      42.420  -9.548  12.262  1.00  0.00     0.273 C 
BRANCH  29  30
HETATM   30  C   UNL     1      41.965  -8.488  13.228  1.00  0.00    -0.030 A 
HETATM   31  C   UNL     1      40.606  -8.146  13.344  1.00  0.00     0.048 A 
HETATM   32  C   UNL     1      40.180  -7.114  14.201  1.00  0.00     0.102 A 
HETATM   33  C   UNL     1      41.141  -6.423  14.962  1.00  0.00     0.101 A 
HETATM   34  C   UNL     1      42.492  -6.777  14.849  1.00  0.00     0.040 A 
HETATM   35  C   UNL     1      42.905  -7.796  13.995  1.00  0.00     0.012 A 
BRANCH  32  36
HETATM   36  O   UNL     1      38.873  -6.733  14.315  1.00  0.00    -0.353 OA
HETATM   37  C   UNL     1      37.988  -6.948  13.225  1.00  0.00     0.210 C 
ENDBRANCH  32  36
BRANCH  33  38
HETATM   38  O   UNL     1      40.962  -5.388  15.838  1.00  0.00    -0.353 OA
HETATM   39  C   UNL     1      41.642  -5.402  17.084  1.00  0.00     0.210 C 
ENDBRANCH  33  38
ENDBRANCH  29  30
ENDBRANCH   1  29
TORSDOF 9
ENDMDL
MODEL 3
REMARK VINA RESULT:      -8.6      1.657      2.771
REMARK  9 active torsions:
REMARK  status: ('A' for Active; 'I' for Inactive)
REMARK    1  A    between atoms: O_2  and  C_3 
REMARK    2  A    between atoms: C_4  and  O_5 
REMARK    3  A    between atoms: C_8  and  C_9 
REMARK    4  A    between atoms: C_9  and  N_10 
REMARK    5  A    between atoms: C_14  and  O_15 
REMARK    6  A    between atoms: C_14  and  C_16 
REMARK    7  A    between atoms: C_21  and  C_22 
REMARK       I    between atoms: C_22  and  N_23 
REMARK    8  A    between atoms: N_23  and  C_24 
REMARK    9  A    between atoms: C_24  and  C_25 
ROOT
HETATM    1  N   UNL     1      41.733 -15.482   1.466  1.00  0.00    -0.067 N 
HETATM    2  H   UNL     1      41.232 -15.924   0.685  1.00  0.00     0.280 HD
HETATM    3  C   UNL     1      40.984 -15.850   2.728  1.00  0.00     0.238 C 
HETATM    4  C   UNL     1      39.596 -15.226   2.712  1.00  0.00     0.071 C 
HETATM    5  C   UNL     1      39.658 -13.691   2.594  1.00  0.00     0.088 C 
HETATM    6  C   UNL     1      40.364 -13.409   1.252  1.00  0.00     0.071 C 
HETATM    7  C   UNL     1      41.766 -13.992   1.213  1.00  0.00     0.238 C 
ENDROOT
BRANCH   5   8
HETATM    8  O   UNL     1      38.313 -13.234   2.451  1.00  0.00    -0.385 OA
HETATM    9  H   UNL     1      38.027 -12.790   3.272  1.00  0.00     0.211 HD
ENDBRANCH   5   8
BRANCH   5  10
HETATM   10  C   UNL     1      40.280 -12.985   3.808  1.00  0.00    -0.023 A 
HETATM   11  C   UNL     1      41.542 -13.382   4.313  1.00  0.00     0.024 A 
HETATM   12  C   UNL     1      42.147 -12.659   5.358  1.00  0.00     0.001 A 
HETATM   13  C   UNL     1      41.456 -11.598   5.918  1.00  0.00     0.086 A 
HETATM   14  C   UNL     1      43.383 -12.724   6.049  1.00  0.00     0.057 A 
HETATM   15  O   UNL     1      42.204 -10.996   6.881  1.00  0.00    -0.304 OA
HETATM   16  C   UNL     1      40.176 -11.222   5.532  1.00  0.00     0.039 A 
HETATM   17  C   UNL     1      43.392 -11.678   6.954  1.00  0.00     0.144 A 
HETATM   18  C   UNL     1      39.600 -11.944   4.475  1.00  0.00     0.013 A 
BRANCH  17  19
HETATM   19  C   UNL     1      44.423 -11.230   7.867  1.00  0.00     0.275 C 
HETATM   20  N   UNL     1      43.946 -10.800   9.081  1.00  0.00    -0.353 N 
HETATM   21  H   UNL     1      42.940 -10.755   9.206  1.00  0.00     0.162 HD
HETATM   22  O   UNL     1      45.612 -11.198   7.568  1.00  0.00    -0.265 OA
BRANCH  20  23
HETATM   23  C   UNL     1      44.772 -10.159  10.086  1.00  0.00     0.155 C 
BRANCH  23  24
HETATM   24  C   UNL     1      43.957  -9.561  11.244  1.00  0.00     0.139 C 
HETATM   25  O   UNL     1      42.862 -10.449  11.566  1.00  0.00    -0.384 OA
HETATM   26  C   UNL     1      41.665  -9.668  11.651  1.00  0.00     0.168 C 
HETATM   27  C   UNL     1      41.890  -8.470  10.757  1.00  0.00     0.029 C 
HETATM   28  C   UNL     1      43.355  -8.186  10.974  1.00  0.00     0.035 C 
ENDBRANCH  23  24
ENDBRANCH  20  23
ENDBRANCH  17  19
ENDBRANCH   5  10
BRANCH   1  29
HETATM   29  C   UNL     1      43.148 -16.044   1.434  1.00  0.00     0.273 C 
BRANCH  29  30
HETATM   30  C   UNL     1      43.447 -17.036   2.524  1.00  0.00    -0.030 A 
HETATM   31  C   UNL     1      43.705 -16.613   3.841  1.00  0.00     0.048 A 
HETATM   32  C   UNL     1      44.045 -17.531   4.852  1.00  0.00     0.102 A 
HETATM   33  C   UNL     1      44.113 -18.899   4.533  1.00  0.00     0.101 A 
HETATM   34  C   UNL     1      43.842 -19.313   3.222  1.00  0.00     0.040 A 
HETATM   35  C   UNL     1      43.512 -18.399   2.226  1.00  0.00     0.012 A 
BRANCH  32  36
HETATM   36  O   UNL     1      44.334 -17.153   6.133  1.00  0.00    -0.353 OA
HETATM   37  C   UNL     1      43.331 -16.522   6.915  1.00  0.00     0.210 C 
ENDBRANCH  32  36
BRANCH  33  38
HETATM   38  O   UNL     1      44.433 -19.956   5.341  1.00  0.00    -0.353 OA
HETATM   39  C   UNL     1      43.726 -21.178   5.204  1.00  0.00     0.210 C 
ENDBRANCH  33  38
ENDBRANCH  29  30
ENDBRANCH   1  29
TORSDOF 9
ENDMDL
MODEL 4
REMARK VINA RESULT:      -8.4      2.763     10.766
REMARK  9 active torsions:
REMARK  status: ('A' for Active; 'I' for Inactive)
REMARK    1  A    between atoms: O_2  and  C_3 
REMARK    2  A    between atoms: C_4  and  O_5 
REMARK    3  A    between atoms: C_8  and  C_9 
REMARK    4  A    between atoms: C_9  and  N_10 
REMARK    5  A    between atoms: C_14  and  O_15 
REMARK    6  A    between atoms: C_14  and  C_16 
REMARK    7  A    between atoms: C_21  and  C_22 
REMARK       I    between atoms: C_22  and  N_23 
REMARK    8  A    between atoms: N_23  and  C_24 
REMARK    9  A    between atoms: C_24  and  C_25 
ROOT
HETATM    1  N   UNL     1      43.186  -9.121  11.286  1.00  0.00    -0.067 N 
HETATM    2  H   UNL     1      43.549  -8.349  11.858  1.00  0.00     0.280 HD
HETATM    3  C   UNL     1      44.346 -10.059  11.033  1.00  0.00     0.238 C 
HETATM    4  C   UNL     1      45.401  -9.368  10.183  1.00  0.00     0.071 C 
HETATM    5  C   UNL     1      44.831  -8.898   8.831  1.00  0.00     0.088 C 
HETATM    6  C   UNL     1      43.713  -7.894   9.181  1.00  0.00     0.071 C 
HETATM    7  C   UNL     1      42.616  -8.532  10.016  1.00  0.00     0.238 C 
ENDROOT
BRANCH   5   8
HETATM    8  O   UNL     1      45.863  -8.151   8.185  1.00  0.00    -0.385 OA
HETATM    9  H   UNL     1      46.701  -8.259   8.671  1.00  0.00     0.211 HD
ENDBRANCH   5   8
BRANCH   5  10
HETATM   10  C   UNL     1      44.401 -10.036   7.892  1.00  0.00    -0.023 A 
HETATM   11  C   UNL     1      43.133 -10.021   7.265  1.00  0.00     0.024 A 
HETATM   12  C   UNL     1      42.794 -11.015   6.327  1.00  0.00     0.001 A 
HETATM   13  C   UNL     1      43.700 -12.033   6.082  1.00  0.00     0.086 A 
HETATM   14  C   UNL     1      41.682 -11.275   5.486  1.00  0.00     0.057 A 
HETATM   15  O   UNL     1      43.225 -12.875   5.126  1.00  0.00    -0.304 OA
HETATM   16  C   UNL     1      44.918 -12.155   6.737  1.00  0.00     0.039 A 
HETATM   17  C   UNL     1      41.992 -12.405   4.750  1.00  0.00     0.144 A 
HETATM   18  C   UNL     1      45.244 -11.142   7.653  1.00  0.00     0.013 A 
BRANCH  17  19
HETATM   19  C   UNL     1      41.257 -13.076   3.699  1.00  0.00     0.275 C 
HETATM   20  N   UNL     1      42.013 -13.379   2.593  1.00  0.00    -0.353 N 
HETATM   21  H   UNL     1      42.971 -13.047   2.570  1.00  0.00     0.162 HD
HETATM   22  O   UNL     1      40.056 -13.315   3.772  1.00  0.00    -0.265 OA
BRANCH  20  23
HETATM   23  C   UNL     1      41.458 -13.901   1.360  1.00  0.00     0.155 C 
BRANCH  23  24
HETATM   24  C   UNL     1      41.789 -15.385   1.130  1.00  0.00     0.139 C 
HETATM   25  O   UNL     1      40.978 -16.197   2.009  1.00  0.00    -0.384 OA
HETATM   26  C   UNL     1      41.835 -17.145   2.656  1.00  0.00     0.168 C 
HETATM   27  C   UNL     1      43.204 -16.506   2.692  1.00  0.00     0.029 C 
HETATM   28  C   UNL     1      43.243 -15.772   1.375  1.00  0.00     0.035 C 
ENDBRANCH  23  24
ENDBRANCH  20  23
ENDBRANCH  17  19
ENDBRANCH   5  10
BRANCH   1  29
HETATM   29  C   UNL     1      42.072  -9.764  12.102  1.00  0.00     0.273 C 
BRANCH  29  30
HETATM   30  C   UNL     1      41.494  -8.876  13.170  1.00  0.00    -0.030 A 
HETATM   31  C   UNL     1      40.403  -8.032  12.901  1.00  0.00     0.048 A 
HETATM   32  C   UNL     1      39.896  -7.154  13.878  1.00  0.00     0.102 A 
HETATM   33  C   UNL     1      40.493  -7.138  15.151  1.00  0.00     0.101 A 
HETATM   34  C   UNL     1      41.573  -7.991  15.415  1.00  0.00     0.040 A 
HETATM   35  C   UNL     1      42.072  -8.852  14.442  1.00  0.00     0.012 A 
BRANCH  32  36
HETATM   36  O   UNL     1      38.859  -6.297  13.642  1.00  0.00    -0.353 OA
HETATM   37  C   UNL     1      37.665  -6.795  13.054  1.00  0.00     0.210 C 
ENDBRANCH  32  36
BRANCH  33  38
HETATM   38  O   UNL     1      40.181  -6.367  16.238  1.00  0.00    -0.353 OA
HETATM   39  C   UNL     1      39.922  -6.991  17.485  1.00  0.00     0.210 C 
ENDBRANCH  33  38
ENDBRANCH  29  30
ENDBRANCH   1  29
TORSDOF 9
ENDMDL
MODEL 5
REMARK VINA RESULT:      -8.4      2.793     10.964
REMARK  9 active torsions:
REMARK  status: ('A' for Active; 'I' for Inactive)
REMARK    1  A    between atoms: O_2  and  C_3 
REMARK    2  A    between atoms: C_4  and  O_5 
REMARK    3  A    between atoms: C_8  and  C_9 
REMARK    4  A    between atoms: C_9  and  N_10 
REMARK    5  A    between atoms: C_14  and  O_15 
REMARK    6  A    between atoms: C_14  and  C_16 
REMARK    7  A    between atoms: C_21  and  C_22 
REMARK       I    between atoms: C_22  and  N_23 
REMARK    8  A    between atoms: N_23  and  C_24 
REMARK    9  A    between atoms: C_24  and  C_25 
ROOT
HETATM    1  N   UNL     1      43.009  -8.987  11.467  1.00  0.00    -0.067 N 
HETATM    2  H   UNL     1      43.527  -8.336  12.070  1.00  0.00     0.280 HD
HETATM    3  C   UNL     1      43.978 -10.082  11.076  1.00  0.00     0.238 C 
HETATM    4  C   UNL     1      45.094  -9.508  10.214  1.00  0.00     0.071 C 
HETATM    5  C   UNL     1      44.547  -8.840   8.938  1.00  0.00     0.088 C 
HETATM    6  C   UNL     1      43.636  -7.696   9.429  1.00  0.00     0.071 C 
HETATM    7  C   UNL     1      42.488  -8.208  10.281  1.00  0.00     0.238 C 
ENDROOT
BRANCH   5   8
HETATM    8  O   UNL     1      45.659  -8.225   8.286  1.00  0.00    -0.385 OA
HETATM    9  H   UNL     1      46.460  -8.766   8.420  1.00  0.00     0.211 HD
ENDBRANCH   5   8
BRANCH   5  10
HETATM   10  C   UNL     1      43.884  -9.809   7.948  1.00  0.00    -0.023 A 
HETATM   11  C   UNL     1      44.335 -11.145   7.824  1.00  0.00     0.024 A 
HETATM   12  C   UNL     1      43.652 -12.051   6.991  1.00  0.00     0.001 A 
HETATM   13  C   UNL     1      42.574 -11.591   6.253  1.00  0.00     0.086 A 
HETATM   14  C   UNL     1      43.774 -13.429   6.680  1.00  0.00     0.057 A 
HETATM   15  O   UNL     1      42.016 -12.605   5.541  1.00  0.00    -0.304 OA
HETATM   16  C   UNL     1      42.145 -10.270   6.258  1.00  0.00     0.039 A 
HETATM   17  C   UNL     1      42.743 -13.736   5.811  1.00  0.00     0.144 A 
HETATM   18  C   UNL     1      42.828  -9.390   7.111  1.00  0.00     0.013 A 
BRANCH  17  19
HETATM   19  C   UNL     1      42.348 -15.001   5.227  1.00  0.00     0.275 C 
HETATM   20  N   UNL     1      41.318 -14.902   4.323  1.00  0.00    -0.353 N 
HETATM   21  H   UNL     1      40.878 -13.996   4.204  1.00  0.00     0.162 HD
HETATM   22  O   UNL     1      42.859 -16.071   5.542  1.00  0.00    -0.265 OA
BRANCH  20  23
HETATM   23  C   UNL     1      40.651 -16.050   3.739  1.00  0.00     0.155 C 
BRANCH  23  24
HETATM   24  C   UNL     1      41.247 -16.468   2.385  1.00  0.00     0.139 C 
HETATM   25  O   UNL     1      42.247 -17.490   2.598  1.00  0.00    -0.384 OA
HETATM   26  C   UNL     1      43.421 -17.125   1.864  1.00  0.00     0.168 C 
HETATM   27  C   UNL     1      43.387 -15.619   1.755  1.00  0.00     0.029 C 
HETATM   28  C   UNL     1      41.912 -15.347   1.593  1.00  0.00     0.035 C 
ENDBRANCH  23  24
ENDBRANCH  20  23
ENDBRANCH  17  19
ENDBRANCH   5  10
BRANCH   1  29
HETATM   29  C   UNL     1      41.843  -9.500  12.302  1.00  0.00     0.273 C 
BRANCH  29  30
HETATM   30  C   UNL     1      41.405  -8.566  13.396  1.00  0.00    -0.030 A 
HETATM   31  C   UNL     1      40.503  -7.518  13.139  1.00  0.00     0.048 A 
HETATM   32  C   UNL     1      40.136  -6.603  14.144  1.00  0.00     0.102 A 
HETATM   33  C   UNL     1      40.679  -6.756  15.432  1.00  0.00     0.101 A 
HETATM   34  C   UNL     1      41.569  -7.809  15.683  1.00  0.00     0.040 A 
HETATM   35  C   UNL     1      41.931  -8.707  14.683  1.00  0.00     0.012 A 
BRANCH  32  36
HETATM   36  O   UNL     1      39.289  -5.555  13.922  1.00  0.00    -0.353 OA
HETATM   37  C   UNL     1      37.886  -5.781  13.929  1.00  0.00     0.210 C 
ENDBRANCH  32  36
BRANCH  33  38
HETATM   38  O   UNL     1      40.479  -5.987  16.547  1.00  0.00    -0.353 OA
HETATM   39  C   UNL     1      41.597  -5.421  17.214  1.00  0.00     0.210 C 
ENDBRANCH  33  38
ENDBRANCH  29  30
ENDBRANCH   1  29
TORSDOF 9
ENDMDL
MODEL 6
REMARK VINA RESULT:      -8.1      5.594     10.169
REMARK  9 active torsions:
REMARK  status: ('A' for Active; 'I' for Inactive)
REMARK    1  A    between atoms: O_2  and  C_3 
REMARK    2  A    between atoms: C_4  and  O_5 
REMARK    3  A    between atoms: C_8  and  C_9 
REMARK    4  A    between atoms: C_9  and  N_10 
REMARK    5  A    between atoms: C_14  and  O_15 
REMARK    6  A    between atoms: C_14  and  C_16 
REMARK    7  A    between atoms: C_21  and  C_22 
REMARK       I    between atoms: C_22  and  N_23 
REMARK    8  A    between atoms: N_23  and  C_24 
REMARK    9  A    between atoms: C_24  and  C_25 
ROOT
HETATM    1  N   UNL     1      40.416 -10.649  -2.633  1.00  0.00    -0.067 N 
HETATM    2  H   UNL     1      40.164 -10.526  -3.621  1.00  0.00     0.280 HD
HETATM    3  C   UNL     1      41.174 -11.955  -2.536  1.00  0.00     0.238 C 
HETATM    4  C   UNL     1      40.256 -13.118  -2.883  1.00  0.00     0.071 C 
HETATM    5  C   UNL     1      39.028 -13.178  -1.954  1.00  0.00     0.088 C 
HETATM    6  C   UNL     1      38.280 -11.847  -2.173  1.00  0.00     0.071 C 
HETATM    7  C   UNL     1      39.140 -10.645  -1.824  1.00  0.00     0.238 C 
ENDROOT
BRANCH   5   8
HETATM    8  O   UNL     1      38.180 -14.211  -2.455  1.00  0.00    -0.385 OA
HETATM    9  H   UNL     1      37.722 -14.650  -1.714  1.00  0.00     0.211 HD
ENDBRANCH   5   8
BRANCH   5  10
HETATM   10  C   UNL     1      39.358 -13.495  -0.487  1.00  0.00    -0.023 A 
HETATM   11  C   UNL     1      39.858 -14.765  -0.112  1.00  0.00     0.024 A 
HETATM   12  C   UNL     1      40.255 -15.008   1.217  1.00  0.00     0.001 A 
HETATM   13  C   UNL     1      40.086 -14.002   2.153  1.00  0.00     0.086 A 
HETATM   14  C   UNL     1      40.837 -16.095   1.916  1.00  0.00     0.057 A 
HETATM   15  O   UNL     1      40.557 -14.396   3.366  1.00  0.00    -0.304 OA
HETATM   16  C   UNL     1      39.512 -12.770   1.867  1.00  0.00     0.039 A 
HETATM   17  C   UNL     1      41.029 -15.676   3.220  1.00  0.00     0.144 A 
HETATM   18  C   UNL     1      39.143 -12.543   0.532  1.00  0.00     0.013 A 
BRANCH  17  19
HETATM   19  C   UNL     1      41.645 -16.348   4.345  1.00  0.00     0.275 C 
HETATM   20  N   UNL     1      42.887 -16.868   4.073  1.00  0.00    -0.353 N 
HETATM   21  H   UNL     1      43.225 -16.813   3.119  1.00  0.00     0.162 HD
HETATM   22  O   UNL     1      41.090 -16.478   5.431  1.00  0.00    -0.265 OA
BRANCH  20  23
HETATM   23  C   UNL     1      43.618 -17.719   4.992  1.00  0.00     0.155 C 
BRANCH  23  24
HETATM   24  C   UNL     1      44.487 -18.769   4.279  1.00  0.00     0.139 C 
HETATM   25  O   UNL     1      44.056 -18.891   2.904  1.00  0.00    -0.384 OA
HETATM   26  C   UNL     1      43.904 -20.284   2.608  1.00  0.00     0.168 C 
HETATM   27  C   UNL     1      43.596 -20.956   3.925  1.00  0.00     0.029 C 
HETATM   28  C   UNL     1      44.449 -20.166   4.888  1.00  0.00     0.035 C 
ENDBRANCH  23  24
ENDBRANCH  20  23
ENDBRANCH  17  19
ENDBRANCH   5  10
BRANCH   1  29
HETATM   29  C   UNL     1      41.269  -9.443  -2.260  1.00  0.00     0.273 C 
BRANCH  29  30
HETATM   30  C   UNL     1      41.495  -8.471  -3.386  1.00  0.00    -0.030 A 
HETATM   31  C   UNL     1      40.652  -8.455  -4.512  1.00  0.00     0.048 A 
HETATM   32  C   UNL     1      40.894  -7.591  -5.596  1.00  0.00     0.102 A 
HETATM   33  C   UNL     1      41.998  -6.720  -5.538  1.00  0.00     0.101 A 
HETATM   34  C   UNL     1      42.826  -6.735  -4.408  1.00  0.00     0.040 A 
HETATM   35  C   UNL     1      42.583  -7.597  -3.342  1.00  0.00     0.012 A 
BRANCH  32  36
HETATM   36  O   UNL     1      40.116  -7.570  -6.719  1.00  0.00    -0.353 OA
HETATM   37  C   UNL     1      38.998  -6.696  -6.775  1.00  0.00     0.210 C 
ENDBRANCH  32  36
BRANCH  33  38
HETATM   38  O   UNL     1      42.429  -5.815  -6.470  1.00  0.00    -0.353 OA
HETATM   39  C   UNL     1      43.755  -5.906  -6.968  1.00  0.00     0.210 C 
ENDBRANCH  33  38
ENDBRANCH  29  30
ENDBRANCH   1  29
TORSDOF 9
ENDMDL
MODEL 7
REMARK VINA RESULT:      -8.0      2.962     10.908
REMARK  9 active torsions:
REMARK  status: ('A' for Active; 'I' for Inactive)
REMARK    1  A    between atoms: O_2  and  C_3 
REMARK    2  A    between atoms: C_4  and  O_5 
REMARK    3  A    between atoms: C_8  and  C_9 
REMARK    4  A    between atoms: C_9  and  N_10 
REMARK    5  A    between atoms: C_14  and  O_15 
REMARK    6  A    between atoms: C_14  and  C_16 
REMARK    7  A    between atoms: C_21  and  C_22 
REMARK       I    between atoms: C_22  and  N_23 
REMARK    8  A    between atoms: N_23  and  C_24 
REMARK    9  A    between atoms: C_24  and  C_25 
ROOT
HETATM    1  N   UNL     1      41.993  -8.480  10.835  1.00  0.00    -0.067 N 
HETATM    2  H   UNL     1      42.163  -7.605  11.347  1.00  0.00     0.280 HD
HETATM    3  C   UNL     1      43.228  -9.336  11.016  1.00  0.00     0.238 C 
HETATM    4  C   UNL     1      44.422  -8.679  10.340  1.00  0.00     0.071 C 
HETATM    5  C   UNL     1      44.180  -8.457   8.835  1.00  0.00     0.088 C 
HETATM    6  C   UNL     1      42.959  -7.518   8.748  1.00  0.00     0.071 C 
HETATM    7  C   UNL     1      41.725  -8.128   9.390  1.00  0.00     0.238 C 
ENDROOT
BRANCH   5   8
HETATM    8  O   UNL     1      45.298  -7.718   8.342  1.00  0.00    -0.385 OA
HETATM    9  H   UNL     1      45.104  -7.387   7.445  1.00  0.00     0.211 HD
ENDBRANCH   5   8
BRANCH   5  10
HETATM   10  C   UNL     1      44.057  -9.749   8.014  1.00  0.00    -0.023 A 
HETATM   11  C   UNL     1      42.846 -10.084   7.362  1.00  0.00     0.024 A 
HETATM   12  C   UNL     1      42.779 -11.216   6.527  1.00  0.00     0.001 A 
HETATM   13  C   UNL     1      43.899 -12.022   6.412  1.00  0.00     0.086 A 
HETATM   14  C   UNL     1      41.792 -11.802   5.696  1.00  0.00     0.057 A 
HETATM   15  O   UNL     1      43.666 -13.040   5.541  1.00  0.00    -0.304 OA
HETATM   16  C   UNL     1      45.083 -11.800   7.102  1.00  0.00     0.039 A 
HETATM   17  C   UNL     1      42.378 -12.899   5.091  1.00  0.00     0.144 A 
HETATM   18  C   UNL     1      45.134 -10.654   7.911  1.00  0.00     0.013 A 
BRANCH  17  19
HETATM   19  C   UNL     1      41.858 -13.820   4.101  1.00  0.00     0.275 C 
HETATM   20  N   UNL     1      42.726 -14.830   3.766  1.00  0.00    -0.353 N 
HETATM   21  H   UNL     1      43.659 -14.803   4.163  1.00  0.00     0.162 HD
HETATM   22  O   UNL     1      40.756 -13.686   3.579  1.00  0.00    -0.265 OA
BRANCH  20  23
HETATM   23  C   UNL     1      42.488 -15.767   2.686  1.00  0.00     0.155 C 
BRANCH  23  24
HETATM   24  C   UNL     1      42.348 -17.220   3.169  1.00  0.00     0.139 C 
HETATM   25  O   UNL     1      42.959 -17.351   4.473  1.00  0.00    -0.384 OA
HETATM   26  C   UNL     1      43.812 -18.500   4.451  1.00  0.00     0.168 C 
HETATM   27  C   UNL     1      44.235 -18.674   3.011  1.00  0.00     0.029 C 
HETATM   28  C   UNL     1      42.987 -18.269   2.266  1.00  0.00     0.035 C 
ENDBRANCH  23  24
ENDBRANCH  20  23
ENDBRANCH  17  19
ENDBRANCH   5  10
BRANCH   1  29
HETATM   29  C   UNL     1      40.748  -9.099  11.456  1.00  0.00     0.273 C 
BRANCH  29  30
HETATM   30  C   UNL     1      39.935  -8.150  12.293  1.00  0.00    -0.030 A 
HETATM   31  C   UNL     1      40.419  -7.665  13.521  1.00  0.00     0.048 A 
HETATM   32  C   UNL     1      39.638  -6.826  14.337  1.00  0.00     0.102 A 
HETATM   33  C   UNL     1      38.352  -6.459  13.901  1.00  0.00     0.101 A 
HETATM   34  C   UNL     1      37.881  -6.937  12.671  1.00  0.00     0.040 A 
HETATM   35  C   UNL     1      38.658  -7.771  11.872  1.00  0.00     0.012 A 
BRANCH  32  36
HETATM   36  O   UNL     1      40.063  -6.362  15.550  1.00  0.00    -0.353 OA
HETATM   37  C   UNL     1      41.064  -5.356  15.599  1.00  0.00     0.210 C 
ENDBRANCH  32  36
BRANCH  33  38
HETATM   38  O   UNL     1      37.423  -5.674  14.528  1.00  0.00    -0.353 OA
HETATM   39  C   UNL     1      37.398  -4.279  14.269  1.00  0.00     0.210 C 
ENDBRANCH  33  38
ENDBRANCH  29  30
ENDBRANCH   1  29
TORSDOF 9
ENDMDL
MODEL 8
REMARK VINA RESULT:      -8.0      1.979      3.316
REMARK  9 active torsions:
REMARK  status: ('A' for Active; 'I' for Inactive)
REMARK    1  A    between atoms: O_2  and  C_3 
REMARK    2  A    between atoms: C_4  and  O_5 
REMARK    3  A    between atoms: C_8  and  C_9 
REMARK    4  A    between atoms: C_9  and  N_10 
REMARK    5  A    between atoms: C_14  and  O_15 
REMARK    6  A    between atoms: C_14  and  C_16 
REMARK    7  A    between atoms: C_21  and  C_22 
REMARK       I    between atoms: C_22  and  N_23 
REMARK    8  A    between atoms: N_23  and  C_24 
REMARK    9  A    between atoms: C_24  and  C_25 
ROOT
HETATM    1  N   UNL     1      41.254 -14.000   3.664  1.00  0.00    -0.067 N 
HETATM    2  H   UNL     1      41.132 -14.255   2.676  1.00  0.00     0.280 HD
HETATM    3  C   UNL     1      40.200 -12.960   3.978  1.00  0.00     0.238 C 
HETATM    4  C   UNL     1      40.466 -11.691   3.181  1.00  0.00     0.071 C 
HETATM    5  C   UNL     1      41.858 -11.104   3.482  1.00  0.00     0.088 C 
HETATM    6  C   UNL     1      42.865 -12.195   3.064  1.00  0.00     0.071 C 
HETATM    7  C   UNL     1      42.663 -13.484   3.841  1.00  0.00     0.238 C 
ENDROOT
BRANCH   5   8
HETATM    8  O   UNL     1      42.047 -10.008   2.587  1.00  0.00    -0.385 OA
HETATM    9  H   UNL     1      41.381  -9.318   2.765  1.00  0.00     0.211 HD
ENDBRANCH   5   8
BRANCH   5  10
HETATM   10  C   UNL     1      42.032 -10.587   4.919  1.00  0.00    -0.023 A 
HETATM   11  C   UNL     1      41.017  -9.825   5.545  1.00  0.00     0.024 A 
HETATM   12  C   UNL     1      41.144  -9.447   6.896  1.00  0.00     0.001 A 
HETATM   13  C   UNL     1      42.305  -9.783   7.572  1.00  0.00     0.086 A 
HETATM   14  C   UNL     1      40.333  -8.763   7.835  1.00  0.00     0.057 A 
HETATM   15  O   UNL     1      42.237  -9.376   8.867  1.00  0.00    -0.304 OA
HETATM   16  C   UNL     1      43.375 -10.445   6.984  1.00  0.00     0.039 A 
HETATM   17  C   UNL     1      41.023  -8.761   9.034  1.00  0.00     0.144 A 
HETATM   18  C   UNL     1      43.218 -10.829   5.643  1.00  0.00     0.013 A 
BRANCH  17  19
HETATM   19  C   UNL     1      40.642  -8.263  10.339  1.00  0.00     0.275 C 
HETATM   20  N   UNL     1      41.522  -7.349  10.867  1.00  0.00    -0.353 N 
HETATM   21  H   UNL     1      42.378  -7.166  10.355  1.00  0.00     0.162 HD
HETATM   22  O   UNL     1      39.645  -8.652  10.939  1.00  0.00    -0.265 OA
BRANCH  20  23
HETATM   23  C   UNL     1      41.434  -6.841  12.222  1.00  0.00     0.155 C 
BRANCH  23  24
HETATM   24  C   UNL     1      42.079  -7.775  13.259  1.00  0.00     0.139 C 
HETATM   25  O   UNL     1      41.047  -8.336  14.104  1.00  0.00    -0.384 OA
HETATM   26  C   UNL     1      41.459  -8.188  15.467  1.00  0.00     0.168 C 
HETATM   27  C   UNL     1      42.376  -6.988  15.493  1.00  0.00     0.029 C 
HETATM   28  C   UNL     1      43.103  -7.118  14.178  1.00  0.00     0.035 C 
ENDBRANCH  23  24
ENDBRANCH  20  23
ENDBRANCH  17  19
ENDBRANCH   5  10
BRANCH   1  29
HETATM   29  C   UNL     1      41.070 -15.286   4.459  1.00  0.00     0.273 C 
BRANCH  29  30
HETATM   30  C   UNL     1      41.910 -16.437   3.978  1.00  0.00    -0.030 A 
HETATM   31  C   UNL     1      42.696 -17.187   4.872  1.00  0.00     0.048 A 
HETATM   32  C   UNL     1      43.531 -18.226   4.420  1.00  0.00     0.102 A 
HETATM   33  C   UNL     1      43.563 -18.522   3.045  1.00  0.00     0.101 A 
HETATM   34  C   UNL     1      42.768 -17.779   2.163  1.00  0.00     0.040 A 
HETATM   35  C   UNL     1      41.949 -16.748   2.617  1.00  0.00     0.012 A 
BRANCH  32  36
HETATM   36  O   UNL     1      44.332 -18.953   5.254  1.00  0.00    -0.353 OA
HETATM   37  C   UNL     1      43.931 -20.260   5.640  1.00  0.00     0.210 C 
ENDBRANCH  32  36
BRANCH  33  38
HETATM   38  O   UNL     1      44.301 -19.468   2.386  1.00  0.00    -0.353 OA
HETATM   39  C   UNL     1      43.641 -20.558   1.762  1.00  0.00     0.210 C 
ENDBRANCH  33  38
ENDBRANCH  29  30
ENDBRANCH   1  29
TORSDOF 9
ENDMDL
MODEL 9
REMARK VINA RESULT:      -7.9      2.421      5.884
REMARK  9 active torsions:
REMARK  status: ('A' for Active; 'I' for Inactive)
REMARK    1  A    between atoms: O_2  and  C_3 
REMARK    2  A    between atoms: C_4  and  O_5 
REMARK    3  A    between atoms: C_8  and  C_9 
REMARK    4  A    between atoms: C_9  and  N_10 
REMARK    5  A    between atoms: C_14  and  O_15 
REMARK    6  A    between atoms: C_14  and  C_16 
REMARK    7  A    between atoms: C_21  and  C_22 
REMARK       I    between atoms: C_22  and  N_23 
REMARK    8  A    between atoms: N_23  and  C_24 
REMARK    9  A    between atoms: C_24  and  C_25 
ROOT
HETATM    1  N   UNL     1      40.320 -13.767   1.350  1.00  0.00    -0.067 N 
HETATM    2  H   UNL     1      39.988 -14.264   0.515  1.00  0.00     0.280 HD
HETATM    3  C   UNL     1      41.829 -13.872   1.349  1.00  0.00     0.238 C 
HETATM    4  C   UNL     1      42.252 -15.323   1.528  1.00  0.00     0.071 C 
HETATM    5  C   UNL     1      41.707 -15.922   2.839  1.00  0.00     0.088 C 
HETATM    6  C   UNL     1      40.170 -15.844   2.721  1.00  0.00     0.071 C 
HETATM    7  C   UNL     1      39.684 -14.415   2.559  1.00  0.00     0.238 C 
ENDROOT
BRANCH   5   8
HETATM    8  O   UNL     1      42.047 -17.309   2.832  1.00  0.00    -0.385 OA
HETATM    9  H   UNL     1      42.562 -17.526   3.631  1.00  0.00     0.211 HD
ENDBRANCH   5   8
BRANCH   5  10
HETATM   10  C   UNL     1      42.286 -15.291   4.114  1.00  0.00    -0.023 A 
HETATM   11  C   UNL     1      42.937 -14.035   4.073  1.00  0.00     0.024 A 
HETATM   12  C   UNL     1      43.369 -13.420   5.264  1.00  0.00     0.001 A 
HETATM   13  C   UNL     1      43.199 -14.098   6.460  1.00  0.00     0.086 A 
HETATM   14  C   UNL     1      43.978 -12.186   5.602  1.00  0.00     0.057 A 
HETATM   15  O   UNL     1      43.635 -13.343   7.502  1.00  0.00    -0.304 OA
HETATM   16  C   UNL     1      42.656 -15.373   6.553  1.00  0.00     0.039 A 
HETATM   17  C   UNL     1      44.102 -12.164   6.979  1.00  0.00     0.144 A 
HETATM   18  C   UNL     1      42.214 -15.957   5.356  1.00  0.00     0.013 A 
BRANCH  17  19
HETATM   19  C   UNL     1      44.590 -11.127   7.865  1.00  0.00     0.275 C 
HETATM   20  N   UNL     1      43.604 -10.497   8.584  1.00  0.00    -0.353 N 
HETATM   21  H   UNL     1      42.640 -10.742   8.383  1.00  0.00     0.162 HD
HETATM   22  O   UNL     1      45.773 -10.812   7.937  1.00  0.00    -0.265 OA
BRANCH  20  23
HETATM   23  C   UNL     1      43.835  -9.325   9.406  1.00  0.00     0.155 C 
BRANCH  23  24
HETATM   24  C   UNL     1      44.267  -9.672  10.841  1.00  0.00     0.139 C 
HETATM   25  O   UNL     1      43.988 -11.066  11.100  1.00  0.00    -0.384 OA
HETATM   26  C   UNL     1      43.308 -11.158  12.357  1.00  0.00     0.168 C 
HETATM   27  C   UNL     1      42.598  -9.837  12.540  1.00  0.00     0.029 C 
HETATM   28  C   UNL     1      43.583  -8.865  11.939  1.00  0.00     0.035 C 
ENDBRANCH  23  24
ENDBRANCH  20  23
ENDBRANCH  17  19
ENDBRANCH   5  10
BRANCH   1  29
HETATM   29  C   UNL     1      39.827 -12.333   1.213  1.00  0.00     0.273 C 
BRANCH  29  30
HETATM   30  C   UNL     1      40.256 -11.648  -0.056  1.00  0.00    -0.030 A 
HETATM   31  C   UNL     1      41.301 -10.706  -0.057  1.00  0.00     0.048 A 
HETATM   32  C   UNL     1      41.667 -10.018  -1.228  1.00  0.00     0.102 A 
HETATM   33  C   UNL     1      40.976 -10.294  -2.422  1.00  0.00     0.101 A 
HETATM   34  C   UNL     1      39.944 -11.242  -2.416  1.00  0.00     0.040 A 
HETATM   35  C   UNL     1      39.585 -11.915  -1.251  1.00  0.00     0.012 A 
BRANCH  32  36
HETATM   36  O   UNL     1      42.653  -9.074  -1.259  1.00  0.00    -0.353 OA
HETATM   37  C   UNL     1      42.341  -7.730  -0.921  1.00  0.00     0.210 C 
ENDBRANCH  32  36
BRANCH  33  38
HETATM   38  O   UNL     1      41.148  -9.743  -3.663  1.00  0.00    -0.353 OA
HETATM   39  C   UNL     1      40.341  -8.645  -4.057  1.00  0.00     0.210 C 
ENDBRANCH  33  38
ENDBRANCH  29  30
ENDBRANCH   1  29
TORSDOF 9
ENDMDL
MODEL 10
REMARK VINA RESULT:      -7.9      1.866      5.177
REMARK  9 active torsions:
REMARK  status: ('A' for Active; 'I' for Inactive)
REMARK    1  A    between atoms: O_2  and  C_3 
REMARK    2  A    between atoms: C_4  and  O_5 
REMARK    3  A    between atoms: C_8  and  C_9 
REMARK    4  A    between atoms: C_9  and  N_10 
REMARK    5  A    between atoms: C_14  and  O_15 
REMARK    6  A    between atoms: C_14  and  C_16 
REMARK    7  A    between atoms: C_21  and  C_22 
REMARK       I    between atoms: C_22  and  N_23 
REMARK    8  A    between atoms: N_23  and  C_24 
REMARK    9  A    between atoms: C_24  and  C_25 
ROOT
HETATM    1  N   UNL     1      40.487 -13.782   1.370  1.00  0.00    -0.067 N 
HETATM    2  H   UNL     1      40.179 -14.269   0.519  1.00  0.00     0.280 HD
HETATM    3  C   UNL     1      41.992 -13.918   1.429  1.00  0.00     0.238 C 
HETATM    4  C   UNL     1      42.377 -15.378   1.619  1.00  0.00     0.071 C 
HETATM    5  C   UNL     1      41.767 -15.970   2.904  1.00  0.00     0.088 C 
HETATM    6  C   UNL     1      40.239 -15.860   2.724  1.00  0.00     0.071 C 
HETATM    7  C   UNL     1      39.789 -14.420   2.549  1.00  0.00     0.238 C 
ENDROOT
BRANCH   5   8
HETATM    8  O   UNL     1      42.079 -17.364   2.905  1.00  0.00    -0.385 OA
HETATM    9  H   UNL     1      42.556 -17.594   3.724  1.00  0.00     0.211 HD
ENDBRANCH   5   8
BRANCH   5  10
HETATM   10  C   UNL     1      42.307 -15.356   4.205  1.00  0.00    -0.023 A 
HETATM   11  C   UNL     1      42.916 -14.078   4.208  1.00  0.00     0.024 A 
HETATM   12  C   UNL     1      43.311 -13.483   5.421  1.00  0.00     0.001 A 
HETATM   13  C   UNL     1      43.147 -14.198   6.595  1.00  0.00     0.086 A 
HETATM   14  C   UNL     1      43.873 -12.238   5.801  1.00  0.00     0.057 A 
HETATM   15  O   UNL     1      43.544 -13.458   7.664  1.00  0.00    -0.304 OA
HETATM   16  C   UNL     1      42.646 -15.492   6.645  1.00  0.00     0.039 A 
HETATM   17  C   UNL     1      43.977 -12.250   7.180  1.00  0.00     0.144 A 
HETATM   18  C   UNL     1      42.240 -16.058   5.427  1.00  0.00     0.013 A 
BRANCH  17  19
HETATM   19  C   UNL     1      44.418 -11.223   8.101  1.00  0.00     0.275 C 
HETATM   20  N   UNL     1      43.397 -10.470   8.629  1.00  0.00    -0.353 N 
HETATM   21  H   UNL     1      42.459 -10.635   8.281  1.00  0.00     0.162 HD
HETATM   22  O   UNL     1      45.600 -11.016   8.355  1.00  0.00    -0.265 OA
BRANCH  20  23
HETATM   23  C   UNL     1      43.609  -9.288   9.441  1.00  0.00     0.155 C 
BRANCH  23  24
HETATM   24  C   UNL     1      44.000  -9.616  10.891  1.00  0.00     0.139 C 
HETATM   25  O   UNL     1      43.256 -10.773  11.337  1.00  0.00    -0.384 OA
HETATM   26  C   UNL     1      42.693 -10.473  12.618  1.00  0.00     0.168 C 
HETATM   27  C   UNL     1      42.527  -8.972  12.656  1.00  0.00     0.029 C 
HETATM   28  C   UNL     1      43.745  -8.502  11.901  1.00  0.00     0.035 C 
ENDBRANCH  23  24
ENDBRANCH  20  23
ENDBRANCH  17  19
ENDBRANCH   5  10
BRANCH   1  29
HETATM   29  C   UNL     1      40.030 -12.337   1.219  1.00  0.00     0.273 C 
BRANCH  29  30
HETATM   30  C   UNL     1      40.331 -11.464   2.406  1.00  0.00    -0.030 A 
HETATM   31  C   UNL     1      39.321 -11.095   3.313  1.00  0.00     0.048 A 
HETATM   32  C   UNL     1      39.582 -10.229   4.391  1.00  0.00     0.102 A 
HETATM   33  C   UNL     1      40.889  -9.737   4.565  1.00  0.00     0.101 A 
HETATM   34  C   UNL     1      41.892 -10.118   3.664  1.00  0.00     0.040 A 
HETATM   35  C   UNL     1      41.624 -10.971   2.597  1.00  0.00     0.012 A 
BRANCH  32  36
HETATM   36  O   UNL     1      38.619  -9.824   5.271  1.00  0.00    -0.353 OA
HETATM   37  C   UNL     1      37.846  -8.671   4.974  1.00  0.00     0.210 C 
ENDBRANCH  32  36
BRANCH  33  38
HETATM   38  O   UNL     1      41.366  -8.883   5.521  1.00  0.00    -0.353 OA
HETATM   39  C   UNL     1      41.347  -7.484   5.280  1.00  0.00     0.210 C 
ENDBRANCH  33  38
ENDBRANCH  29  30
ENDBRANCH   1  29
TORSDOF 9
ENDMDL
