MODEL 1
REMARK VINA RESULT:      -8.9      0.000      0.000
REMARK  2 active torsions:
REMARK  status: ('A' for Active; 'I' for Inactive)
REMARK    1  A    between atoms: C_4  and  N_5 
REMARK    2  A    between atoms: C_12  and  C_13 
ROOT
HETATM    1  N   UNL     1      43.687 -11.657   7.259  1.00  0.00    -0.236 N 
HETATM    2  N   UNL     1      44.278 -12.898   6.936  1.00  0.00    -0.179 NA
HETATM    3  C   UNL     1      43.476 -13.465   5.964  1.00  0.00     0.119 A 
HETATM    4  C   UNL     1      42.468 -12.653   5.603  1.00  0.00     0.123 A 
HETATM    5  C   UNL     1      42.565 -11.448   6.441  1.00  0.00     0.280 A 
HETATM    6  O   UNL     1      41.795 -10.504   6.401  1.00  0.00    -0.265 OA
HETATM    7  N   UNL     1      43.608 -14.713   5.418  1.00  0.00    -0.344 N 
HETATM    8  C   UNL     1      42.766 -15.161   4.417  1.00  0.00     0.047 A 
HETATM    9  C   UNL     1      41.724 -14.423   3.988  1.00  0.00     0.086 A 
HETATM   10  C   UNL     1      41.498 -13.075   4.590  1.00  0.00     0.193 A 
HETATM   11  O   UNL     1      40.546 -12.397   4.228  1.00  0.00    -0.287 OA
HETATM   12  H   UNL     1      44.347 -13.514   7.746  1.00  0.00     0.155 HD
HETATM   13  H   UNL     1      44.495 -15.191   5.546  1.00  0.00     0.167 HD
ENDROOT
BRANCH   8  14
HETATM   14  C   UNL     1      43.026 -16.497   3.849  1.00  0.00    -0.009 A 
HETATM   15  C   UNL     1      42.469 -16.886   2.619  1.00  0.00     0.015 A 
HETATM   16  C   UNL     1      42.728 -18.154   2.090  1.00  0.00     0.024 A 
HETATM   17  C   UNL     1      43.549 -19.041   2.783  1.00  0.00     0.034 A 
HETATM   18 CL   UNL     1      43.867 -20.599   2.132  1.00  0.00    -0.084 Cl
HETATM   19  C   UNL     1      44.114 -18.670   4.002  1.00  0.00     0.024 A 
HETATM   20  C   UNL     1      43.853 -17.402   4.531  1.00  0.00     0.015 A 
ENDBRANCH   8  14
BRANCH   1  21
HETATM   21  C   UNL     1      44.246 -10.830   8.256  1.00  0.00     0.055 A 
HETATM   22  C   UNL     1      43.756 -10.841   9.569  1.00  0.00     0.031 A 
HETATM   23  C   UNL     1      44.328 -10.033  10.558  1.00  0.00     0.002 A 
HETATM   24  C   UNL     1      45.397  -9.198  10.248  1.00  0.00     0.000 A 
HETATM   25  C   UNL     1      45.891  -9.165   8.948  1.00  0.00     0.002 A 
HETATM   26  C   UNL     1      45.320  -9.973   7.960  1.00  0.00     0.031 A 
ENDBRANCH   1  21
TORSDOF 2
ENDMDL
MODEL 2
REMARK VINA RESULT:      -8.8      5.009      7.809
REMARK  2 active torsions:
REMARK  status: ('A' for Active; 'I' for Inactive)
REMARK    1  A    between atoms: C_4  and  N_5 
REMARK    2  A    between atoms: C_12  and  C_13 
ROOT
HETATM    1  N   UNL     1      39.851 -13.574  -0.056  1.00  0.00    -0.236 N 
HETATM    2  N   UNL     1      39.992 -14.915   0.363  1.00  0.00    -0.179 NA
HETATM    3  C   UNL     1      41.045 -14.929   1.258  1.00  0.00     0.119 A 
HETATM    4  C   UNL     1      41.533 -13.699   1.485  1.00  0.00     0.123 A 
HETATM    5  C   UNL     1      40.776 -12.771   0.629  1.00  0.00     0.280 A 
HETATM    6  O   UNL     1      40.968 -11.569   0.561  1.00  0.00    -0.265 OA
HETATM    7  N   UNL     1      41.603 -16.031   1.849  1.00  0.00    -0.344 N 
HETATM    8  C   UNL     1      42.633 -15.920   2.765  1.00  0.00     0.047 A 
HETATM    9  C   UNL     1      43.192 -14.731   3.058  1.00  0.00     0.086 A 
HETATM   10  C   UNL     1      42.661 -13.501   2.398  1.00  0.00     0.193 A 
HETATM   11  O   UNL     1      43.167 -12.413   2.636  1.00  0.00    -0.287 OA
HETATM   12  H   UNL     1      40.178 -15.544  -0.418  1.00  0.00     0.155 HD
HETATM   13  H   UNL     1      41.069 -16.895   1.831  1.00  0.00     0.167 HD
ENDROOT
BRANCH   8  14
HETATM   14  C   UNL     1      43.126 -17.160   3.394  1.00  0.00    -0.009 A 
HETATM   15  C   UNL     1      43.330 -17.240   4.781  1.00  0.00     0.015 A 
HETATM   16  C   UNL     1      43.793 -18.423   5.365  1.00  0.00     0.024 A 
HETATM   17  C   UNL     1      44.052 -19.536   4.567  1.00  0.00     0.034 A 
HETATM   18 CL   UNL     1      44.622 -20.990   5.286  1.00  0.00    -0.084 Cl
HETATM   19  C   UNL     1      43.851 -19.475   3.190  1.00  0.00     0.024 A 
HETATM   20  C   UNL     1      43.389 -18.292   2.606  1.00  0.00     0.015 A 
ENDBRANCH   8  14
BRANCH   1  21
HETATM   21  C   UNL     1      38.874 -13.215  -1.009  1.00  0.00     0.055 A 
HETATM   22  C   UNL     1      38.186 -11.998  -0.924  1.00  0.00     0.031 A 
HETATM   23  C   UNL     1      37.234 -11.640  -1.884  1.00  0.00     0.002 A 
HETATM   24  C   UNL     1      36.951 -12.497  -2.943  1.00  0.00     0.000 A 
HETATM   25  C   UNL     1      37.615 -13.715  -3.040  1.00  0.00     0.002 A 
HETATM   26  C   UNL     1      38.568 -14.072  -2.081  1.00  0.00     0.031 A 
ENDBRANCH   1  21
TORSDOF 2
ENDMDL
MODEL 3
REMARK VINA RESULT:      -8.8      4.435      9.099
REMARK  2 active torsions:
REMARK  status: ('A' for Active; 'I' for Inactive)
REMARK    1  A    between atoms: C_4  and  N_5 
REMARK    2  A    between atoms: C_12  and  C_13 
ROOT
HETATM    1  N   UNL     1      43.803 -12.025   6.088  1.00  0.00    -0.236 N 
HETATM    2  N   UNL     1      42.940 -11.854   7.192  1.00  0.00    -0.179 NA
HETATM    3  C   UNL     1      43.603 -11.022   8.074  1.00  0.00     0.119 A 
HETATM    4  C   UNL     1      44.782 -10.603   7.585  1.00  0.00     0.123 A 
HETATM    5  C   UNL     1      44.958 -11.249   6.275  1.00  0.00     0.280 A 
HETATM    6  O   UNL     1      45.933 -11.114   5.555  1.00  0.00    -0.265 OA
HETATM    7  N   UNL     1      43.187 -10.658   9.326  1.00  0.00    -0.344 N 
HETATM    8  C   UNL     1      43.919  -9.781  10.107  1.00  0.00     0.047 A 
HETATM    9  C   UNL     1      45.114  -9.308   9.708  1.00  0.00     0.086 A 
HETATM   10  C   UNL     1      45.644  -9.719   8.373  1.00  0.00     0.193 A 
HETATM   11  O   UNL     1      46.736  -9.315   7.999  1.00  0.00    -0.287 OA
HETATM   12  H   UNL     1      42.710 -12.740   7.642  1.00  0.00     0.155 HD
HETATM   13  H   UNL     1      42.210 -10.804   9.558  1.00  0.00     0.167 HD
ENDROOT
BRANCH   8  14
HETATM   14  C   UNL     1      43.359  -9.401  11.418  1.00  0.00    -0.009 A 
HETATM   15  C   UNL     1      43.728  -8.200  12.046  1.00  0.00     0.015 A 
HETATM   16  C   UNL     1      43.185  -7.850  13.286  1.00  0.00     0.024 A 
HETATM   17  C   UNL     1      42.266  -8.695  13.905  1.00  0.00     0.034 A 
HETATM   18 CL   UNL     1      41.600  -8.263  15.430  1.00  0.00    -0.084 Cl
HETATM   19  C   UNL     1      41.886  -9.887  13.295  1.00  0.00     0.024 A 
HETATM   20  C   UNL     1      42.429 -10.238  12.055  1.00  0.00     0.015 A 
ENDBRANCH   8  14
BRANCH   1  21
HETATM   21  C   UNL     1      43.438 -12.858   5.009  1.00  0.00     0.055 A 
HETATM   22  C   UNL     1      43.348 -12.359   3.703  1.00  0.00     0.031 A 
HETATM   23  C   UNL     1      43.005 -13.195   2.635  1.00  0.00     0.002 A 
HETATM   24  C   UNL     1      42.742 -14.543   2.857  1.00  0.00     0.000 A 
HETATM   25  C   UNL     1      42.815 -15.056   4.148  1.00  0.00     0.002 A 
HETATM   26  C   UNL     1      43.160 -14.220   5.216  1.00  0.00     0.031 A 
ENDBRANCH   1  21
TORSDOF 2
ENDMDL
MODEL 4
REMARK VINA RESULT:      -8.5      3.337      8.216
REMARK  2 active torsions:
REMARK  status: ('A' for Active; 'I' for Inactive)
REMARK    1  A    between atoms: C_4  and  N_5 
REMARK    2  A    between atoms: C_12  and  C_13 
ROOT
HETATM    1  N   UNL     1      42.921 -17.004   3.983  1.00  0.00    -0.236 N 
HETATM    2  N   UNL     1      43.682 -16.249   4.903  1.00  0.00    -0.179 NA
HETATM    3  C   UNL     1      43.073 -15.011   4.980  1.00  0.00     0.119 A 
HETATM    4  C   UNL     1      41.956 -14.948   4.237  1.00  0.00     0.123 A 
HETATM    5  C   UNL     1      41.821 -16.245   3.553  1.00  0.00     0.280 A 
HETATM    6  O   UNL     1      40.929 -16.535   2.775  1.00  0.00    -0.265 OA
HETATM    7  N   UNL     1      43.520 -13.921   5.678  1.00  0.00    -0.344 N 
HETATM    8  C   UNL     1      42.803 -12.739   5.715  1.00  0.00     0.047 A 
HETATM    9  C   UNL     1      41.672 -12.576   5.002  1.00  0.00     0.086 A 
HETATM   10  C   UNL     1      41.169 -13.714   4.177  1.00  0.00     0.193 A 
HETATM   11  O   UNL     1      40.154 -13.581   3.507  1.00  0.00    -0.287 OA
HETATM   12  H   UNL     1      44.654 -16.152   4.609  1.00  0.00     0.155 HD
HETATM   13  H   UNL     1      44.223 -14.077   6.393  1.00  0.00     0.167 HD
ENDROOT
BRANCH   8  14
HETATM   14  C   UNL     1      43.335 -11.641   6.544  1.00  0.00    -0.009 A 
HETATM   15  C   UNL     1      44.618 -11.713   7.110  1.00  0.00     0.015 A 
HETATM   16  C   UNL     1      45.112 -10.662   7.889  1.00  0.00     0.024 A 
HETATM   17  C   UNL     1      44.329  -9.530   8.104  1.00  0.00     0.034 A 
HETATM   18 CL   UNL     1      44.936  -8.238   9.062  1.00  0.00    -0.084 Cl
HETATM   19  C   UNL     1      43.056  -9.440   7.546  1.00  0.00     0.024 A 
HETATM   20  C   UNL     1      42.561 -10.491   6.768  1.00  0.00     0.015 A 
ENDBRANCH   8  14
BRANCH   1  21
HETATM   21  C   UNL     1      43.298 -18.321   3.646  1.00  0.00     0.055 A 
HETATM   22  C   UNL     1      43.794 -19.206   4.612  1.00  0.00     0.031 A 
HETATM   23  C   UNL     1      44.147 -20.517   4.274  1.00  0.00     0.002 A 
HETATM   24  C   UNL     1      44.013 -20.962   2.963  1.00  0.00     0.000 A 
HETATM   25  C   UNL     1      43.532 -20.096   1.986  1.00  0.00     0.002 A 
HETATM   26  C   UNL     1      43.178 -18.786   2.325  1.00  0.00     0.031 A 
ENDBRANCH   1  21
TORSDOF 2
ENDMDL
MODEL 5
REMARK VINA RESULT:      -8.3      5.907      8.341
REMARK  2 active torsions:
REMARK  status: ('A' for Active; 'I' for Inactive)
REMARK    1  A    between atoms: C_4  and  N_5 
REMARK    2  A    between atoms: C_12  and  C_13 
ROOT
HETATM    1  N   UNL     1      42.330 -16.659   2.735  1.00  0.00    -0.236 N 
HETATM    2  N   UNL     1      42.612 -16.017   1.509  1.00  0.00    -0.179 NA
HETATM    3  C   UNL     1      41.824 -14.883   1.478  1.00  0.00     0.119 A 
HETATM    4  C   UNL     1      41.121 -14.724   2.612  1.00  0.00     0.123 A 
HETATM    5  C   UNL     1      41.420 -15.883   3.469  1.00  0.00     0.280 A 
HETATM    6  O   UNL     1      40.936 -16.080   4.570  1.00  0.00    -0.265 OA
HETATM    7  N   UNL     1      41.695 -14.003   0.437  1.00  0.00    -0.344 N 
HETATM    8  C   UNL     1      40.903 -12.874   0.536  1.00  0.00     0.047 A 
HETATM    9  C   UNL     1      40.157 -12.627   1.629  1.00  0.00     0.086 A 
HETATM   10  C   UNL     1      40.215 -13.585   2.773  1.00  0.00     0.193 A 
HETATM   11  O   UNL     1      39.531 -13.389   3.768  1.00  0.00    -0.287 OA
HETATM   12  H   UNL     1      42.410 -16.615   0.707  1.00  0.00     0.155 HD
HETATM   13  H   UNL     1      42.401 -14.031  -0.292  1.00  0.00     0.167 HD
ENDROOT
BRANCH   8  14
HETATM   14  C   UNL     1      40.876 -11.954  -0.618  1.00  0.00    -0.009 A 
HETATM   15  C   UNL     1      41.206 -10.596  -0.473  1.00  0.00     0.015 A 
HETATM   16  C   UNL     1      41.181  -9.737  -1.575  1.00  0.00     0.024 A 
HETATM   17  C   UNL     1      40.831 -10.228  -2.831  1.00  0.00     0.034 A 
HETATM   18 CL   UNL     1      40.800  -9.171  -4.186  1.00  0.00    -0.084 Cl
HETATM   19  C   UNL     1      40.505 -11.573  -2.993  1.00  0.00     0.024 A 
HETATM   20  C   UNL     1      40.529 -12.432  -1.891  1.00  0.00     0.015 A 
ENDBRANCH   8  14
BRANCH   1  21
HETATM   21  C   UNL     1      42.951 -17.882   3.068  1.00  0.00     0.055 A 
HETATM   22  C   UNL     1      43.608 -18.054   4.294  1.00  0.00     0.031 A 
HETATM   23  C   UNL     1      44.204 -19.275   4.626  1.00  0.00     0.002 A 
HETATM   24  C   UNL     1      44.155 -20.343   3.736  1.00  0.00     0.000 A 
HETATM   25  C   UNL     1      43.516 -20.190   2.510  1.00  0.00     0.002 A 
HETATM   26  C   UNL     1      42.920 -18.969   2.178  1.00  0.00     0.031 A 
ENDBRANCH   1  21
TORSDOF 2
ENDMDL
MODEL 6
REMARK VINA RESULT:      -8.2      3.531      8.184
REMARK  2 active torsions:
REMARK  status: ('A' for Active; 'I' for Inactive)
REMARK    1  A    between atoms: C_4  and  N_5 
REMARK    2  A    between atoms: C_12  and  C_13 
ROOT
HETATM    1  N   UNL     1      43.289 -15.506   3.913  1.00  0.00    -0.236 N 
HETATM    2  N   UNL     1      43.295 -15.077   5.259  1.00  0.00    -0.179 NA
HETATM    3  C   UNL     1      43.212 -13.698   5.224  1.00  0.00     0.119 A 
HETATM    4  C   UNL     1      43.087 -13.231   3.971  1.00  0.00     0.123 A 
HETATM    5  C   UNL     1      43.142 -14.393   3.070  1.00  0.00     0.280 A 
HETATM    6  O   UNL     1      43.082 -14.338   1.854  1.00  0.00    -0.265 OA
HETATM    7  N   UNL     1      43.281 -12.846   6.293  1.00  0.00    -0.344 N 
HETATM    8  C   UNL     1      43.144 -11.479   6.141  1.00  0.00     0.047 A 
HETATM    9  C   UNL     1      43.017 -10.912   4.926  1.00  0.00     0.086 A 
HETATM   10  C   UNL     1      42.993 -11.790   3.718  1.00  0.00     0.193 A 
HETATM   11  O   UNL     1      42.898 -11.295   2.605  1.00  0.00    -0.287 OA
HETATM   12  H   UNL     1      44.138 -15.372   5.752  1.00  0.00     0.155 HD
HETATM   13  H   UNL     1      43.145 -13.241   7.218  1.00  0.00     0.167 HD
ENDROOT
BRANCH   8  14
HETATM   14  C   UNL     1      43.172 -10.648   7.360  1.00  0.00    -0.009 A 
HETATM   15  C   UNL     1      42.205  -9.654   7.584  1.00  0.00     0.015 A 
HETATM   16  C   UNL     1      42.241  -8.877   8.746  1.00  0.00     0.024 A 
HETATM   17  C   UNL     1      43.239  -9.091   9.694  1.00  0.00     0.034 A 
HETATM   18 CL   UNL     1      43.282  -8.136  11.123  1.00  0.00    -0.084 Cl
HETATM   19  C   UNL     1      44.202 -10.076   9.490  1.00  0.00     0.024 A 
HETATM   20  C   UNL     1      44.168 -10.852   8.327  1.00  0.00     0.015 A 
ENDBRANCH   8  14
BRANCH   1  21
HETATM   21  C   UNL     1      43.399 -16.875   3.592  1.00  0.00     0.055 A 
HETATM   22  C   UNL     1      44.103 -17.762   4.417  1.00  0.00     0.031 A 
HETATM   23  C   UNL     1      44.191 -19.122   4.103  1.00  0.00     0.002 A 
HETATM   24  C   UNL     1      43.580 -19.617   2.955  1.00  0.00     0.000 A 
HETATM   25  C   UNL     1      42.885 -18.751   2.117  1.00  0.00     0.002 A 
HETATM   26  C   UNL     1      42.797 -17.391   2.432  1.00  0.00     0.031 A 
ENDBRANCH   1  21
TORSDOF 2
ENDMDL
MODEL 7
REMARK VINA RESULT:      -8.1      5.185      8.226
REMARK  2 active torsions:
REMARK  status: ('A' for Active; 'I' for Inactive)
REMARK    1  A    between atoms: C_4  and  N_5 
REMARK    2  A    between atoms: C_12  and  C_13 
ROOT
HETATM    1  N   UNL     1      43.039 -16.858   2.935  1.00  0.00    -0.236 N 
HETATM    2  N   UNL     1      42.562 -16.492   1.657  1.00  0.00    -0.179 NA
HETATM    3  C   UNL     1      42.284 -15.140   1.722  1.00  0.00     0.119 A 
HETATM    4  C   UNL     1      42.610 -14.613   2.914  1.00  0.00     0.123 A 
HETATM    5  C   UNL     1      43.106 -15.717   3.751  1.00  0.00     0.280 A 
HETATM    6  O   UNL     1      43.471 -15.607   4.909  1.00  0.00    -0.265 OA
HETATM    7  N   UNL     1      41.709 -14.374   0.744  1.00  0.00    -0.344 N 
HETATM    8  C   UNL     1      41.516 -13.014   0.908  1.00  0.00     0.047 A 
HETATM    9  C   UNL     1      41.807 -12.393   2.066  1.00  0.00     0.086 A 
HETATM   10  C   UNL     1      42.383 -13.192   3.189  1.00  0.00     0.193 A 
HETATM   11  O   UNL     1      42.637 -12.651   4.256  1.00  0.00    -0.287 OA
HETATM   12  H   UNL     1      41.727 -17.016   1.394  1.00  0.00     0.155 HD
HETATM   13  H   UNL     1      41.694 -14.750  -0.199  1.00  0.00     0.167 HD
ENDROOT
BRANCH   8  14
HETATM   14  C   UNL     1      40.945 -12.262  -0.227  1.00  0.00    -0.009 A 
HETATM   15  C   UNL     1      40.329 -12.924  -1.301  1.00  0.00     0.015 A 
HETATM   16  C   UNL     1      39.789 -12.200  -2.368  1.00  0.00     0.024 A 
HETATM   17  C   UNL     1      39.855 -10.808  -2.365  1.00  0.00     0.034 A 
HETATM   18 CL   UNL     1      39.190  -9.917  -3.676  1.00  0.00    -0.084 Cl
HETATM   19  C   UNL     1      40.458 -10.135  -1.305  1.00  0.00     0.024 A 
HETATM   20  C   UNL     1      41.000 -10.860  -0.239  1.00  0.00     0.015 A 
ENDBRANCH   8  14
BRANCH   1  21
HETATM   21  C   UNL     1      43.384 -18.195   3.220  1.00  0.00     0.055 A 
HETATM   22  C   UNL     1      43.252 -19.203   2.255  1.00  0.00     0.031 A 
HETATM   23  C   UNL     1      43.615 -20.523   2.539  1.00  0.00     0.002 A 
HETATM   24  C   UNL     1      44.113 -20.859   3.794  1.00  0.00     0.000 A 
HETATM   25  C   UNL     1      44.243 -19.876   4.769  1.00  0.00     0.002 A 
HETATM   26  C   UNL     1      43.880 -18.555   4.485  1.00  0.00     0.031 A 
ENDBRANCH   1  21
TORSDOF 2
ENDMDL
MODEL 8
REMARK VINA RESULT:      -8.0      4.856      7.171
REMARK  2 active torsions:
REMARK  status: ('A' for Active; 'I' for Inactive)
REMARK    1  A    between atoms: C_4  and  N_5 
REMARK    2  A    between atoms: C_12  and  C_13 
ROOT
HETATM    1  N   UNL     1      40.434 -12.572   0.144  1.00  0.00    -0.236 N 
HETATM    2  N   UNL     1      41.186 -13.768   0.120  1.00  0.00    -0.179 NA
HETATM    3  C   UNL     1      41.224 -14.225   1.423  1.00  0.00     0.119 A 
HETATM    4  C   UNL     1      40.503 -13.452   2.252  1.00  0.00     0.123 A 
HETATM    5  C   UNL     1      39.969 -12.341   1.448  1.00  0.00     0.280 A 
HETATM    6  O   UNL     1      39.284 -11.430   1.882  1.00  0.00    -0.265 OA
HETATM    7  N   UNL     1      41.923 -15.304   1.893  1.00  0.00    -0.344 N 
HETATM    8  C   UNL     1      41.853 -15.693   3.218  1.00  0.00     0.047 A 
HETATM    9  C   UNL     1      41.160 -14.983   4.127  1.00  0.00     0.086 A 
HETATM   10  C   UNL     1      40.424 -13.762   3.681  1.00  0.00     0.193 A 
HETATM   11  O   UNL     1      39.803 -13.092   4.495  1.00  0.00    -0.287 OA
HETATM   12  H   UNL     1      42.131 -13.621  -0.235  1.00  0.00     0.155 HD
HETATM   13  H   UNL     1      42.258 -15.979   1.212  1.00  0.00     0.167 HD
ENDROOT
BRANCH   8  14
HETATM   14  C   UNL     1      42.594 -16.906   3.615  1.00  0.00    -0.009 A 
HETATM   15  C   UNL     1      43.011 -17.849   2.662  1.00  0.00     0.015 A 
HETATM   16  C   UNL     1      43.716 -18.991   3.052  1.00  0.00     0.024 A 
HETATM   17  C   UNL     1      44.015 -19.196   4.397  1.00  0.00     0.034 A 
HETATM   18 CL   UNL     1      44.883 -20.600   4.877  1.00  0.00    -0.084 Cl
HETATM   19  C   UNL     1      43.614 -18.269   5.356  1.00  0.00     0.024 A 
HETATM   20  C   UNL     1      42.907 -17.127   4.966  1.00  0.00     0.015 A 
ENDBRANCH   8  14
BRANCH   1  21
HETATM   21  C   UNL     1      40.232 -11.823  -1.035  1.00  0.00     0.055 A 
HETATM   22  C   UNL     1      41.219 -10.958  -1.525  1.00  0.00     0.031 A 
HETATM   23  C   UNL     1      41.020 -10.234  -2.705  1.00  0.00     0.002 A 
HETATM   24  C   UNL     1      39.828 -10.360  -3.411  1.00  0.00     0.000 A 
HETATM   25  C   UNL     1      38.832 -11.206  -2.936  1.00  0.00     0.002 A 
HETATM   26  C   UNL     1      39.032 -11.931  -1.757  1.00  0.00     0.031 A 
ENDBRANCH   1  21
TORSDOF 2
ENDMDL
MODEL 9
REMARK VINA RESULT:      -8.0      5.684      8.340
REMARK  2 active torsions:
REMARK  status: ('A' for Active; 'I' for Inactive)
REMARK    1  A    between atoms: C_4  and  N_5 
REMARK    2  A    between atoms: C_12  and  C_13 
ROOT
HETATM    1  N   UNL     1      42.275 -15.202   2.295  1.00  0.00    -0.236 N 
HETATM    2  N   UNL     1      41.202 -15.389   1.396  1.00  0.00    -0.179 NA
HETATM    3  C   UNL     1      40.840 -14.128   0.960  1.00  0.00     0.119 A 
HETATM    4  C   UNL     1      41.640 -13.172   1.460  1.00  0.00     0.123 A 
HETATM    5  C   UNL     1      42.600 -13.837   2.355  1.00  0.00     0.280 A 
HETATM    6  O   UNL     1      43.464 -13.269   3.000  1.00  0.00    -0.265 OA
HETATM    7  N   UNL     1      39.783 -13.814   0.151  1.00  0.00    -0.344 N 
HETATM    8  C   UNL     1      39.541 -12.514  -0.255  1.00  0.00     0.047 A 
HETATM    9  C   UNL     1      40.283 -11.484   0.193  1.00  0.00     0.086 A 
HETATM   10  C   UNL     1      41.416 -11.763   1.126  1.00  0.00     0.193 A 
HETATM   11  O   UNL     1      42.092 -10.840   1.559  1.00  0.00    -0.287 OA
HETATM   12  H   UNL     1      40.409 -15.856   1.836  1.00  0.00     0.155 HD
HETATM   13  H   UNL     1      39.355 -14.568  -0.379  1.00  0.00     0.167 HD
ENDROOT
BRANCH   8  14
HETATM   14  C   UNL     1      38.412 -12.283  -1.177  1.00  0.00    -0.009 A 
HETATM   15  C   UNL     1      37.951 -13.299  -2.031  1.00  0.00     0.015 A 
HETATM   16  C   UNL     1      36.878 -13.068  -2.897  1.00  0.00     0.024 A 
HETATM   17  C   UNL     1      36.255 -11.822  -2.912  1.00  0.00     0.034 A 
HETATM   18 CL   UNL     1      34.935 -11.538  -3.977  1.00  0.00    -0.084 Cl
HETATM   19  C   UNL     1      36.696 -10.805  -2.069  1.00  0.00     0.024 A 
HETATM   20  C   UNL     1      37.770 -11.035  -1.204  1.00  0.00     0.015 A 
ENDBRANCH   8  14
BRANCH   1  21
HETATM   21  C   UNL     1      42.864 -16.301   2.954  1.00  0.00     0.055 A 
HETATM   22  C   UNL     1      43.138 -16.264   4.328  1.00  0.00     0.031 A 
HETATM   23  C   UNL     1      43.703 -17.366   4.979  1.00  0.00     0.002 A 
HETATM   24  C   UNL     1      44.007 -18.521   4.266  1.00  0.00     0.000 A 
HETATM   25  C   UNL     1      43.753 -18.574   2.899  1.00  0.00     0.002 A 
HETATM   26  C   UNL     1      43.186 -17.473   2.249  1.00  0.00     0.031 A 
ENDBRANCH   1  21
TORSDOF 2
ENDMDL
MODEL 10
REMARK VINA RESULT:      -7.9      3.071      4.521
REMARK  2 active torsions:
REMARK  status: ('A' for Active; 'I' for Inactive)
REMARK    1  A    between atoms: C_4  and  N_5 
REMARK    2  A    between atoms: C_12  and  C_13 
ROOT
HETATM    1  N   UNL     1      43.563  -9.209   9.761  1.00  0.00    -0.236 N 
HETATM    2  N   UNL     1      42.577  -9.987   9.114  1.00  0.00    -0.179 NA
HETATM    3  C   UNL     1      43.235 -10.703   8.132  1.00  0.00     0.119 A 
HETATM    4  C   UNL     1      44.561 -10.490   8.153  1.00  0.00     0.123 A 
HETATM    5  C   UNL     1      44.821  -9.500   9.211  1.00  0.00     0.280 A 
HETATM    6  O   UNL     1      45.919  -9.053   9.495  1.00  0.00    -0.265 OA
HETATM    7  N   UNL     1      42.665 -11.519   7.193  1.00  0.00    -0.344 N 
HETATM    8  C   UNL     1      43.431 -12.221   6.280  1.00  0.00     0.047 A 
HETATM    9  C   UNL     1      44.768 -12.073   6.218  1.00  0.00     0.086 A 
HETATM   10  C   UNL     1      45.437 -11.150   7.183  1.00  0.00     0.193 A 
HETATM   11  O   UNL     1      46.648 -10.987   7.132  1.00  0.00    -0.287 OA
HETATM   12  H   UNL     1      41.841  -9.411   8.704  1.00  0.00     0.155 HD
HETATM   13  H   UNL     1      41.711 -11.827   7.354  1.00  0.00     0.167 HD
ENDROOT
BRANCH   8  14
HETATM   14  C   UNL     1      42.729 -13.122   5.346  1.00  0.00    -0.009 A 
HETATM   15  C   UNL     1      43.024 -13.119   3.973  1.00  0.00     0.015 A 
HETATM   16  C   UNL     1      42.355 -13.982   3.100  1.00  0.00     0.024 A 
HETATM   17  C   UNL     1      41.390 -14.857   3.594  1.00  0.00     0.034 A 
HETATM   18 CL   UNL     1      40.568 -15.918   2.520  1.00  0.00    -0.084 Cl
HETATM   19  C   UNL     1      41.088 -14.877   4.953  1.00  0.00     0.024 A 
HETATM   20  C   UNL     1      41.757 -14.013   5.826  1.00  0.00     0.015 A 
ENDBRANCH   8  14
BRANCH   1  21
HETATM   21  C   UNL     1      43.214  -8.325  10.804  1.00  0.00     0.055 A 
HETATM   22  C   UNL     1      42.586  -7.101  10.541  1.00  0.00     0.031 A 
HETATM   23  C   UNL     1      42.226  -6.238  11.581  1.00  0.00     0.002 A 
HETATM   24  C   UNL     1      42.492  -6.584  12.902  1.00  0.00     0.000 A 
HETATM   25  C   UNL     1      43.124  -7.791  13.184  1.00  0.00     0.002 A 
HETATM   26  C   UNL     1      43.483  -8.653  12.143  1.00  0.00     0.031 A 
ENDBRANCH   1  21
TORSDOF 2
ENDMDL
