MODEL 1
REMARK VINA RESULT:      -9.2      0.000      0.000
REMARK  3 active torsions:
REMARK  status: ('A' for Active; 'I' for Inactive)
REMARK    1  A    between atoms: C_2  and  C_3 
REMARK    2  A    between atoms: C_18  and  C_19 
REMARK    3  A    between atoms: C_22  and  O_23 
ROOT
HETATM    1  C   UNL     1      40.412 -11.723   4.150  1.00  0.00     0.060 C 
HETATM    2  C   UNL     1      41.702 -12.301   3.487  1.00  0.00     0.210 C 
HETATM    3  N   UNL     1      42.177 -11.399   2.404  1.00  0.00     0.110 N 
HETATM    4  C   UNL     1      41.223 -10.939   1.387  1.00  0.00     0.367 C 
HETATM    5  C   UNL     1      40.744 -12.099   0.521  1.00  0.00     0.230 C 
HETATM    6  O   UNL     1      41.189 -12.322  -0.601  1.00  0.00    -0.278 OA
HETATM    7  N   UNL     1      39.857 -12.946   1.178  1.00  0.00    -0.227 NA
HETATM    8  C   UNL     1      40.517 -13.985   1.881  1.00  0.00     0.024 A 
HETATM    9  C   UNL     1      41.450 -13.732   2.914  1.00  0.00     0.007 A 
HETATM   10  C   UNL     1      40.267 -15.277   1.410  1.00  0.00     0.025 A 
HETATM   11  C   UNL     1      40.968 -16.361   1.929  1.00  0.00     0.014 A 
HETATM   12  C   UNL     1      41.960 -16.171   2.897  1.00  0.00    -0.025 A 
HETATM   13  C   UNL     1      42.189 -14.855   3.360  1.00  0.00     0.024 A 
HETATM   14  H   UNL     1      42.947 -11.874   1.927  1.00  0.00     0.318 HD
HETATM   15  H   UNL     1      39.297 -12.407   1.823  1.00  0.00     0.136 HD
ENDROOT
BRANCH  12  16
HETATM   16  C   UNL     1      42.747 -17.314   3.405  1.00  0.00    -0.026 A 
HETATM   17  C   UNL     1      43.089 -18.391   2.563  1.00  0.00     0.015 A 
HETATM   18  C   UNL     1      43.813 -19.488   3.040  1.00  0.00     0.037 A 
HETATM   19  C   UNL     1      44.209 -19.517   4.370  1.00  0.00     0.065 A 
HETATM   20  C   UNL     1      43.896 -18.469   5.224  1.00  0.00     0.037 A 
HETATM   21  C   UNL     1      43.169 -17.376   4.744  1.00  0.00     0.015 A 
BRANCH  19  22
HETATM   22  O   UNL     1      44.912 -20.568   4.880  1.00  0.00    -0.361 OA
HETATM   23  H   UNL     1      44.292 -21.289   5.077  1.00  0.00     0.217 HD
ENDBRANCH  19  22
ENDBRANCH  12  16
BRANCH   2  24
HETATM   24  C   UNL     1      42.757 -12.268   4.655  1.00  0.00    -0.016 A 
HETATM   25  C   UNL     1      43.950 -11.515   4.535  1.00  0.00     0.010 A 
HETATM   26  C   UNL     1      44.917 -11.504   5.545  1.00  0.00     0.001 A 
HETATM   27  C   UNL     1      44.725 -12.253   6.700  1.00  0.00     0.000 A 
HETATM   28  C   UNL     1      43.566 -13.006   6.848  1.00  0.00     0.001 A 
HETATM   29  C   UNL     1      42.595 -13.014   5.840  1.00  0.00     0.010 A 
ENDBRANCH   2  24
TORSDOF 3
ENDMDL
MODEL 2
REMARK VINA RESULT:      -9.1      2.224      4.414
REMARK  3 active torsions:
REMARK  status: ('A' for Active; 'I' for Inactive)
REMARK    1  A    between atoms: C_2  and  C_3 
REMARK    2  A    between atoms: C_18  and  C_19 
REMARK    3  A    between atoms: C_22  and  O_23 
ROOT
HETATM    1  C   UNL     1      41.675 -11.348   2.656  1.00  0.00     0.060 C 
HETATM    2  C   UNL     1      40.858 -12.652   2.917  1.00  0.00     0.210 C 
HETATM    3  N   UNL     1      39.532 -12.325   3.506  1.00  0.00     0.110 N 
HETATM    4  C   UNL     1      39.468 -11.422   4.663  1.00  0.00     0.367 C 
HETATM    5  C   UNL     1      40.110 -12.058   5.890  1.00  0.00     0.230 C 
HETATM    6  O   UNL     1      39.458 -12.579   6.791  1.00  0.00    -0.278 OA
HETATM    7  N   UNL     1      41.499 -12.107   5.822  1.00  0.00    -0.227 NA
HETATM    8  C   UNL     1      41.972 -13.285   5.192  1.00  0.00     0.024 A 
HETATM    9  C   UNL     1      41.634 -13.624   3.862  1.00  0.00     0.007 A 
HETATM   10  C   UNL     1      42.707 -14.146   6.012  1.00  0.00     0.025 A 
HETATM   11  C   UNL     1      43.100 -15.395   5.543  1.00  0.00     0.014 A 
HETATM   12  C   UNL     1      42.731 -15.825   4.264  1.00  0.00    -0.025 A 
HETATM   13  C   UNL     1      41.993 -14.933   3.454  1.00  0.00     0.024 A 
HETATM   14  H   UNL     1      39.087 -13.208   3.766  1.00  0.00     0.318 HD
HETATM   15  H   UNL     1      41.836 -11.298   5.319  1.00  0.00     0.136 HD
ENDROOT
BRANCH  12  16
HETATM   16  C   UNL     1      43.097 -17.176   3.788  1.00  0.00    -0.026 A 
HETATM   17  C   UNL     1      42.653 -17.648   2.538  1.00  0.00     0.015 A 
HETATM   18  C   UNL     1      42.974 -18.933   2.087  1.00  0.00     0.037 A 
HETATM   19  C   UNL     1      43.752 -19.760   2.886  1.00  0.00     0.065 A 
HETATM   20  C   UNL     1      44.213 -19.322   4.120  1.00  0.00     0.037 A 
HETATM   21  C   UNL     1      43.887 -18.039   4.567  1.00  0.00     0.015 A 
BRANCH  19  22
HETATM   22  O   UNL     1      44.087 -21.021   2.491  1.00  0.00    -0.361 OA
HETATM   23  H   UNL     1      44.913 -20.977   1.983  1.00  0.00     0.217 HD
ENDBRANCH  19  22
ENDBRANCH  12  16
BRANCH   2  24
HETATM   24  C   UNL     1      40.625 -13.232   1.471  1.00  0.00    -0.016 A 
HETATM   25  C   UNL     1      40.935 -12.464   0.323  1.00  0.00     0.010 A 
HETATM   26  C   UNL     1      40.699 -12.946  -0.968  1.00  0.00     0.001 A 
HETATM   27  C   UNL     1      40.139 -14.205  -1.150  1.00  0.00     0.000 A 
HETATM   28  C   UNL     1      39.820 -14.983  -0.042  1.00  0.00     0.001 A 
HETATM   29  C   UNL     1      40.060 -14.503   1.250  1.00  0.00     0.010 A 
ENDBRANCH   2  24
TORSDOF 3
ENDMDL
MODEL 3
REMARK VINA RESULT:      -9.0      2.661      5.749
REMARK  3 active torsions:
REMARK  status: ('A' for Active; 'I' for Inactive)
REMARK    1  A    between atoms: C_2  and  C_3 
REMARK    2  A    between atoms: C_18  and  C_19 
REMARK    3  A    between atoms: C_22  and  O_23 
ROOT
HETATM    1  C   UNL     1      43.068 -16.001   1.589  1.00  0.00     0.060 C 
HETATM    2  C   UNL     1      42.248 -15.456   2.800  1.00  0.00     0.210 C 
HETATM    3  N   UNL     1      40.793 -15.677   2.582  1.00  0.00     0.110 N 
HETATM    4  C   UNL     1      40.191 -15.262   1.308  1.00  0.00     0.367 C 
HETATM    5  C   UNL     1      40.214 -13.746   1.158  1.00  0.00     0.230 C 
HETATM    6  O   UNL     1      39.233 -13.039   1.370  1.00  0.00    -0.278 OA
HETATM    7  N   UNL     1      41.482 -13.239   0.890  1.00  0.00    -0.227 NA
HETATM    8  C   UNL     1      42.213 -12.949   2.068  1.00  0.00     0.024 A 
HETATM    9  C   UNL     1      42.525 -13.937   3.032  1.00  0.00     0.007 A 
HETATM   10  C   UNL     1      42.510 -11.598   2.270  1.00  0.00     0.025 A 
HETATM   11  C   UNL     1      43.097 -11.179   3.459  1.00  0.00     0.014 A 
HETATM   12  C   UNL     1      43.361 -12.093   4.485  1.00  0.00    -0.025 A 
HETATM   13  C   UNL     1      43.056 -13.454   4.254  1.00  0.00     0.024 A 
HETATM   14  H   UNL     1      40.295 -15.201   3.339  1.00  0.00     0.318 HD
HETATM   15  H   UNL     1      41.995 -13.906   0.331  1.00  0.00     0.136 HD
ENDROOT
BRANCH  12  16
HETATM   16  C   UNL     1      43.930 -11.639   5.772  1.00  0.00    -0.026 A 
HETATM   17  C   UNL     1      45.320 -11.481   5.934  1.00  0.00     0.015 A 
HETATM   18  C   UNL     1      45.871 -11.074   7.154  1.00  0.00     0.037 A 
HETATM   19  C   UNL     1      45.030 -10.814   8.228  1.00  0.00     0.065 A 
HETATM   20  C   UNL     1      43.655 -10.952   8.099  1.00  0.00     0.037 A 
HETATM   21  C   UNL     1      43.109 -11.362   6.879  1.00  0.00     0.015 A 
BRANCH  19  22
HETATM   22  O   UNL     1      45.522 -10.420   9.436  1.00  0.00    -0.361 OA
HETATM   23  H   UNL     1      45.524 -11.185  10.034  1.00  0.00     0.217 HD
ENDBRANCH  19  22
ENDBRANCH  12  16
BRANCH   2  24
HETATM   24  C   UNL     1      42.711 -16.371   3.995  1.00  0.00    -0.016 A 
HETATM   25  C   UNL     1      43.774 -17.292   3.834  1.00  0.00     0.010 A 
HETATM   26  C   UNL     1      44.175 -18.139   4.871  1.00  0.00     0.001 A 
HETATM   27  C   UNL     1      43.519 -18.098   6.096  1.00  0.00     0.000 A 
HETATM   28  C   UNL     1      42.468 -17.207   6.285  1.00  0.00     0.001 A 
HETATM   29  C   UNL     1      42.070 -16.355   5.250  1.00  0.00     0.010 A 
ENDBRANCH   2  24
TORSDOF 3
ENDMDL
MODEL 4
REMARK VINA RESULT:      -8.8      3.292      6.296
REMARK  3 active torsions:
REMARK  status: ('A' for Active; 'I' for Inactive)
REMARK    1  A    between atoms: C_2  and  C_3 
REMARK    2  A    between atoms: C_18  and  C_19 
REMARK    3  A    between atoms: C_22  and  O_23 
ROOT
HETATM    1  C   UNL     1      40.748 -13.916   5.082  1.00  0.00     0.060 C 
HETATM    2  C   UNL     1      41.402 -13.390   3.766  1.00  0.00     0.210 C 
HETATM    3  N   UNL     1      42.501 -12.438   4.077  1.00  0.00     0.110 N 
HETATM    4  C   UNL     1      42.249 -11.337   5.016  1.00  0.00     0.367 C 
HETATM    5  C   UNL     1      41.247 -10.344   4.440  1.00  0.00     0.230 C 
HETATM    6  O   UNL     1      41.580  -9.277   3.933  1.00  0.00    -0.278 OA
HETATM    7  N   UNL     1      39.941 -10.825   4.427  1.00  0.00    -0.227 NA
HETATM    8  C   UNL     1      39.635 -11.540   3.242  1.00  0.00     0.024 A 
HETATM    9  C   UNL     1      40.344 -12.698   2.848  1.00  0.00     0.007 A 
HETATM   10  C   UNL     1      38.658 -10.958   2.429  1.00  0.00     0.025 A 
HETATM   11  C   UNL     1      38.379 -11.492   1.176  1.00  0.00     0.014 A 
HETATM   12  C   UNL     1      39.098 -12.591   0.693  1.00  0.00    -0.025 A 
HETATM   13  C   UNL     1      40.077 -13.164   1.536  1.00  0.00     0.024 A 
HETATM   14  H   UNL     1      42.816 -12.035   3.191  1.00  0.00     0.318 HD
HETATM   15  H   UNL     1      39.799 -11.426   5.227  1.00  0.00     0.136 HD
ENDROOT
BRANCH  12  16
HETATM   16  C   UNL     1      38.843 -13.122  -0.663  1.00  0.00    -0.026 A 
HETATM   17  C   UNL     1      37.802 -12.607  -1.460  1.00  0.00     0.015 A 
HETATM   18  C   UNL     1      37.537 -13.118  -2.735  1.00  0.00     0.037 A 
HETATM   19  C   UNL     1      38.320 -14.152  -3.229  1.00  0.00     0.065 A 
HETATM   20  C   UNL     1      39.359 -14.677  -2.474  1.00  0.00     0.037 A 
HETATM   21  C   UNL     1      39.617 -14.166  -1.198  1.00  0.00     0.015 A 
BRANCH  19  22
HETATM   22  O   UNL     1      38.096 -14.685  -4.464  1.00  0.00    -0.361 OA
HETATM   23  H   UNL     1      37.149 -14.880  -4.550  1.00  0.00     0.217 HD
ENDBRANCH  19  22
ENDBRANCH  12  16
BRANCH   2  24
HETATM   24  C   UNL     1      42.035 -14.685   3.132  1.00  0.00    -0.016 A 
HETATM   25  C   UNL     1      43.070 -14.590   2.170  1.00  0.00     0.010 A 
HETATM   26  C   UNL     1      43.618 -15.727   1.567  1.00  0.00     0.001 A 
HETATM   27  C   UNL     1      43.142 -16.989   1.900  1.00  0.00     0.000 A 
HETATM   28  C   UNL     1      42.124 -17.116   2.838  1.00  0.00     0.001 A 
HETATM   29  C   UNL     1      41.578 -15.980   3.446  1.00  0.00     0.010 A 
ENDBRANCH   2  24
TORSDOF 3
ENDMDL
MODEL 5
REMARK VINA RESULT:      -8.6      2.676      6.237
REMARK  3 active torsions:
REMARK  status: ('A' for Active; 'I' for Inactive)
REMARK    1  A    between atoms: C_2  and  C_3 
REMARK    2  A    between atoms: C_18  and  C_19 
REMARK    3  A    between atoms: C_22  and  O_23 
ROOT
HETATM    1  C   UNL     1      41.480 -16.000   6.279  1.00  0.00     0.060 C 
HETATM    2  C   UNL     1      42.381 -15.362   5.175  1.00  0.00     0.210 C 
HETATM    3  N   UNL     1      43.621 -14.802   5.776  1.00  0.00     0.110 N 
HETATM    4  C   UNL     1      43.512 -13.918   6.944  1.00  0.00     0.367 C 
HETATM    5  C   UNL     1      42.828 -12.607   6.576  1.00  0.00     0.230 C 
HETATM    6  O   UNL     1      43.446 -11.566   6.371  1.00  0.00    -0.278 OA
HETATM    7  N   UNL     1      41.458 -12.740   6.368  1.00  0.00    -0.227 NA
HETATM    8  C   UNL     1      41.141 -13.069   5.027  1.00  0.00     0.024 A 
HETATM    9  C   UNL     1      41.616 -14.243   4.399  1.00  0.00     0.007 A 
HETATM   10  C   UNL     1      40.417 -12.097   4.330  1.00  0.00     0.025 A 
HETATM   11  C   UNL     1      40.172 -12.247   2.969  1.00  0.00     0.014 A 
HETATM   12  C   UNL     1      40.680 -13.347   2.270  1.00  0.00    -0.025 A 
HETATM   13  C   UNL     1      41.405 -14.318   3.000  1.00  0.00     0.024 A 
HETATM   14  H   UNL     1      44.117 -14.296   5.039  1.00  0.00     0.318 HD
HETATM   15  H   UNL     1      41.097 -13.455   6.984  1.00  0.00     0.136 HD
ENDROOT
BRANCH  12  16
HETATM   16  C   UNL     1      40.471 -13.477   0.813  1.00  0.00    -0.026 A 
HETATM   17  C   UNL     1      39.893 -14.638   0.263  1.00  0.00     0.015 A 
HETATM   18  C   UNL     1      39.712 -14.780  -1.116  1.00  0.00     0.037 A 
HETATM   19  C   UNL     1      40.105 -13.754  -1.964  1.00  0.00     0.065 A 
HETATM   20  C   UNL     1      40.670 -12.593  -1.455  1.00  0.00     0.037 A 
HETATM   21  C   UNL     1      40.852 -12.456  -0.076  1.00  0.00     0.015 A 
BRANCH  19  22
HETATM   22  O   UNL     1      39.952 -13.850  -3.316  1.00  0.00    -0.361 OA
HETATM   23  H   UNL     1      39.212 -14.450  -3.501  1.00  0.00     0.217 HD
ENDBRANCH  19  22
ENDBRANCH  12  16
BRANCH   2  24
HETATM   24  C   UNL     1      42.781 -16.592   4.276  1.00  0.00    -0.016 A 
HETATM   25  C   UNL     1      43.872 -17.423   4.627  1.00  0.00     0.010 A 
HETATM   26  C   UNL     1      44.265 -18.496   3.821  1.00  0.00     0.001 A 
HETATM   27  C   UNL     1      43.588 -18.763   2.638  1.00  0.00     0.000 A 
HETATM   28  C   UNL     1      42.514 -17.963   2.263  1.00  0.00     0.001 A 
HETATM   29  C   UNL     1      42.116 -16.892   3.071  1.00  0.00     0.010 A 
ENDBRANCH   2  24
TORSDOF 3
ENDMDL
MODEL 6
REMARK VINA RESULT:      -8.2      6.916      9.845
REMARK  3 active torsions:
REMARK  status: ('A' for Active; 'I' for Inactive)
REMARK    1  A    between atoms: C_2  and  C_3 
REMARK    2  A    between atoms: C_18  and  C_19 
REMARK    3  A    between atoms: C_22  and  O_23 
ROOT
HETATM    1  C   UNL     1      40.645  -6.758  12.039  1.00  0.00     0.060 C 
HETATM    2  C   UNL     1      40.445  -7.989  11.100  1.00  0.00     0.210 C 
HETATM    3  N   UNL     1      39.169  -8.684  11.418  1.00  0.00     0.110 N 
HETATM    4  C   UNL     1      38.875  -9.033  12.814  1.00  0.00     0.367 C 
HETATM    5  C   UNL     1      39.843 -10.091  13.330  1.00  0.00     0.230 C 
HETATM    6  O   UNL     1      39.550 -11.281  13.411  1.00  0.00    -0.278 OA
HETATM    7  N   UNL     1      41.121  -9.597  13.572  1.00  0.00    -0.227 NA
HETATM    8  C   UNL     1      41.954  -9.659  12.427  1.00  0.00     0.024 A 
HETATM    9  C   UNL     1      41.639  -8.990  11.221  1.00  0.00     0.007 A 
HETATM   10  C   UNL     1      43.052 -10.516  12.533  1.00  0.00     0.025 A 
HETATM   11  C   UNL     1      43.857 -10.765  11.426  1.00  0.00     0.014 A 
HETATM   12  C   UNL     1      43.556 -10.198  10.183  1.00  0.00    -0.025 A 
HETATM   13  C   UNL     1      42.443  -9.330  10.104  1.00  0.00     0.024 A 
HETATM   14  H   UNL     1      39.142  -9.542  10.863  1.00  0.00     0.318 HD
HETATM   15  H   UNL     1      41.053  -8.640  13.887  1.00  0.00     0.136 HD
ENDROOT
BRANCH  12  16
HETATM   16  C   UNL     1      44.376 -10.509   8.993  1.00  0.00    -0.026 A 
HETATM   17  C   UNL     1      45.618  -9.879   8.783  1.00  0.00     0.015 A 
HETATM   18  C   UNL     1      46.390 -10.150   7.649  1.00  0.00     0.037 A 
HETATM   19  C   UNL     1      45.927 -11.064   6.711  1.00  0.00     0.065 A 
HETATM   20  C   UNL     1      44.712 -11.709   6.893  1.00  0.00     0.037 A 
HETATM   21  C   UNL     1      43.941 -11.433   8.026  1.00  0.00     0.015 A 
BRANCH  19  22
HETATM   22  O   UNL     1      46.644 -11.356   5.589  1.00  0.00    -0.361 OA
HETATM   23  H   UNL     1      47.552 -11.033   5.709  1.00  0.00     0.217 HD
ENDBRANCH  19  22
ENDBRANCH  12  16
BRANCH   2  24
HETATM   24  C   UNL     1      40.310  -7.340   9.672  1.00  0.00    -0.016 A 
HETATM   25  C   UNL     1      41.056  -6.187   9.325  1.00  0.00     0.010 A 
HETATM   26  C   UNL     1      40.921  -5.574   8.076  1.00  0.00     0.001 A 
HETATM   27  C   UNL     1      40.030  -6.088   7.141  1.00  0.00     0.000 A 
HETATM   28  C   UNL     1      39.280  -7.216   7.452  1.00  0.00     0.001 A 
HETATM   29  C   UNL     1      39.418  -7.835   8.699  1.00  0.00     0.010 A 
ENDBRANCH   2  24
TORSDOF 3
ENDMDL
MODEL 7
REMARK VINA RESULT:      -8.0      2.577      5.912
REMARK  3 active torsions:
REMARK  status: ('A' for Active; 'I' for Inactive)
REMARK    1  A    between atoms: C_2  and  C_3 
REMARK    2  A    between atoms: C_18  and  C_19 
REMARK    3  A    between atoms: C_22  and  O_23 
ROOT
HETATM    1  C   UNL     1      43.937 -13.270   6.513  1.00  0.00     0.060 C 
HETATM    2  C   UNL     1      42.548 -13.835   6.077  1.00  0.00     0.210 C 
HETATM    3  N   UNL     1      42.013 -14.755   7.116  1.00  0.00     0.110 N 
HETATM    4  C   UNL     1      42.876 -15.823   7.636  1.00  0.00     0.367 C 
HETATM    5  C   UNL     1      43.183 -16.855   6.557  1.00  0.00     0.230 C 
HETATM    6  O   UNL     1      42.604 -17.935   6.481  1.00  0.00    -0.278 OA
HETATM    7  N   UNL     1      44.083 -16.397   5.599  1.00  0.00    -0.227 NA
HETATM    8  C   UNL     1      43.441 -15.734   4.523  1.00  0.00     0.024 A 
HETATM    9  C   UNL     1      42.646 -14.579   4.708  1.00  0.00     0.007 A 
HETATM   10  C   UNL     1      43.556 -16.363   3.280  1.00  0.00     0.025 A 
HETATM   11  C   UNL     1      42.851 -15.881   2.183  1.00  0.00     0.014 A 
HETATM   12  C   UNL     1      41.986 -14.790   2.314  1.00  0.00    -0.025 A 
HETATM   13  C   UNL     1      41.892 -14.168   3.580  1.00  0.00     0.024 A 
HETATM   14  H   UNL     1      41.167 -15.186   6.735  1.00  0.00     0.318 HD
HETATM   15  H   UNL     1      44.743 -15.769   6.035  1.00  0.00     0.136 HD
ENDROOT
BRANCH  12  16
HETATM   16  C   UNL     1      41.190 -14.315   1.162  1.00  0.00    -0.026 A 
HETATM   17  C   UNL     1      40.316 -15.181   0.478  1.00  0.00     0.015 A 
HETATM   18  C   UNL     1      39.576 -14.748  -0.627  1.00  0.00     0.037 A 
HETATM   19  C   UNL     1      39.701 -13.434  -1.058  1.00  0.00     0.065 A 
HETATM   20  C   UNL     1      40.547 -12.552  -0.401  1.00  0.00     0.037 A 
HETATM   21  C   UNL     1      41.287 -12.990   0.701  1.00  0.00     0.015 A 
BRANCH  19  22
HETATM   22  O   UNL     1      39.003 -12.969  -2.133  1.00  0.00    -0.361 OA
HETATM   23  H   UNL     1      38.252 -12.444  -1.811  1.00  0.00     0.217 HD
ENDBRANCH  19  22
ENDBRANCH  12  16
BRANCH   2  24
HETATM   24  C   UNL     1      41.632 -12.554   6.034  1.00  0.00    -0.016 A 
HETATM   25  C   UNL     1      40.226 -12.665   6.142  1.00  0.00     0.010 A 
HETATM   26  C   UNL     1      39.393 -11.544   6.067  1.00  0.00     0.001 A 
HETATM   27  C   UNL     1      39.942 -10.282   5.872  1.00  0.00     0.000 A 
HETATM   28  C   UNL     1      41.320 -10.139   5.758  1.00  0.00     0.001 A 
HETATM   29  C   UNL     1      42.154 -11.260   5.839  1.00  0.00     0.010 A 
ENDBRANCH   2  24
TORSDOF 3
ENDMDL
MODEL 8
REMARK VINA RESULT:      -7.9     15.100     17.597
REMARK  3 active torsions:
REMARK  status: ('A' for Active; 'I' for Inactive)
REMARK    1  A    between atoms: C_2  and  C_3 
REMARK    2  A    between atoms: C_18  and  C_19 
REMARK    3  A    between atoms: C_22  and  O_23 
ROOT
HETATM    1  C   UNL     1      43.551 -29.189   2.508  1.00  0.00     0.060 C 
HETATM    2  C   UNL     1      44.410 -30.244   1.743  1.00  0.00     0.210 C 
HETATM    3  N   UNL     1      45.558 -30.684   2.579  1.00  0.00     0.110 N 
HETATM    4  C   UNL     1      46.411 -29.669   3.212  1.00  0.00     0.367 C 
HETATM    5  C   UNL     1      47.184 -28.874   2.168  1.00  0.00     0.230 C 
HETATM    6  O   UNL     1      48.363 -29.091   1.901  1.00  0.00    -0.278 OA
HETATM    7  N   UNL     1      46.391 -27.975   1.462  1.00  0.00    -0.227 NA
HETATM    8  C   UNL     1      45.799 -28.557   0.313  1.00  0.00     0.024 A 
HETATM    9  C   UNL     1      44.931 -29.670   0.386  1.00  0.00     0.007 A 
HETATM   10  C   UNL     1      46.220 -28.025  -0.909  1.00  0.00     0.025 A 
HETATM   11  C   UNL     1      45.817 -28.611  -2.105  1.00  0.00     0.014 A 
HETATM   12  C   UNL     1      45.021 -29.761  -2.103  1.00  0.00    -0.025 A 
HETATM   13  C   UNL     1      44.605 -30.276  -0.853  1.00  0.00     0.024 A 
HETATM   14  H   UNL     1      46.152 -31.278   1.996  1.00  0.00     0.318 HD
HETATM   15  H   UNL     1      45.666 -27.622   2.071  1.00  0.00     0.136 HD
ENDROOT
BRANCH  12  16
HETATM   16  C   UNL     1      44.642 -30.418  -3.371  1.00  0.00    -0.026 A 
HETATM   17  C   UNL     1      44.548 -31.821  -3.461  1.00  0.00     0.015 A 
HETATM   18  C   UNL     1      44.212 -32.454  -4.663  1.00  0.00     0.037 A 
HETATM   19  C   UNL     1      43.961 -31.685  -5.791  1.00  0.00     0.065 A 
HETATM   20  C   UNL     1      44.036 -30.300  -5.734  1.00  0.00     0.037 A 
HETATM   21  C   UNL     1      44.376 -29.672  -4.532  1.00  0.00     0.015 A 
BRANCH  19  22
HETATM   22  O   UNL     1      43.634 -32.258  -6.984  1.00  0.00    -0.361 OA
HETATM   23  H   UNL     1      43.445 -31.553  -7.624  1.00  0.00     0.217 HD
ENDBRANCH  19  22
ENDBRANCH  12  16
BRANCH   2  24
HETATM   24  C   UNL     1      43.427 -31.463   1.575  1.00  0.00    -0.016 A 
HETATM   25  C   UNL     1      42.032 -31.258   1.454  1.00  0.00     0.010 A 
HETATM   26  C   UNL     1      41.139 -32.328   1.343  1.00  0.00     0.001 A 
HETATM   27  C   UNL     1      41.614 -33.634   1.361  1.00  0.00     0.000 A 
HETATM   28  C   UNL     1      42.979 -33.870   1.482  1.00  0.00     0.001 A 
HETATM   29  C   UNL     1      43.873 -32.799   1.588  1.00  0.00     0.010 A 
ENDBRANCH   2  24
TORSDOF 3
ENDMDL
MODEL 9
REMARK VINA RESULT:      -7.8     11.518     14.213
REMARK  3 active torsions:
REMARK  status: ('A' for Active; 'I' for Inactive)
REMARK    1  A    between atoms: C_2  and  C_3 
REMARK    2  A    between atoms: C_18  and  C_19 
REMARK    3  A    between atoms: C_22  and  O_23 
ROOT
HETATM    1  C   UNL     1      39.438  -4.038  15.788  1.00  0.00     0.060 C 
HETATM    2  C   UNL     1      40.921  -4.523  15.775  1.00  0.00     0.210 C 
HETATM    3  N   UNL     1      41.817  -3.467  16.316  1.00  0.00     0.110 N 
HETATM    4  C   UNL     1      41.705  -2.098  15.795  1.00  0.00     0.367 C 
HETATM    5  C   UNL     1      42.135  -2.031  14.335  1.00  0.00     0.230 C 
HETATM    6  O   UNL     1      43.239  -1.626  13.981  1.00  0.00    -0.278 OA
HETATM    7  N   UNL     1      41.208  -2.594  13.462  1.00  0.00    -0.227 NA
HETATM    8  C   UNL     1      41.417  -3.982  13.268  1.00  0.00     0.024 A 
HETATM    9  C   UNL     1      41.374  -4.913  14.331  1.00  0.00     0.007 A 
HETATM   10  C   UNL     1      41.779  -4.356  11.971  1.00  0.00     0.025 A 
HETATM   11  C   UNL     1      42.147  -5.669  11.696  1.00  0.00     0.014 A 
HETATM   12  C   UNL     1      42.201  -6.623  12.717  1.00  0.00    -0.025 A 
HETATM   13  C   UNL     1      41.825  -6.220  14.019  1.00  0.00     0.024 A 
HETATM   14  H   UNL     1      42.780  -3.782  16.177  1.00  0.00     0.318 HD
HETATM   15  H   UNL     1      40.277  -2.441  13.822  1.00  0.00     0.136 HD
ENDROOT
BRANCH  12  16
HETATM   16  C   UNL     1      42.649  -8.003  12.437  1.00  0.00    -0.026 A 
HETATM   17  C   UNL     1      43.522  -8.279  11.367  1.00  0.00     0.015 A 
HETATM   18  C   UNL     1      43.934  -9.584  11.079  1.00  0.00     0.037 A 
HETATM   19  C   UNL     1      43.479 -10.632  11.868  1.00  0.00     0.065 A 
HETATM   20  C   UNL     1      42.625 -10.394  12.936  1.00  0.00     0.037 A 
HETATM   21  C   UNL     1      42.213  -9.088  13.218  1.00  0.00     0.015 A 
BRANCH  19  22
HETATM   22  O   UNL     1      43.850 -11.920  11.623  1.00  0.00    -0.361 OA
HETATM   23  H   UNL     1      43.097 -12.502  11.816  1.00  0.00     0.217 HD
ENDBRANCH  19  22
ENDBRANCH  12  16
BRANCH   2  24
HETATM   24  C   UNL     1      40.919  -5.732  16.783  1.00  0.00    -0.016 A 
HETATM   25  C   UNL     1      39.725  -6.437  17.067  1.00  0.00     0.010 A 
HETATM   26  C   UNL     1      39.695  -7.489  17.988  1.00  0.00     0.001 A 
HETATM   27  C   UNL     1      40.854  -7.860  18.659  1.00  0.00     0.000 A 
HETATM   28  C   UNL     1      42.043  -7.185  18.405  1.00  0.00     0.001 A 
HETATM   29  C   UNL     1      42.075  -6.136  17.480  1.00  0.00     0.010 A 
ENDBRANCH   2  24
TORSDOF 3
ENDMDL
MODEL 10
REMARK VINA RESULT:      -7.8      1.710      2.127
REMARK  3 active torsions:
REMARK  status: ('A' for Active; 'I' for Inactive)
REMARK    1  A    between atoms: C_2  and  C_3 
REMARK    2  A    between atoms: C_18  and  C_19 
REMARK    3  A    between atoms: C_22  and  O_23 
ROOT
HETATM    1  C   UNL     1      38.407 -11.327   2.414  1.00  0.00     0.060 C 
HETATM    2  C   UNL     1      39.927 -11.610   2.201  1.00  0.00     0.210 C 
HETATM    3  N   UNL     1      40.494 -10.670   1.198  1.00  0.00     0.110 N 
HETATM    4  C   UNL     1      39.806 -10.496  -0.088  1.00  0.00     0.367 C 
HETATM    5  C   UNL     1      39.864 -11.773  -0.917  1.00  0.00     0.230 C 
HETATM    6  O   UNL     1      40.656 -11.933  -1.841  1.00  0.00    -0.278 OA
HETATM    7  N   UNL     1      39.027 -12.777  -0.440  1.00  0.00    -0.227 NA
HETATM    8  C   UNL     1      39.658 -13.597   0.528  1.00  0.00     0.024 A 
HETATM    9  C   UNL     1      40.168 -13.084   1.743  1.00  0.00     0.007 A 
HETATM   10  C   UNL     1      39.842 -14.931   0.153  1.00  0.00     0.025 A 
HETATM   11  C   UNL     1      40.575 -15.792   0.962  1.00  0.00     0.014 A 
HETATM   12  C   UNL     1      41.173 -15.330   2.139  1.00  0.00    -0.025 A 
HETATM   13  C   UNL     1      40.968 -13.978   2.498  1.00  0.00     0.024 A 
HETATM   14  H   UNL     1      41.454 -10.969   1.007  1.00  0.00     0.318 HD
HETATM   15  H   UNL     1      38.200 -12.358  -0.039  1.00  0.00     0.136 HD
ENDROOT
BRANCH  12  16
HETATM   16  C   UNL     1      42.002 -16.229   2.968  1.00  0.00    -0.026 A 
HETATM   17  C   UNL     1      42.797 -17.231   2.379  1.00  0.00     0.015 A 
HETATM   18  C   UNL     1      43.567 -18.103   3.156  1.00  0.00     0.037 A 
HETATM   19  C   UNL     1      43.554 -17.976   4.538  1.00  0.00     0.065 A 
HETATM   20  C   UNL     1      42.788 -16.994   5.151  1.00  0.00     0.037 A 
HETATM   21  C   UNL     1      42.017 -16.127   4.370  1.00  0.00     0.015 A 
BRANCH  19  22
HETATM   22  O   UNL     1      44.285 -18.805   5.335  1.00  0.00    -0.361 OA
HETATM   23  H   UNL     1      45.222 -18.718   5.096  1.00  0.00     0.217 HD
ENDBRANCH  19  22
ENDBRANCH  12  16
BRANCH   2  24
HETATM   24  C   UNL     1      40.559 -11.275   3.604  1.00  0.00    -0.016 A 
HETATM   25  C   UNL     1      41.849 -10.700   3.700  1.00  0.00     0.010 A 
HETATM   26  C   UNL     1      42.443 -10.432   4.937  1.00  0.00     0.001 A 
HETATM   27  C   UNL     1      41.770 -10.738   6.113  1.00  0.00     0.000 A 
HETATM   28  C   UNL     1      40.503 -11.307   6.053  1.00  0.00     0.001 A 
HETATM   29  C   UNL     1      39.905 -11.572   4.816  1.00  0.00     0.010 A 
ENDBRANCH   2  24
TORSDOF 3
ENDMDL
