MODEL 1
REMARK VINA RESULT:      -8.7      0.000      0.000
REMARK  6 active torsions:
REMARK  status: ('A' for Active; 'I' for Inactive)
REMARK    1  A    between atoms: O_2  and  C_3 
REMARK    2  A    between atoms: C_3  and  C_4 
REMARK    3  A    between atoms: C_4  and  N_5 
REMARK       I    between atoms: N_5  and  C_6 
REMARK    4  A    between atoms: C_6  and  C_7 
REMARK    5  A    between atoms: C_12  and  C_13 
REMARK    6  A    between atoms: C_22  and  C_23 
ROOT
HETATM    1  C   UNL     1      42.584 -11.776   5.989  1.00  0.00     0.148 A 
HETATM    2  N   UNL     1      41.446 -12.508   5.969  1.00  0.00    -0.165 NA
HETATM    3  N   UNL     1      41.684 -13.434   5.024  1.00  0.00    -0.240 N 
HETATM    4  C   UNL     1      42.886 -13.286   4.391  1.00  0.00     0.123 A 
HETATM    5  N   UNL     1      43.256 -14.084   3.368  1.00  0.00    -0.366 N 
HETATM    6  C   UNL     1      42.445 -15.207   2.914  1.00  0.00     0.118 C 
HETATM    7  C   UNL     1      40.960 -14.984   3.262  1.00  0.00     0.066 C 
HETATM    8  C   UNL     1      40.703 -14.443   4.682  1.00  0.00     0.221 C 
HETATM    9  C   UNL     1      43.508 -12.235   5.009  1.00  0.00     0.088 A 
HETATM   10  H   UNL     1      44.185 -14.011   2.954  1.00  0.00     0.161 HD
ENDROOT
BRANCH   1  11
HETATM   11  C   UNL     1      42.788 -10.658   6.924  1.00  0.00     0.272 C 
HETATM   12  N   UNL     1      43.545 -10.991   8.022  1.00  0.00    -0.354 N 
HETATM   13  H   UNL     1      43.992 -11.906   7.989  1.00  0.00     0.162 HD
HETATM   14  O   UNL     1      42.328  -9.537   6.727  1.00  0.00    -0.266 OA
BRANCH  12  15
HETATM   15  C   UNL     1      44.062 -10.000   8.943  1.00  0.00     0.149 C 
BRANCH  15  16
HETATM   16  C   UNL     1      45.381  -9.410   8.451  1.00  0.00     0.186 C 
BRANCH  16  17
HETATM   17  O   UNL     1      45.239  -7.993   8.309  1.00  0.00    -0.394 OA
HETATM   18  C   UNL     1      44.079  -7.516   8.981  1.00  0.00     0.201 C 
ENDBRANCH  16  17
ENDBRANCH  15  16
ENDBRANCH  12  15
ENDBRANCH   1  11
BRANCH   8  19
HETATM   19  C   UNL     1      40.661 -15.518   5.745  1.00  0.00     0.409 C 
HETATM   20  F   UNL     1      41.806 -15.572   6.462  1.00  0.00    -0.169 F 
HETATM   21  F   UNL     1      39.670 -15.249   6.634  1.00  0.00    -0.169 F 
HETATM   22  F   UNL     1      40.429 -16.753   5.261  1.00  0.00    -0.169 F 
ENDBRANCH   8  19
BRANCH   6  23
HETATM   23  C   UNL     1      43.016 -16.550   3.339  1.00  0.00    -0.034 A 
HETATM   24  C   UNL     1      42.861 -17.723   2.577  1.00  0.00     0.034 A 
HETATM   25  C   UNL     1      43.384 -18.948   3.011  1.00  0.00     0.056 A 
HETATM   26 CL   UNL     1      43.147 -20.328   1.999  1.00  0.00    -0.083 Cl
HETATM   27  C   UNL     1      44.065 -19.021   4.228  1.00  0.00     0.055 A 
HETATM   28 CL   UNL     1      44.728 -20.495   4.837  1.00  0.00    -0.083 Cl
HETATM   29  C   UNL     1      44.221 -17.869   5.001  1.00  0.00     0.026 A 
HETATM   30  C   UNL     1      43.703 -16.646   4.561  1.00  0.00     0.011 A 
ENDBRANCH   6  23
TORSDOF 6
ENDMDL
MODEL 2
REMARK VINA RESULT:      -8.3      4.992      6.679
REMARK  6 active torsions:
REMARK  status: ('A' for Active; 'I' for Inactive)
REMARK    1  A    between atoms: O_2  and  C_3 
REMARK    2  A    between atoms: C_3  and  C_4 
REMARK    3  A    between atoms: C_4  and  N_5 
REMARK       I    between atoms: N_5  and  C_6 
REMARK    4  A    between atoms: C_6  and  C_7 
REMARK    5  A    between atoms: C_12  and  C_13 
REMARK    6  A    between atoms: C_22  and  C_23 
ROOT
HETATM    1  C   UNL     1      40.542 -12.895  -1.037  1.00  0.00     0.148 A 
HETATM    2  N   UNL     1      40.915 -12.253   0.095  1.00  0.00    -0.165 NA
HETATM    3  N   UNL     1      40.708 -13.167   1.059  1.00  0.00    -0.240 N 
HETATM    4  C   UNL     1      40.154 -14.333   0.610  1.00  0.00     0.123 A 
HETATM    5  N   UNL     1      39.812 -15.331   1.451  1.00  0.00    -0.366 N 
HETATM    6  C   UNL     1      40.078 -15.276   2.883  1.00  0.00     0.118 C 
HETATM    7  C   UNL     1      40.173 -13.815   3.366  1.00  0.00     0.066 C 
HETATM    8  C   UNL     1      40.990 -12.883   2.451  1.00  0.00     0.221 C 
HETATM    9  C   UNL     1      40.057 -14.201  -0.750  1.00  0.00     0.088 A 
HETATM   10  H   UNL     1      39.470 -16.223   1.096  1.00  0.00     0.161 HD
ENDROOT
BRANCH   1  11
HETATM   11  C   UNL     1      40.646 -12.276  -2.367  1.00  0.00     0.272 C 
HETATM   12  N   UNL     1      40.396 -10.924  -2.366  1.00  0.00    -0.354 N 
HETATM   13  H   UNL     1      40.318 -10.491  -1.447  1.00  0.00     0.162 HD
HETATM   14  O   UNL     1      40.937 -12.914  -3.375  1.00  0.00    -0.266 OA
BRANCH  12  15
HETATM   15  C   UNL     1      40.667 -10.079  -3.510  1.00  0.00     0.149 C 
BRANCH  15  16
HETATM   16  C   UNL     1      41.371  -8.787  -3.100  1.00  0.00     0.186 C 
BRANCH  16  17
HETATM   17  O   UNL     1      42.095  -9.011  -1.885  1.00  0.00    -0.394 OA
HETATM   18  C   UNL     1      42.938  -7.909  -1.572  1.00  0.00     0.201 C 
ENDBRANCH  16  17
ENDBRANCH  15  16
ENDBRANCH  12  15
ENDBRANCH   1  11
BRANCH   8  19
HETATM   19  C   UNL     1      42.480 -12.932   2.706  1.00  0.00     0.409 C 
HETATM   20  F   UNL     1      43.070 -11.730   2.515  1.00  0.00    -0.169 F 
HETATM   21  F   UNL     1      42.715 -13.267   4.001  1.00  0.00    -0.169 F 
HETATM   22  F   UNL     1      43.133 -13.829   1.944  1.00  0.00    -0.169 F 
ENDBRANCH   8  19
BRANCH   6  23
HETATM   23  C   UNL     1      41.234 -16.172   3.298  1.00  0.00    -0.034 A 
HETATM   24  C   UNL     1      41.643 -16.323   4.636  1.00  0.00     0.034 A 
HETATM   25  C   UNL     1      42.727 -17.142   4.978  1.00  0.00     0.056 A 
HETATM   26 CL   UNL     1      43.143 -17.268   6.650  1.00  0.00    -0.083 Cl
HETATM   27  C   UNL     1      43.429 -17.818   3.979  1.00  0.00     0.055 A 
HETATM   28 CL   UNL     1      44.782 -18.836   4.318  1.00  0.00    -0.083 Cl
HETATM   29  C   UNL     1      43.043 -17.673   2.645  1.00  0.00     0.026 A 
HETATM   30  C   UNL     1      41.956 -16.859   2.308  1.00  0.00     0.011 A 
ENDBRANCH   6  23
TORSDOF 6
ENDMDL
MODEL 3
REMARK VINA RESULT:      -7.9      3.042      3.551
REMARK  6 active torsions:
REMARK  status: ('A' for Active; 'I' for Inactive)
REMARK    1  A    between atoms: O_2  and  C_3 
REMARK    2  A    between atoms: C_3  and  C_4 
REMARK    3  A    between atoms: C_4  and  N_5 
REMARK       I    between atoms: N_5  and  C_6 
REMARK    4  A    between atoms: C_6  and  C_7 
REMARK    5  A    between atoms: C_12  and  C_13 
REMARK    6  A    between atoms: C_22  and  C_23 
ROOT
HETATM    1  C   UNL     1      40.277 -12.365   4.830  1.00  0.00     0.148 A 
HETATM    2  N   UNL     1      39.854 -13.063   3.750  1.00  0.00    -0.165 NA
HETATM    3  N   UNL     1      40.938 -13.768   3.385  1.00  0.00    -0.240 N 
HETATM    4  C   UNL     1      42.051 -13.503   4.132  1.00  0.00     0.123 A 
HETATM    5  N   UNL     1      43.245 -14.068   3.858  1.00  0.00    -0.366 N 
HETATM    6  C   UNL     1      43.422 -15.057   2.803  1.00  0.00     0.118 C 
HETATM    7  C   UNL     1      42.341 -14.896   1.716  1.00  0.00     0.066 C 
HETATM    8  C   UNL     1      40.915 -14.669   2.251  1.00  0.00     0.221 C 
HETATM    9  C   UNL     1      41.652 -12.616   5.096  1.00  0.00     0.088 A 
HETATM   10  H   UNL     1      44.049 -13.920   4.468  1.00  0.00     0.161 HD
ENDROOT
BRANCH   1  11
HETATM   11  C   UNL     1      39.389 -11.476   5.595  1.00  0.00     0.272 C 
HETATM   12  N   UNL     1      39.129 -10.282   4.963  1.00  0.00    -0.354 N 
HETATM   13  H   UNL     1      39.451 -10.215   3.999  1.00  0.00     0.162 HD
HETATM   14  O   UNL     1      38.922 -11.785   6.687  1.00  0.00    -0.266 OA
BRANCH  12  15
HETATM   15  C   UNL     1      38.106  -9.365   5.419  1.00  0.00     0.149 C 
BRANCH  15  16
HETATM   16  C   UNL     1      38.695  -8.006   5.791  1.00  0.00     0.186 C 
BRANCH  16  17
HETATM   17  O   UNL     1      37.833  -7.360   6.733  1.00  0.00    -0.394 OA
HETATM   18  C   UNL     1      38.572  -6.765   7.792  1.00  0.00     0.201 C 
ENDBRANCH  16  17
ENDBRANCH  15  16
ENDBRANCH  12  15
ENDBRANCH   1  11
BRANCH   8  19
HETATM   19  C   UNL     1      40.187 -15.945   2.607  1.00  0.00     0.409 C 
HETATM   20  F   UNL     1      38.849 -15.833   2.444  1.00  0.00    -0.169 F 
HETATM   21  F   UNL     1      40.585 -16.949   1.783  1.00  0.00    -0.169 F 
HETATM   22  F   UNL     1      40.407 -16.363   3.867  1.00  0.00    -0.169 F 
ENDBRANCH   8  19
BRANCH   6  23
HETATM   23  C   UNL     1      43.590 -16.468   3.346  1.00  0.00    -0.034 A 
HETATM   24  C   UNL     1      43.576 -17.610   2.525  1.00  0.00     0.034 A 
HETATM   25  C   UNL     1      43.713 -18.896   3.064  1.00  0.00     0.056 A 
HETATM   26 CL   UNL     1      43.693 -20.233   1.970  1.00  0.00    -0.083 Cl
HETATM   27  C   UNL     1      43.855 -19.060   4.443  1.00  0.00     0.055 A 
HETATM   28 CL   UNL     1      44.017 -20.611   5.185  1.00  0.00    -0.083 Cl
HETATM   29  C   UNL     1      43.862 -17.938   5.274  1.00  0.00     0.026 A 
HETATM   30  C   UNL     1      43.731 -16.655   4.731  1.00  0.00     0.011 A 
ENDBRANCH   6  23
TORSDOF 6
ENDMDL
MODEL 4
REMARK VINA RESULT:      -7.8      4.061      5.349
REMARK  6 active torsions:
REMARK  status: ('A' for Active; 'I' for Inactive)
REMARK    1  A    between atoms: O_2  and  C_3 
REMARK    2  A    between atoms: C_3  and  C_4 
REMARK    3  A    between atoms: C_4  and  N_5 
REMARK       I    between atoms: N_5  and  C_6 
REMARK    4  A    between atoms: C_6  and  C_7 
REMARK    5  A    between atoms: C_12  and  C_13 
REMARK    6  A    between atoms: C_22  and  C_23 
ROOT
HETATM    1  C   UNL     1      42.646 -13.533   5.686  1.00  0.00     0.148 A 
HETATM    2  N   UNL     1      42.898 -14.657   4.977  1.00  0.00    -0.165 NA
HETATM    3  N   UNL     1      41.953 -14.646   4.021  1.00  0.00    -0.240 N 
HETATM    4  C   UNL     1      41.067 -13.611   4.127  1.00  0.00     0.123 A 
HETATM    5  N   UNL     1      40.013 -13.486   3.295  1.00  0.00    -0.366 N 
HETATM    6  C   UNL     1      39.783 -14.393   2.178  1.00  0.00     0.118 C 
HETATM    7  C   UNL     1      40.442 -15.762   2.439  1.00  0.00     0.066 C 
HETATM    8  C   UNL     1      41.866 -15.692   3.023  1.00  0.00     0.221 C 
HETATM    9  C   UNL     1      41.502 -12.854   5.182  1.00  0.00     0.088 A 
HETATM   10  H   UNL     1      39.403 -12.670   3.339  1.00  0.00     0.161 HD
ENDROOT
BRANCH   1  11
HETATM   11  C   UNL     1      43.479 -13.113   6.824  1.00  0.00     0.272 C 
HETATM   12  N   UNL     1      44.107 -11.905   6.629  1.00  0.00    -0.354 N 
HETATM   13  H   UNL     1      43.813 -11.383   5.806  1.00  0.00     0.162 HD
HETATM   14  O   UNL     1      43.588 -13.780   7.848  1.00  0.00    -0.266 OA
BRANCH  12  15
HETATM   15  C   UNL     1      44.780 -11.195   7.697  1.00  0.00     0.149 C 
BRANCH  15  16
HETATM   16  C   UNL     1      46.181 -10.753   7.281  1.00  0.00     0.186 C 
BRANCH  16  17
HETATM   17  O   UNL     1      46.465  -9.477   7.864  1.00  0.00    -0.394 OA
HETATM   18  C   UNL     1      45.309  -8.914   8.471  1.00  0.00     0.201 C 
ENDBRANCH  16  17
ENDBRANCH  15  16
ENDBRANCH  12  15
ENDBRANCH   1  11
BRANCH   8  19
HETATM   19  C   UNL     1      42.944 -15.514   1.978  1.00  0.00     0.409 C 
HETATM   20  F   UNL     1      44.049 -16.244   2.255  1.00  0.00    -0.169 F 
HETATM   21  F   UNL     1      42.495 -15.951   0.772  1.00  0.00    -0.169 F 
HETATM   22  F   UNL     1      43.335 -14.237   1.811  1.00  0.00    -0.169 F 
ENDBRANCH   8  19
BRANCH   6  23
HETATM   23  C   UNL     1      40.113 -13.761   0.835  1.00  0.00    -0.034 A 
HETATM   24  C   UNL     1      40.639 -12.461   0.710  1.00  0.00     0.034 A 
HETATM   25  C   UNL     1      40.911 -11.904  -0.546  1.00  0.00     0.056 A 
HETATM   26 CL   UNL     1      41.565 -10.306  -0.592  1.00  0.00    -0.083 Cl
HETATM   27  C   UNL     1      40.648 -12.639  -1.704  1.00  0.00     0.055 A 
HETATM   28 CL   UNL     1      40.945 -12.017  -3.288  1.00  0.00    -0.083 Cl
HETATM   29  C   UNL     1      40.118 -13.926  -1.599  1.00  0.00     0.026 A 
HETATM   30  C   UNL     1      39.854 -14.481  -0.343  1.00  0.00     0.011 A 
ENDBRANCH   6  23
TORSDOF 6
ENDMDL
MODEL 5
REMARK VINA RESULT:      -7.5      2.880      3.577
REMARK  6 active torsions:
REMARK  status: ('A' for Active; 'I' for Inactive)
REMARK    1  A    between atoms: O_2  and  C_3 
REMARK    2  A    between atoms: C_3  and  C_4 
REMARK    3  A    between atoms: C_4  and  N_5 
REMARK       I    between atoms: N_5  and  C_6 
REMARK    4  A    between atoms: C_6  and  C_7 
REMARK    5  A    between atoms: C_12  and  C_13 
REMARK    6  A    between atoms: C_22  and  C_23 
ROOT
HETATM    1  C   UNL     1      40.308 -10.979   6.210  1.00  0.00     0.148 A 
HETATM    2  N   UNL     1      39.777 -11.134   4.975  1.00  0.00    -0.165 NA
HETATM    3  N   UNL     1      40.769 -11.713   4.276  1.00  0.00    -0.240 N 
HETATM    4  C   UNL     1      41.929 -11.870   4.982  1.00  0.00     0.123 A 
HETATM    5  N   UNL     1      43.047 -12.367   4.415  1.00  0.00    -0.366 N 
HETATM    6  C   UNL     1      43.083 -12.847   3.040  1.00  0.00     0.118 C 
HETATM    7  C   UNL     1      41.989 -12.167   2.194  1.00  0.00     0.066 C 
HETATM    8  C   UNL     1      40.613 -12.063   2.879  1.00  0.00     0.221 C 
HETATM    9  C   UNL     1      41.658 -11.428   6.249  1.00  0.00     0.088 A 
HETATM   10  H   UNL     1      43.882 -12.548   4.972  1.00  0.00     0.161 HD
ENDROOT
BRANCH   1  11
HETATM   11  C   UNL     1      39.544 -10.413   7.333  1.00  0.00     0.272 C 
HETATM   12  N   UNL     1      40.092  -9.260   7.846  1.00  0.00    -0.354 N 
HETATM   13  H   UNL     1      40.858  -8.860   7.308  1.00  0.00     0.162 HD
HETATM   14  O   UNL     1      38.512 -10.924   7.757  1.00  0.00    -0.266 OA
BRANCH  12  15
HETATM   15  C   UNL     1      39.390  -8.415   8.789  1.00  0.00     0.149 C 
BRANCH  15  16
HETATM   16  C   UNL     1      39.719  -8.790  10.232  1.00  0.00     0.186 C 
BRANCH  16  17
HETATM   17  O   UNL     1      41.091  -9.190  10.314  1.00  0.00    -0.394 OA
HETATM   18  C   UNL     1      41.397  -9.742  11.588  1.00  0.00     0.201 C 
ENDBRANCH  16  17
ENDBRANCH  15  16
ENDBRANCH  12  15
ENDBRANCH   1  11
BRANCH   8  19
HETATM   19  C   UNL     1      39.768 -13.310   2.740  1.00  0.00     0.409 C 
HETATM   20  F   UNL     1      40.056 -13.998   1.612  1.00  0.00    -0.169 F 
HETATM   21  F   UNL     1      40.020 -14.155   3.774  1.00  0.00    -0.169 F 
HETATM   22  F   UNL     1      38.444 -13.072   2.742  1.00  0.00    -0.169 F 
ENDBRANCH   8  19
BRANCH   6  23
HETATM   23  C   UNL     1      43.121 -14.364   2.951  1.00  0.00    -0.034 A 
HETATM   24  C   UNL     1      43.091 -15.198   4.084  1.00  0.00     0.034 A 
HETATM   25  C   UNL     1      43.149 -16.593   3.964  1.00  0.00     0.056 A 
HETATM   26 CL   UNL     1      43.095 -17.528   5.416  1.00  0.00    -0.083 Cl
HETATM   27  C   UNL     1      43.250 -17.178   2.700  1.00  0.00     0.055 A 
HETATM   28 CL   UNL     1      43.338 -18.887   2.470  1.00  0.00    -0.083 Cl
HETATM   29  C   UNL     1      43.290 -16.366   1.565  1.00  0.00     0.026 A 
HETATM   30  C   UNL     1      43.226 -14.974   1.690  1.00  0.00     0.011 A 
ENDBRANCH   6  23
TORSDOF 6
ENDMDL
MODEL 6
REMARK VINA RESULT:      -7.4      2.142      3.121
REMARK  6 active torsions:
REMARK  status: ('A' for Active; 'I' for Inactive)
REMARK    1  A    between atoms: O_2  and  C_3 
REMARK    2  A    between atoms: C_3  and  C_4 
REMARK    3  A    between atoms: C_4  and  N_5 
REMARK       I    between atoms: N_5  and  C_6 
REMARK    4  A    between atoms: C_6  and  C_7 
REMARK    5  A    between atoms: C_12  and  C_13 
REMARK    6  A    between atoms: C_22  and  C_23 
ROOT
HETATM    1  C   UNL     1      43.935 -10.885   7.365  1.00  0.00     0.148 A 
HETATM    2  N   UNL     1      42.625 -11.037   7.059  1.00  0.00    -0.165 NA
HETATM    3  N   UNL     1      42.648 -11.537   5.812  1.00  0.00    -0.240 N 
HETATM    4  C   UNL     1      43.902 -11.646   5.279  1.00  0.00     0.123 A 
HETATM    5  N   UNL     1      44.105 -12.061   4.012  1.00  0.00    -0.366 N 
HETATM    6  C   UNL     1      43.018 -12.499   3.145  1.00  0.00     0.118 C 
HETATM    7  C   UNL     1      41.683 -11.860   3.577  1.00  0.00     0.066 C 
HETATM    8  C   UNL     1      41.430 -11.857   5.097  1.00  0.00     0.221 C 
HETATM    9  C   UNL     1      44.764 -11.256   6.269  1.00  0.00     0.088 A 
HETATM   10  H   UNL     1      45.047 -12.209   3.652  1.00  0.00     0.161 HD
ENDROOT
BRANCH   1  11
HETATM   11  C   UNL     1      44.389 -10.397   8.676  1.00  0.00     0.272 C 
HETATM   12  N   UNL     1      43.542  -9.474   9.243  1.00  0.00    -0.354 N 
HETATM   13  H   UNL     1      42.647  -9.351   8.773  1.00  0.00     0.162 HD
HETATM   14  O   UNL     1      45.423 -10.789   9.208  1.00  0.00    -0.266 OA
BRANCH  12  15
HETATM   15  C   UNL     1      43.669  -9.040  10.618  1.00  0.00     0.149 C 
BRANCH  15  16
HETATM   16  C   UNL     1      42.509  -9.542  11.475  1.00  0.00     0.186 C 
BRANCH  16  17
HETATM   17  O   UNL     1      41.364  -9.751  10.642  1.00  0.00    -0.394 OA
HETATM   18  C   UNL     1      40.154  -9.613  11.377  1.00  0.00     0.201 C 
ENDBRANCH  16  17
ENDBRANCH  15  16
ENDBRANCH  12  15
ENDBRANCH   1  11
BRANCH   8  19
HETATM   19  C   UNL     1      40.836 -13.146   5.618  1.00  0.00     0.409 C 
HETATM   20  F   UNL     1      41.751 -13.905   6.264  1.00  0.00    -0.169 F 
HETATM   21  F   UNL     1      39.863 -12.872   6.525  1.00  0.00    -0.169 F 
HETATM   22  F   UNL     1      40.277 -13.913   4.663  1.00  0.00    -0.169 F 
ENDBRANCH   8  19
BRANCH   6  23
HETATM   23  C   UNL     1      42.986 -14.009   2.966  1.00  0.00    -0.034 A 
HETATM   24  C   UNL     1      43.336 -14.908   3.990  1.00  0.00     0.034 A 
HETATM   25  C   UNL     1      43.315 -16.294   3.781  1.00  0.00     0.056 A 
HETATM   26 CL   UNL     1      43.752 -17.313   5.106  1.00  0.00    -0.083 Cl
HETATM   27  C   UNL     1      42.951 -16.803   2.533  1.00  0.00     0.055 A 
HETATM   28 CL   UNL     1      42.912 -18.496   2.194  1.00  0.00    -0.083 Cl
HETATM   29  C   UNL     1      42.609 -15.924   1.503  1.00  0.00     0.026 A 
HETATM   30  C   UNL     1      42.626 -14.542   1.718  1.00  0.00     0.011 A 
ENDBRANCH   6  23
TORSDOF 6
ENDMDL
MODEL 7
REMARK VINA RESULT:      -7.4      3.267      4.459
REMARK  6 active torsions:
REMARK  status: ('A' for Active; 'I' for Inactive)
REMARK    1  A    between atoms: O_2  and  C_3 
REMARK    2  A    between atoms: C_3  and  C_4 
REMARK    3  A    between atoms: C_4  and  N_5 
REMARK       I    between atoms: N_5  and  C_6 
REMARK    4  A    between atoms: C_6  and  C_7 
REMARK    5  A    between atoms: C_12  and  C_13 
REMARK    6  A    between atoms: C_22  and  C_23 
ROOT
HETATM    1  C   UNL     1      43.796 -12.140   6.517  1.00  0.00     0.148 A 
HETATM    2  N   UNL     1      43.788 -13.487   6.381  1.00  0.00    -0.165 NA
HETATM    3  N   UNL     1      42.650 -13.729   5.708  1.00  0.00    -0.240 N 
HETATM    4  C   UNL     1      41.896 -12.614   5.470  1.00  0.00     0.123 A 
HETATM    5  N   UNL     1      40.690 -12.684   4.870  1.00  0.00    -0.366 N 
HETATM    6  C   UNL     1      40.136 -13.932   4.362  1.00  0.00     0.118 C 
HETATM    7  C   UNL     1      40.730 -15.140   5.113  1.00  0.00     0.066 C 
HETATM    8  C   UNL     1      42.252 -15.073   5.344  1.00  0.00     0.221 C 
HETATM    9  C   UNL     1      42.622 -11.561   5.959  1.00  0.00     0.088 A 
HETATM   10  H   UNL     1      40.172 -11.838   4.632  1.00  0.00     0.161 HD
ENDROOT
BRANCH   1  11
HETATM   11  C   UNL     1      44.900 -11.418   7.167  1.00  0.00     0.272 C 
HETATM   12  N   UNL     1      44.523 -10.743   8.304  1.00  0.00    -0.354 N 
HETATM   13  H   UNL     1      43.582 -10.939   8.641  1.00  0.00     0.162 HD
HETATM   14  O   UNL     1      46.047 -11.430   6.731  1.00  0.00    -0.266 OA
BRANCH  12  15
HETATM   15  C   UNL     1      45.481 -10.165   9.223  1.00  0.00     0.149 C 
BRANCH  15  16
HETATM   16  C   UNL     1      44.803  -9.642  10.487  1.00  0.00     0.186 C 
BRANCH  16  17
HETATM   17  O   UNL     1      43.562 -10.331  10.675  1.00  0.00    -0.394 OA
HETATM   18  C   UNL     1      43.476 -10.902  11.975  1.00  0.00     0.201 C 
ENDBRANCH  16  17
ENDBRANCH  15  16
ENDBRANCH  12  15
ENDBRANCH   1  11
BRANCH   8  19
HETATM   19  C   UNL     1      43.068 -15.564   4.169  1.00  0.00     0.409 C 
HETATM   20  F   UNL     1      44.221 -16.154   4.559  1.00  0.00    -0.169 F 
HETATM   21  F   UNL     1      42.371 -16.509   3.486  1.00  0.00    -0.169 F 
HETATM   22  F   UNL     1      43.386 -14.598   3.287  1.00  0.00    -0.169 F 
ENDBRANCH   8  19
BRANCH   6  23
HETATM   23  C   UNL     1      40.193 -14.021   2.845  1.00  0.00    -0.034 A 
HETATM   24  C   UNL     1      40.534 -12.928   2.027  1.00  0.00     0.034 A 
HETATM   25  C   UNL     1      40.555 -13.042   0.630  1.00  0.00     0.056 A 
HETATM   26 CL   UNL     1      40.996 -11.645  -0.284  1.00  0.00    -0.083 Cl
HETATM   27  C   UNL     1      40.222 -14.257   0.027  1.00  0.00     0.055 A 
HETATM   28 CL   UNL     1      40.213 -14.474  -1.686  1.00  0.00    -0.083 Cl
HETATM   29  C   UNL     1      39.873 -15.350   0.823  1.00  0.00     0.026 A 
HETATM   30  C   UNL     1      39.859 -15.233   2.217  1.00  0.00     0.011 A 
ENDBRANCH   6  23
TORSDOF 6
ENDMDL
MODEL 8
REMARK VINA RESULT:      -7.3     16.782     19.234
REMARK  6 active torsions:
REMARK  status: ('A' for Active; 'I' for Inactive)
REMARK    1  A    between atoms: O_2  and  C_3 
REMARK    2  A    between atoms: C_3  and  C_4 
REMARK    3  A    between atoms: C_4  and  N_5 
REMARK       I    between atoms: N_5  and  C_6 
REMARK    4  A    between atoms: C_6  and  C_7 
REMARK    5  A    between atoms: C_12  and  C_13 
REMARK    6  A    between atoms: C_22  and  C_23 
ROOT
HETATM    1  C   UNL     1      44.959 -30.478  -3.921  1.00  0.00     0.148 A 
HETATM    2  N   UNL     1      46.284 -30.251  -3.768  1.00  0.00    -0.165 NA
HETATM    3  N   UNL     1      46.350 -29.509  -2.649  1.00  0.00    -0.240 N 
HETATM    4  C   UNL     1      45.130 -29.190  -2.121  1.00  0.00     0.123 A 
HETATM    5  N   UNL     1      45.007 -28.392  -1.040  1.00  0.00    -0.366 N 
HETATM    6  C   UNL     1      46.158 -27.876  -0.310  1.00  0.00     0.118 C 
HETATM    7  C   UNL     1      47.399 -27.808  -1.222  1.00  0.00     0.066 C 
HETATM    8  C   UNL     1      47.614 -29.044  -2.115  1.00  0.00     0.221 C 
HETATM    9  C   UNL     1      44.205 -29.824  -2.906  1.00  0.00     0.088 A 
HETATM   10  H   UNL     1      44.097 -28.224  -0.612  1.00  0.00     0.161 HD
ENDROOT
BRANCH   1  11
HETATM   11  C   UNL     1      44.419 -31.301  -5.014  1.00  0.00     0.272 C 
HETATM   12  N   UNL     1      44.584 -30.740  -6.259  1.00  0.00    -0.354 N 
HETATM   13  H   UNL     1      45.177 -29.913  -6.294  1.00  0.00     0.162 HD
HETATM   14  O   UNL     1      43.884 -32.389  -4.823  1.00  0.00    -0.266 OA
BRANCH  12  15
HETATM   15  C   UNL     1      44.342 -31.473  -7.484  1.00  0.00     0.149 C 
BRANCH  15  16
HETATM   16  C   UNL     1      45.574 -32.264  -7.917  1.00  0.00     0.186 C 
BRANCH  16  17
HETATM   17  O   UNL     1      46.724 -31.760  -7.229  1.00  0.00    -0.394 OA
HETATM   18  C   UNL     1      47.905 -32.453  -7.611  1.00  0.00     0.201 C 
ENDBRANCH  16  17
ENDBRANCH  15  16
ENDBRANCH  12  15
ENDBRANCH   1  11
BRANCH   8  19
HETATM   19  C   UNL     1      48.341 -30.176  -1.424  1.00  0.00     0.409 C 
HETATM   20  F   UNL     1      47.492 -31.018  -0.793  1.00  0.00    -0.169 F 
HETATM   21  F   UNL     1      49.006 -30.925  -2.342  1.00  0.00    -0.169 F 
HETATM   22  F   UNL     1      49.250 -29.766  -0.520  1.00  0.00    -0.169 F 
ENDBRANCH   8  19
BRANCH   6  23
HETATM   23  C   UNL     1      46.370 -28.582   1.020  1.00  0.00    -0.034 A 
HETATM   24  C   UNL     1      47.527 -28.407   1.803  1.00  0.00     0.034 A 
HETATM   25  C   UNL     1      47.697 -29.091   3.014  1.00  0.00     0.056 A 
HETATM   26 CL   UNL     1      49.148 -28.800   3.905  1.00  0.00    -0.083 Cl
HETATM   27  C   UNL     1      46.710 -29.974   3.458  1.00  0.00     0.055 A 
HETATM   28 CL   UNL     1      46.851 -30.862   4.932  1.00  0.00    -0.083 Cl
HETATM   29  C   UNL     1      45.560 -30.166   2.690  1.00  0.00     0.026 A 
HETATM   30  C   UNL     1      45.392 -29.477   1.484  1.00  0.00     0.011 A 
ENDBRANCH   6  23
TORSDOF 6
ENDMDL
MODEL 9
REMARK VINA RESULT:      -7.2      8.301     11.057
REMARK  6 active torsions:
REMARK  status: ('A' for Active; 'I' for Inactive)
REMARK    1  A    between atoms: O_2  and  C_3 
REMARK    2  A    between atoms: C_3  and  C_4 
REMARK    3  A    between atoms: C_4  and  N_5 
REMARK       I    between atoms: N_5  and  C_6 
REMARK    4  A    between atoms: C_6  and  C_7 
REMARK    5  A    between atoms: C_12  and  C_13 
REMARK    6  A    between atoms: C_22  and  C_23 
ROOT
HETATM    1  C   UNL     1      41.495  -7.463  15.974  1.00  0.00     0.148 A 
HETATM    2  N   UNL     1      40.570  -8.177  15.291  1.00  0.00    -0.165 NA
HETATM    3  N   UNL     1      40.847  -7.905  14.005  1.00  0.00    -0.240 N 
HETATM    4  C   UNL     1      41.855  -6.997  13.833  1.00  0.00     0.123 A 
HETATM    5  N   UNL     1      42.216  -6.555  12.611  1.00  0.00    -0.366 N 
HETATM    6  C   UNL     1      41.618  -7.064  11.383  1.00  0.00     0.118 C 
HETATM    7  C   UNL     1      40.205  -7.618  11.652  1.00  0.00     0.066 C 
HETATM    8  C   UNL     1      40.080  -8.483  12.921  1.00  0.00     0.221 C 
HETATM    9  C   UNL     1      42.316  -6.709  15.090  1.00  0.00     0.088 A 
HETATM   10  H   UNL     1      43.017  -5.936  12.492  1.00  0.00     0.161 HD
ENDROOT
BRANCH   1  11
HETATM   11  C   UNL     1      41.596  -7.498  17.441  1.00  0.00     0.272 C 
HETATM   12  N   UNL     1      40.608  -8.242  18.043  1.00  0.00    -0.354 N 
HETATM   13  H   UNL     1      40.026  -8.792  17.414  1.00  0.00     0.162 HD
HETATM   14  O   UNL     1      42.486  -6.921  18.059  1.00  0.00    -0.266 OA
BRANCH  12  15
HETATM   15  C   UNL     1      40.647  -8.602  19.445  1.00  0.00     0.149 C 
BRANCH  15  16
HETATM   16  C   UNL     1      39.244  -8.701  20.038  1.00  0.00     0.186 C 
BRANCH  16  17
HETATM   17  O   UNL     1      39.342  -9.059  21.421  1.00  0.00    -0.394 OA
HETATM   18  C   UNL     1      40.405  -9.976  21.647  1.00  0.00     0.201 C 
ENDBRANCH  16  17
ENDBRANCH  15  16
ENDBRANCH  12  15
ENDBRANCH   1  11
BRANCH   8  19
HETATM   19  C   UNL     1      40.471  -9.929  12.713  1.00  0.00     0.409 C 
HETATM   20  F   UNL     1      41.737 -10.179  13.117  1.00  0.00    -0.169 F 
HETATM   21  F   UNL     1      39.670 -10.735  13.457  1.00  0.00    -0.169 F 
HETATM   22  F   UNL     1      40.365 -10.343  11.436  1.00  0.00    -0.169 F 
ENDBRANCH   8  19
BRANCH   6  23
HETATM   23  C   UNL     1      42.547  -7.998  10.625  1.00  0.00    -0.034 A 
HETATM   24  C   UNL     1      42.291  -8.431   9.310  1.00  0.00     0.034 A 
HETATM   25  C   UNL     1      43.160  -9.310   8.651  1.00  0.00     0.056 A 
HETATM   26 CL   UNL     1      42.761  -9.773   7.035  1.00  0.00    -0.083 Cl
HETATM   27  C   UNL     1      44.301  -9.781   9.304  1.00  0.00     0.055 A 
HETATM   28 CL   UNL     1      45.413 -10.874   8.563  1.00  0.00    -0.083 Cl
HETATM   29  C   UNL     1      44.566  -9.369  10.612  1.00  0.00     0.026 A 
HETATM   30  C   UNL     1      43.699  -8.486  11.265  1.00  0.00     0.011 A 
ENDBRANCH   6  23
TORSDOF 6
ENDMDL
MODEL 10
REMARK VINA RESULT:      -7.2     16.468     17.583
REMARK  6 active torsions:
REMARK  status: ('A' for Active; 'I' for Inactive)
REMARK    1  A    between atoms: O_2  and  C_3 
REMARK    2  A    between atoms: C_3  and  C_4 
REMARK    3  A    between atoms: C_4  and  N_5 
REMARK       I    between atoms: N_5  and  C_6 
REMARK    4  A    between atoms: C_6  and  C_7 
REMARK    5  A    between atoms: C_12  and  C_13 
REMARK    6  A    between atoms: C_22  and  C_23 
ROOT
HETATM    1  C   UNL     1      42.979 -30.266   2.127  1.00  0.00     0.148 A 
HETATM    2  N   UNL     1      42.912 -30.260   0.775  1.00  0.00    -0.165 NA
HETATM    3  N   UNL     1      44.015 -29.584   0.407  1.00  0.00    -0.240 N 
HETATM    4  C   UNL     1      44.744 -29.097   1.456  1.00  0.00     0.123 A 
HETATM    5  N   UNL     1      45.841 -28.335   1.269  1.00  0.00    -0.366 N 
HETATM    6  C   UNL     1      46.376 -28.040  -0.054  1.00  0.00     0.118 C 
HETATM    7  C   UNL     1      45.270 -28.133  -1.124  1.00  0.00     0.066 C 
HETATM    8  C   UNL     1      44.336 -29.350  -0.985  1.00  0.00     0.221 C 
HETATM    9  C   UNL     1      44.114 -29.543   2.588  1.00  0.00     0.088 A 
HETATM   10  H   UNL     1      46.417 -28.042   2.058  1.00  0.00     0.161 HD
ENDROOT
BRANCH   1  11
HETATM   11  C   UNL     1      41.979 -30.946   2.964  1.00  0.00     0.272 C 
HETATM   12  N   UNL     1      42.129 -30.701   4.309  1.00  0.00    -0.354 N 
HETATM   13  H   UNL     1      42.802 -29.977   4.552  1.00  0.00     0.162 HD
HETATM   14  O   UNL     1      41.095 -31.656   2.496  1.00  0.00    -0.266 OA
BRANCH  12  15
HETATM   15  C   UNL     1      41.129 -31.074   5.287  1.00  0.00     0.149 C 
BRANCH  15  16
HETATM   16  C   UNL     1      41.706 -31.998   6.356  1.00  0.00     0.186 C 
BRANCH  16  17
HETATM   17  O   UNL     1      41.629 -31.350   7.630  1.00  0.00    -0.394 OA
HETATM   18  C   UNL     1      42.888 -31.351   8.291  1.00  0.00     0.201 C 
ENDBRANCH  16  17
ENDBRANCH  15  16
ENDBRANCH  12  15
ENDBRANCH   1  11
BRANCH   8  19
HETATM   19  C   UNL     1      44.880 -30.610  -1.619  1.00  0.00     0.409 C 
HETATM   20  F   UNL     1      43.895 -31.449  -2.014  1.00  0.00    -0.169 F 
HETATM   21  F   UNL     1      45.582 -30.297  -2.740  1.00  0.00    -0.169 F 
HETATM   22  F   UNL     1      45.709 -31.307  -0.820  1.00  0.00    -0.169 F 
ENDBRANCH   8  19
BRANCH   6  23
HETATM   23  C   UNL     1      47.642 -28.825  -0.360  1.00  0.00    -0.034 A 
HETATM   24  C   UNL     1      48.393 -29.483   0.631  1.00  0.00     0.034 A 
HETATM   25  C   UNL     1      49.567 -30.179   0.314  1.00  0.00     0.056 A 
HETATM   26 CL   UNL     1      50.411 -30.962   1.602  1.00  0.00    -0.083 Cl
HETATM   27  C   UNL     1      50.015 -30.219  -1.008  1.00  0.00     0.055 A 
HETATM   28 CL   UNL     1      51.457 -31.045  -1.477  1.00  0.00    -0.083 Cl
HETATM   29  C   UNL     1      49.287 -29.564  -2.003  1.00  0.00     0.026 A 
HETATM   30  C   UNL     1      48.113 -28.875  -1.683  1.00  0.00     0.011 A 
ENDBRANCH   6  23
TORSDOF 6
ENDMDL
