MODEL 1
REMARK VINA RESULT:      -8.6      0.000      0.000
REMARK  4 active torsions:
REMARK  status: ('A' for Active; 'I' for Inactive)
REMARK    1  A    between atoms: C_10  and  C_11 
REMARK    2  A    between atoms: N_14  and  C_16 
REMARK    3  A    between atoms: C_16  and  C_17 
REMARK    4  A    between atoms: C_22  and  C_23 
ROOT
HETATM    1  C   UNL     1      41.521 -14.203   6.157  1.00  0.00     0.024 C 
HETATM    2  C   UNL     1      42.870 -14.094   6.895  1.00  0.00     0.037 C 
HETATM    3  C   UNL     1      43.871 -15.107   6.355  1.00  0.00     0.236 C 
HETATM    4  N   UNL     1      43.332 -16.509   6.523  1.00  0.00    -0.066 N 
HETATM    5  H   UNL     1      43.362 -16.711   7.535  1.00  0.00     0.280 HD
HETATM    6  C   UNL     1      41.943 -16.707   5.988  1.00  0.00     0.236 C 
HETATM    7  C   UNL     1      40.989 -15.609   6.441  1.00  0.00     0.037 C 
ENDROOT
BRANCH   4   8
HETATM    8  C   UNL     1      44.274 -17.548   5.913  1.00  0.00     0.294 C 
BRANCH   8   9
HETATM    9  C   UNL     1      43.883 -17.992   4.516  1.00  0.00     0.075 A 
HETATM   10  N   UNL     1      43.710 -16.987   3.610  1.00  0.00    -0.263 NA
HETATM   11  C   UNL     1      43.361 -17.341   2.350  1.00  0.00     0.117 A 
HETATM   12  C   UNL     1      43.180 -18.651   1.944  1.00  0.00     0.020 A 
HETATM   13  C   UNL     1      43.379 -19.665   2.875  1.00  0.00     0.020 A 
HETATM   14  C   UNL     1      43.748 -19.346   4.186  1.00  0.00     0.074 A 
BRANCH  14  15
HETATM   15  C   UNL     1      43.967 -20.419   5.216  1.00  0.00     0.419 C 
HETATM   16  F   UNL     1      43.351 -21.582   4.860  1.00  0.00    -0.166 F 
HETATM   17  F   UNL     1      45.286 -20.732   5.332  1.00  0.00    -0.166 F 
HETATM   18  F   UNL     1      43.524 -20.109   6.456  1.00  0.00    -0.166 F 
ENDBRANCH  14  15
ENDBRANCH   8   9
ENDBRANCH   4   8
BRANCH   1  19
HETATM   19  C   UNL     1      41.655 -13.807   4.692  1.00  0.00    -0.024 A 
HETATM   20  C   UNL     1      41.112 -14.399   3.490  1.00  0.00     0.018 A 
HETATM   21  C   UNL     1      41.660 -13.704   2.413  1.00  0.00     0.138 A 
HETATM   22  C   UNL     1      40.237 -15.451   3.151  1.00  0.00     0.017 A 
HETATM   23  N   UNL     1      41.507 -13.949   1.101  1.00  0.00    -0.242 NA
HETATM   24  N   UNL     1      42.398 -12.669   2.898  1.00  0.00    -0.350 N 
HETATM   25  C   UNL     1      40.685 -14.984   0.840  1.00  0.00     0.119 A 
HETATM   26  C   UNL     1      40.033 -15.743   1.799  1.00  0.00     0.020 A 
HETATM   27  H   UNL     1      42.861 -11.990   2.310  1.00  0.00     0.166 HD
HETATM   28  C   UNL     1      42.392 -12.707   4.265  1.00  0.00     0.098 A 
ENDBRANCH   1  19
TORSDOF 4
ENDMDL
MODEL 2
REMARK VINA RESULT:      -8.5      2.275      5.804
REMARK  4 active torsions:
REMARK  status: ('A' for Active; 'I' for Inactive)
REMARK    1  A    between atoms: C_10  and  C_11 
REMARK    2  A    between atoms: N_14  and  C_16 
REMARK    3  A    between atoms: C_16  and  C_17 
REMARK    4  A    between atoms: C_22  and  C_23 
ROOT
HETATM    1  C   UNL     1      42.548 -16.179   1.671  1.00  0.00     0.024 C 
HETATM    2  C   UNL     1      43.097 -14.738   1.642  1.00  0.00     0.037 C 
HETATM    3  C   UNL     1      42.727 -13.987   2.914  1.00  0.00     0.236 C 
HETATM    4  N   UNL     1      41.224 -13.936   3.067  1.00  0.00    -0.066 N 
HETATM    5  H   UNL     1      40.881 -13.288   2.339  1.00  0.00     0.280 HD
HETATM    6  C   UNL     1      40.543 -15.269   2.948  1.00  0.00     0.236 C 
HETATM    7  C   UNL     1      41.025 -16.056   1.735  1.00  0.00     0.037 C 
ENDROOT
BRANCH   4   8
HETATM    8  C   UNL     1      40.817 -13.263   4.379  1.00  0.00     0.294 C 
BRANCH   8   9
HETATM    9  C   UNL     1      41.967 -13.046   5.344  1.00  0.00     0.075 A 
HETATM   10  N   UNL     1      42.688 -11.904   5.146  1.00  0.00    -0.263 NA
HETATM   11  C   UNL     1      43.724 -11.671   5.988  1.00  0.00     0.117 A 
HETATM   12  C   UNL     1      44.075 -12.518   7.024  1.00  0.00     0.020 A 
HETATM   13  C   UNL     1      43.318 -13.667   7.224  1.00  0.00     0.020 A 
HETATM   14  C   UNL     1      42.234 -13.944   6.384  1.00  0.00     0.074 A 
BRANCH  14  15
HETATM   15  C   UNL     1      41.399 -15.180   6.573  1.00  0.00     0.419 C 
HETATM   16  F   UNL     1      41.800 -15.888   7.666  1.00  0.00    -0.166 F 
HETATM   17  F   UNL     1      40.096 -14.866   6.805  1.00  0.00    -0.166 F 
HETATM   18  F   UNL     1      41.418 -16.038   5.527  1.00  0.00    -0.166 F 
ENDBRANCH  14  15
ENDBRANCH   8   9
ENDBRANCH   4   8
BRANCH   1  19
HETATM   19  C   UNL     1      43.213 -17.005   2.764  1.00  0.00    -0.024 A 
HETATM   20  C   UNL     1      43.442 -18.428   2.878  1.00  0.00     0.018 A 
HETATM   21  C   UNL     1      43.977 -18.652   4.146  1.00  0.00     0.138 A 
HETATM   22  C   UNL     1      43.255 -19.580   2.088  1.00  0.00     0.017 A 
HETATM   23  N   UNL     1      44.276 -19.826   4.728  1.00  0.00    -0.242 NA
HETATM   24  N   UNL     1      44.186 -17.448   4.745  1.00  0.00    -0.350 N 
HETATM   25  C   UNL     1      44.047 -20.890   3.935  1.00  0.00     0.119 A 
HETATM   26  C   UNL     1      43.560 -20.828   2.639  1.00  0.00     0.020 A 
HETATM   27  H   UNL     1      44.610 -17.344   5.656  1.00  0.00     0.166 HD
HETATM   28  C   UNL     1      43.748 -16.448   3.921  1.00  0.00     0.098 A 
ENDBRANCH   1  19
TORSDOF 4
ENDMDL
MODEL 3
REMARK VINA RESULT:      -8.5      2.245      3.545
REMARK  4 active torsions:
REMARK  status: ('A' for Active; 'I' for Inactive)
REMARK    1  A    between atoms: C_10  and  C_11 
REMARK    2  A    between atoms: N_14  and  C_16 
REMARK    3  A    between atoms: C_16  and  C_17 
REMARK    4  A    between atoms: C_22  and  C_23 
ROOT
HETATM    1  C   UNL     1      39.583 -14.168   2.459  1.00  0.00     0.024 C 
HETATM    2  C   UNL     1      40.276 -13.903   3.811  1.00  0.00     0.037 C 
HETATM    3  C   UNL     1      41.741 -14.315   3.764  1.00  0.00     0.236 C 
HETATM    4  N   UNL     1      41.857 -15.785   3.433  1.00  0.00    -0.066 N 
HETATM    5  H   UNL     1      41.528 -16.296   4.268  1.00  0.00     0.280 HD
HETATM    6  C   UNL     1      41.083 -16.210   2.217  1.00  0.00     0.236 C 
HETATM    7  C   UNL     1      39.655 -15.679   2.229  1.00  0.00     0.037 C 
ENDROOT
BRANCH   4   8
HETATM    8  C   UNL     1      43.318 -16.215   3.292  1.00  0.00     0.294 C 
BRANCH   8   9
HETATM    9  C   UNL     1      43.573 -17.665   3.655  1.00  0.00     0.075 A 
HETATM   10  N   UNL     1      43.661 -18.526   2.599  1.00  0.00    -0.263 NA
HETATM   11  C   UNL     1      43.890 -19.831   2.881  1.00  0.00     0.117 A 
HETATM   12  C   UNL     1      44.043 -20.323   4.164  1.00  0.00     0.020 A 
HETATM   13  C   UNL     1      43.970 -19.429   5.228  1.00  0.00     0.020 A 
HETATM   14  C   UNL     1      43.743 -18.071   4.984  1.00  0.00     0.074 A 
BRANCH  14  15
HETATM   15  C   UNL     1      43.657 -17.082   6.113  1.00  0.00     0.419 C 
HETATM   16  F   UNL     1      43.929 -17.671   7.311  1.00  0.00    -0.166 F 
HETATM   17  F   UNL     1      44.583 -16.094   5.977  1.00  0.00    -0.166 F 
HETATM   18  F   UNL     1      42.452 -16.478   6.242  1.00  0.00    -0.166 F 
ENDBRANCH  14  15
ENDBRANCH   8   9
ENDBRANCH   4   8
BRANCH   1  19
HETATM   19  C   UNL     1      40.153 -13.282   1.360  1.00  0.00    -0.024 A 
HETATM   20  C   UNL     1      40.129 -13.412  -0.080  1.00  0.00     0.018 A 
HETATM   21  C   UNL     1      40.916 -12.383  -0.594  1.00  0.00     0.138 A 
HETATM   22  C   UNL     1      39.561 -14.277  -1.038  1.00  0.00     0.017 A 
HETATM   23  N   UNL     1      41.249 -12.151  -1.875  1.00  0.00    -0.242 NA
HETATM   24  N   UNL     1      41.310 -11.586   0.436  1.00  0.00    -0.350 N 
HETATM   25  C   UNL     1      40.702 -13.027  -2.739  1.00  0.00     0.119 A 
HETATM   26  C   UNL     1      39.866 -14.074  -2.387  1.00  0.00     0.020 A 
HETATM   27  H   UNL     1      41.854 -10.743   0.313  1.00  0.00     0.166 HD
HETATM   28  C   UNL     1      40.846 -12.102   1.614  1.00  0.00     0.098 A 
ENDBRANCH   1  19
TORSDOF 4
ENDMDL
MODEL 4
REMARK VINA RESULT:      -8.4      4.098      6.826
REMARK  4 active torsions:
REMARK  status: ('A' for Active; 'I' for Inactive)
REMARK    1  A    between atoms: C_10  and  C_11 
REMARK    2  A    between atoms: N_14  and  C_16 
REMARK    3  A    between atoms: C_16  and  C_17 
REMARK    4  A    between atoms: C_22  and  C_23 
ROOT
HETATM    1  C   UNL     1      41.139 -15.874   6.480  1.00  0.00     0.024 C 
HETATM    2  C   UNL     1      40.168 -14.677   6.428  1.00  0.00     0.037 C 
HETATM    3  C   UNL     1      40.833 -13.463   5.794  1.00  0.00     0.236 C 
HETATM    4  N   UNL     1      42.058 -13.067   6.587  1.00  0.00    -0.066 N 
HETATM    5  H   UNL     1      41.711 -12.670   7.475  1.00  0.00     0.280 HD
HETATM    6  C   UNL     1      43.014 -14.194   6.852  1.00  0.00     0.236 C 
HETATM    7  C   UNL     1      42.307 -15.441   7.368  1.00  0.00     0.037 C 
ENDROOT
BRANCH   4   8
HETATM    8  C   UNL     1      42.800 -11.903   5.929  1.00  0.00     0.294 C 
BRANCH   8   9
HETATM    9  C   UNL     1      43.178 -10.791   6.888  1.00  0.00     0.075 A 
HETATM   10  N   UNL     1      42.129 -10.108   7.434  1.00  0.00    -0.263 NA
HETATM   11  C   UNL     1      42.424  -9.106   8.297  1.00  0.00     0.117 A 
HETATM   12  C   UNL     1      43.714  -8.754   8.650  1.00  0.00     0.020 A 
HETATM   13  C   UNL     1      44.770  -9.472   8.100  1.00  0.00     0.020 A 
HETATM   14  C   UNL     1      44.513 -10.519   7.210  1.00  0.00     0.074 A 
BRANCH  14  15
HETATM   15  C   UNL     1      45.633 -11.312   6.597  1.00  0.00     0.419 C 
HETATM   16  F   UNL     1      46.831 -11.005   7.169  1.00  0.00    -0.166 F 
HETATM   17  F   UNL     1      45.467 -12.647   6.804  1.00  0.00    -0.166 F 
HETATM   18  F   UNL     1      45.785 -11.136   5.263  1.00  0.00    -0.166 F 
ENDBRANCH  14  15
ENDBRANCH   8   9
ENDBRANCH   4   8
BRANCH   1  19
HETATM   19  C   UNL     1      41.490 -16.366   5.082  1.00  0.00    -0.024 A 
HETATM   20  C   UNL     1      42.550 -17.230   4.612  1.00  0.00     0.018 A 
HETATM   21  C   UNL     1      42.477 -17.241   3.220  1.00  0.00     0.138 A 
HETATM   22  C   UNL     1      43.589 -18.001   5.171  1.00  0.00     0.017 A 
HETATM   23  N   UNL     1      43.305 -17.841   2.348  1.00  0.00    -0.242 NA
HETATM   24  N   UNL     1      41.377 -16.536   2.840  1.00  0.00    -0.350 N 
HETATM   25  C   UNL     1      44.294 -18.537   2.941  1.00  0.00     0.119 A 
HETATM   26  C   UNL     1      44.475 -18.656   4.309  1.00  0.00     0.020 A 
HETATM   27  H   UNL     1      41.081 -16.438   1.879  1.00  0.00     0.166 HD
HETATM   28  C   UNL     1      40.763 -16.018   3.947  1.00  0.00     0.098 A 
ENDBRANCH   1  19
TORSDOF 4
ENDMDL
MODEL 5
REMARK VINA RESULT:      -8.3      4.601      7.214
REMARK  4 active torsions:
REMARK  status: ('A' for Active; 'I' for Inactive)
REMARK    1  A    between atoms: C_10  and  C_11 
REMARK    2  A    between atoms: N_14  and  C_16 
REMARK    3  A    between atoms: C_16  and  C_17 
REMARK    4  A    between atoms: C_22  and  C_23 
ROOT
HETATM    1  C   UNL     1      41.183 -15.827   6.503  1.00  0.00     0.024 C 
HETATM    2  C   UNL     1      40.425 -14.486   6.440  1.00  0.00     0.037 C 
HETATM    3  C   UNL     1      41.311 -13.384   5.873  1.00  0.00     0.236 C 
HETATM    4  N   UNL     1      42.541 -13.213   6.735  1.00  0.00    -0.066 N 
HETATM    5  H   UNL     1      42.219 -12.782   7.616  1.00  0.00     0.280 HD
HETATM    6  C   UNL     1      43.286 -14.487   7.012  1.00  0.00     0.236 C 
HETATM    7  C   UNL     1      42.359 -15.611   7.458  1.00  0.00     0.037 C 
ENDROOT
BRANCH   4   8
HETATM    8  C   UNL     1      43.497 -12.173   6.146  1.00  0.00     0.294 C 
BRANCH   8   9
HETATM    9  C   UNL     1      43.948 -11.118   7.138  1.00  0.00     0.075 A 
HETATM   10  N   UNL     1      45.082 -11.418   7.836  1.00  0.00    -0.263 NA
HETATM   11  C   UNL     1      45.520 -10.501   8.731  1.00  0.00     0.117 A 
HETATM   12  C   UNL     1      44.887  -9.293   8.964  1.00  0.00     0.020 A 
HETATM   13  C   UNL     1      43.743  -8.995   8.231  1.00  0.00     0.020 A 
HETATM   14  C   UNL     1      43.259  -9.908   7.290  1.00  0.00     0.074 A 
BRANCH  14  15
HETATM   15  C   UNL     1      42.023  -9.616   6.485  1.00  0.00     0.419 C 
HETATM   16  F   UNL     1      41.671  -8.303   6.576  1.00  0.00    -0.166 F 
HETATM   17  F   UNL     1      42.231  -9.841   5.159  1.00  0.00    -0.166 F 
HETATM   18  F   UNL     1      40.934 -10.335   6.842  1.00  0.00    -0.166 F 
ENDBRANCH  14  15
ENDBRANCH   8   9
ENDBRANCH   4   8
BRANCH   1  19
HETATM   19  C   UNL     1      41.521 -16.341   5.110  1.00  0.00    -0.024 A 
HETATM   20  C   UNL     1      42.570 -17.222   4.646  1.00  0.00     0.018 A 
HETATM   21  C   UNL     1      42.489 -17.250   3.254  1.00  0.00     0.138 A 
HETATM   22  C   UNL     1      43.605 -17.996   5.209  1.00  0.00     0.017 A 
HETATM   23  N   UNL     1      43.306 -17.871   2.386  1.00  0.00    -0.242 NA
HETATM   24  N   UNL     1      41.394 -16.540   2.871  1.00  0.00    -0.350 N 
HETATM   25  C   UNL     1      44.292 -18.569   2.982  1.00  0.00     0.119 A 
HETATM   26  C   UNL     1      44.479 -18.671   4.351  1.00  0.00     0.020 A 
HETATM   27  H   UNL     1      41.094 -16.451   1.910  1.00  0.00     0.166 HD
HETATM   28  C   UNL     1      40.792 -16.001   3.974  1.00  0.00     0.098 A 
ENDBRANCH   1  19
TORSDOF 4
ENDMDL
MODEL 6
REMARK VINA RESULT:      -8.3      4.407      7.472
REMARK  4 active torsions:
REMARK  status: ('A' for Active; 'I' for Inactive)
REMARK    1  A    between atoms: C_10  and  C_11 
REMARK    2  A    between atoms: N_14  and  C_16 
REMARK    3  A    between atoms: C_16  and  C_17 
REMARK    4  A    between atoms: C_22  and  C_23 
ROOT
HETATM    1  C   UNL     1      42.549 -15.006   3.868  1.00  0.00     0.024 C 
HETATM    2  C   UNL     1      41.015 -14.888   3.972  1.00  0.00     0.037 C 
HETATM    3  C   UNL     1      40.356 -15.144   2.623  1.00  0.00     0.236 C 
HETATM    4  N   UNL     1      40.856 -14.147   1.603  1.00  0.00    -0.066 N 
HETATM    5  H   UNL     1      40.445 -13.236   1.863  1.00  0.00     0.280 HD
HETATM    6  C   UNL     1      42.352 -14.044   1.520  1.00  0.00     0.236 C 
HETATM    7  C   UNL     1      42.998 -13.915   2.894  1.00  0.00     0.037 C 
ENDROOT
BRANCH   4   8
HETATM    8  C   UNL     1      40.280 -14.428   0.215  1.00  0.00     0.294 C 
BRANCH   8   9
HETATM    9  C   UNL     1      39.310 -13.370  -0.277  1.00  0.00     0.075 A 
HETATM   10  N   UNL     1      39.047 -12.362   0.605  1.00  0.00    -0.263 NA
HETATM   11  C   UNL     1      38.187 -11.396   0.204  1.00  0.00     0.117 A 
HETATM   12  C   UNL     1      37.577 -11.380  -1.038  1.00  0.00     0.020 A 
HETATM   13  C   UNL     1      37.870 -12.404  -1.931  1.00  0.00     0.020 A 
HETATM   14  C   UNL     1      38.759 -13.418  -1.563  1.00  0.00     0.074 A 
BRANCH  14  15
HETATM   15  C   UNL     1      39.094 -14.540  -2.506  1.00  0.00     0.419 C 
HETATM   16  F   UNL     1      38.387 -14.441  -3.667  1.00  0.00    -0.166 F 
HETATM   17  F   UNL     1      40.402 -14.502  -2.877  1.00  0.00    -0.166 F 
HETATM   18  F   UNL     1      38.859 -15.779  -2.015  1.00  0.00    -0.166 F 
ENDBRANCH  14  15
ENDBRANCH   8   9
ENDBRANCH   4   8
BRANCH   1  19
HETATM   19  C   UNL     1      42.976 -16.431   3.541  1.00  0.00    -0.024 A 
HETATM   20  C   UNL     1      43.234 -17.569   4.395  1.00  0.00     0.018 A 
HETATM   21  C   UNL     1      43.720 -18.588   3.576  1.00  0.00     0.138 A 
HETATM   22  C   UNL     1      43.143 -17.885   5.766  1.00  0.00     0.017 A 
HETATM   23  N   UNL     1      44.167 -19.802   3.936  1.00  0.00    -0.242 NA
HETATM   24  N   UNL     1      43.659 -18.168   2.283  1.00  0.00    -0.350 N 
HETATM   25  C   UNL     1      44.083 -20.034   5.261  1.00  0.00     0.119 A 
HETATM   26  C   UNL     1      43.585 -19.140   6.195  1.00  0.00     0.020 A 
HETATM   27  H   UNL     1      43.914 -18.748   1.496  1.00  0.00     0.166 HD
HETATM   28  C   UNL     1      43.198 -16.881   2.244  1.00  0.00     0.098 A 
ENDBRANCH   1  19
TORSDOF 4
ENDMDL
MODEL 7
REMARK VINA RESULT:      -8.3      3.517      6.774
REMARK  4 active torsions:
REMARK  status: ('A' for Active; 'I' for Inactive)
REMARK    1  A    between atoms: C_10  and  C_11 
REMARK    2  A    between atoms: N_14  and  C_16 
REMARK    3  A    between atoms: C_16  and  C_17 
REMARK    4  A    between atoms: C_22  and  C_23 
ROOT
HETATM    1  C   UNL     1      41.613 -15.457   2.900  1.00  0.00     0.024 C 
HETATM    2  C   UNL     1      42.316 -14.655   1.787  1.00  0.00     0.037 C 
HETATM    3  C   UNL     1      43.375 -13.727   2.367  1.00  0.00     0.236 C 
HETATM    4  N   UNL     1      42.740 -12.761   3.342  1.00  0.00    -0.066 N 
HETATM    5  H   UNL     1      42.181 -12.104   2.774  1.00  0.00     0.280 HD
HETATM    6  C   UNL     1      41.884 -13.411   4.390  1.00  0.00     0.236 C 
HETATM    7  C   UNL     1      40.919 -14.429   3.796  1.00  0.00     0.037 C 
ENDROOT
BRANCH   4   8
HETATM    8  C   UNL     1      43.789 -11.870   4.010  1.00  0.00     0.294 C 
BRANCH   8   9
HETATM    9  C   UNL     1      43.221 -10.919   5.046  1.00  0.00     0.075 A 
HETATM   10  N   UNL     1      42.167 -10.159   4.627  1.00  0.00    -0.263 NA
HETATM   11  C   UNL     1      41.630  -9.297   5.523  1.00  0.00     0.117 A 
HETATM   12  C   UNL     1      42.086  -9.157   6.822  1.00  0.00     0.020 A 
HETATM   13  C   UNL     1      43.148  -9.953   7.238  1.00  0.00     0.020 A 
HETATM   14  C   UNL     1      43.729 -10.863   6.350  1.00  0.00     0.074 A 
BRANCH  14  15
HETATM   15  C   UNL     1      44.880 -11.734   6.769  1.00  0.00     0.419 C 
HETATM   16  F   UNL     1      45.227 -11.507   8.067  1.00  0.00    -0.166 F 
HETATM   17  F   UNL     1      44.551 -13.052   6.710  1.00  0.00    -0.166 F 
HETATM   18  F   UNL     1      46.005 -11.575   6.034  1.00  0.00    -0.166 F 
ENDBRANCH  14  15
ENDBRANCH   8   9
ENDBRANCH   4   8
BRANCH   1  19
HETATM   19  C   UNL     1      42.575 -16.419   3.585  1.00  0.00    -0.024 A 
HETATM   20  C   UNL     1      43.008 -17.751   3.226  1.00  0.00     0.018 A 
HETATM   21  C   UNL     1      43.796 -18.217   4.277  1.00  0.00     0.138 A 
HETATM   22  C   UNL     1      42.829 -18.652   2.156  1.00  0.00     0.017 A 
HETATM   23  N   UNL     1      44.352 -19.432   4.425  1.00  0.00    -0.242 NA
HETATM   24  N   UNL     1      43.953 -17.210   5.179  1.00  0.00    -0.350 N 
HETATM   25  C   UNL     1      44.122 -20.257   3.385  1.00  0.00     0.119 A 
HETATM   26  C   UNL     1      43.395 -19.927   2.253  1.00  0.00     0.020 A 
HETATM   27  H   UNL     1      44.524 -17.289   6.009  1.00  0.00     0.166 HD
HETATM   28  C   UNL     1      43.240 -16.118   4.769  1.00  0.00     0.098 A 
ENDBRANCH   1  19
TORSDOF 4
ENDMDL
MODEL 8
REMARK VINA RESULT:      -8.2      2.835      4.848
REMARK  4 active torsions:
REMARK  status: ('A' for Active; 'I' for Inactive)
REMARK    1  A    between atoms: C_10  and  C_11 
REMARK    2  A    between atoms: N_14  and  C_16 
REMARK    3  A    between atoms: C_16  and  C_17 
REMARK    4  A    between atoms: C_22  and  C_23 
ROOT
HETATM    1  C   UNL     1      42.169 -11.438   3.595  1.00  0.00     0.024 C 
HETATM    2  C   UNL     1      40.733 -11.952   3.371  1.00  0.00     0.037 C 
HETATM    3  C   UNL     1      40.498 -13.260   4.115  1.00  0.00     0.236 C 
HETATM    4  N   UNL     1      41.474 -14.311   3.637  1.00  0.00    -0.066 N 
HETATM    5  H   UNL     1      41.181 -14.564   2.680  1.00  0.00     0.280 HD
HETATM    6  C   UNL     1      42.911 -13.873   3.649  1.00  0.00     0.236 C 
HETATM    7  C   UNL     1      43.101 -12.503   3.011  1.00  0.00     0.037 C 
ENDROOT
BRANCH   4   8
HETATM    8  C   UNL     1      41.324 -15.614   4.424  1.00  0.00     0.294 C 
BRANCH   8   9
HETATM    9  C   UNL     1      42.311 -16.693   4.025  1.00  0.00     0.075 A 
HETATM   10  N   UNL     1      42.180 -17.164   2.750  1.00  0.00    -0.263 NA
HETATM   11  C   UNL     1      43.044 -18.129   2.353  1.00  0.00     0.117 A 
HETATM   12  C   UNL     1      44.040 -18.646   3.162  1.00  0.00     0.020 A 
HETATM   13  C   UNL     1      44.173 -18.142   4.451  1.00  0.00     0.020 A 
HETATM   14  C   UNL     1      43.308 -17.140   4.901  1.00  0.00     0.074 A 
BRANCH  14  15
HETATM   15  C   UNL     1      43.424 -16.577   6.291  1.00  0.00     0.419 C 
HETATM   16  F   UNL     1      42.267 -16.742   6.991  1.00  0.00    -0.166 F 
HETATM   17  F   UNL     1      44.377 -17.229   7.011  1.00  0.00    -0.166 F 
HETATM   18  F   UNL     1      43.724 -15.259   6.342  1.00  0.00    -0.166 F 
ENDBRANCH  14  15
ENDBRANCH   8   9
ENDBRANCH   4   8
BRANCH   1  19
HETATM   19  C   UNL     1      42.401 -11.053   5.051  1.00  0.00    -0.024 A 
HETATM   20  C   UNL     1      43.597 -11.067   5.863  1.00  0.00     0.018 A 
HETATM   21  C   UNL     1      43.210 -10.737   7.161  1.00  0.00     0.138 A 
HETATM   22  C   UNL     1      44.971 -11.335   5.689  1.00  0.00     0.017 A 
HETATM   23  N   UNL     1      43.966 -10.701   8.271  1.00  0.00    -0.242 NA
HETATM   24  N   UNL     1      41.888 -10.416   7.148  1.00  0.00    -0.350 N 
HETATM   25  C   UNL     1      45.262 -10.995   8.047  1.00  0.00     0.119 A 
HETATM   26  C   UNL     1      45.806 -11.302   6.810  1.00  0.00     0.020 A 
HETATM   27  H   UNL     1      41.383 -10.097   7.963  1.00  0.00     0.166 HD
HETATM   28  C   UNL     1      41.391 -10.584   5.885  1.00  0.00     0.098 A 
ENDBRANCH   1  19
TORSDOF 4
ENDMDL
MODEL 9
REMARK VINA RESULT:      -8.2      2.307      3.832
REMARK  4 active torsions:
REMARK  status: ('A' for Active; 'I' for Inactive)
REMARK    1  A    between atoms: C_10  and  C_11 
REMARK    2  A    between atoms: N_14  and  C_16 
REMARK    3  A    between atoms: C_16  and  C_17 
REMARK    4  A    between atoms: C_22  and  C_23 
ROOT
HETATM    1  C   UNL     1      40.195 -14.546   1.588  1.00  0.00     0.024 C 
HETATM    2  C   UNL     1      39.841 -15.838   2.350  1.00  0.00     0.037 C 
HETATM    3  C   UNL     1      40.958 -16.231   3.308  1.00  0.00     0.236 C 
HETATM    4  N   UNL     1      42.245 -16.448   2.544  1.00  0.00    -0.066 N 
HETATM    5  H   UNL     1      42.118 -17.322   2.008  1.00  0.00     0.280 HD
HETATM    6  C   UNL     1      42.620 -15.319   1.628  1.00  0.00     0.236 C 
HETATM    7  C   UNL     1      41.448 -14.860   0.769  1.00  0.00     0.037 C 
ENDROOT
BRANCH   4   8
HETATM    8  C   UNL     1      43.409 -16.760   3.485  1.00  0.00     0.294 C 
BRANCH   8   9
HETATM    9  C   UNL     1      43.597 -18.238   3.767  1.00  0.00     0.075 A 
HETATM   10  N   UNL     1      43.710 -19.034   2.665  1.00  0.00    -0.263 NA
HETATM   11  C   UNL     1      43.880 -20.362   2.873  1.00  0.00     0.117 A 
HETATM   12  C   UNL     1      43.950 -20.938   4.129  1.00  0.00     0.020 A 
HETATM   13  C   UNL     1      43.853 -20.110   5.242  1.00  0.00     0.020 A 
HETATM   14  C   UNL     1      43.685 -18.732   5.075  1.00  0.00     0.074 A 
BRANCH  14  15
HETATM   15  C   UNL     1      43.573 -17.811   6.258  1.00  0.00     0.419 C 
HETATM   16  F   UNL     1      43.567 -18.508   7.430  1.00  0.00    -0.166 F 
HETATM   17  F   UNL     1      44.645 -16.978   6.340  1.00  0.00    -0.166 F 
HETATM   18  F   UNL     1      42.467 -17.032   6.265  1.00  0.00    -0.166 F 
ENDBRANCH  14  15
ENDBRANCH   8   9
ENDBRANCH   4   8
BRANCH   1  19
HETATM   19  C   UNL     1      40.277 -13.350   2.528  1.00  0.00    -0.024 A 
HETATM   20  C   UNL     1      41.408 -12.582   2.999  1.00  0.00     0.018 A 
HETATM   21  C   UNL     1      40.920 -11.682   3.945  1.00  0.00     0.138 A 
HETATM   22  C   UNL     1      42.798 -12.530   2.773  1.00  0.00     0.017 A 
HETATM   23  N   UNL     1      41.614 -10.819   4.707  1.00  0.00    -0.242 NA
HETATM   24  N   UNL     1      39.564 -11.786   3.982  1.00  0.00    -0.350 N 
HETATM   25  C   UNL     1      42.939 -10.836   4.467  1.00  0.00     0.119 A 
HETATM   26  C   UNL     1      43.567 -11.642   3.531  1.00  0.00     0.020 A 
HETATM   27  H   UNL     1      38.975 -11.202   4.559  1.00  0.00     0.166 HD
HETATM   28  C   UNL     1      39.160 -12.772   3.124  1.00  0.00     0.098 A 
ENDBRANCH   1  19
TORSDOF 4
ENDMDL
MODEL 10
REMARK VINA RESULT:      -8.1      2.782      4.118
REMARK  4 active torsions:
REMARK  status: ('A' for Active; 'I' for Inactive)
REMARK    1  A    between atoms: C_10  and  C_11 
REMARK    2  A    between atoms: N_14  and  C_16 
REMARK    3  A    between atoms: C_16  and  C_17 
REMARK    4  A    between atoms: C_22  and  C_23 
ROOT
HETATM    1  C   UNL     1      39.459 -12.736   2.304  1.00  0.00     0.024 C 
HETATM    2  C   UNL     1      40.222 -12.249   3.553  1.00  0.00     0.037 C 
HETATM    3  C   UNL     1      41.644 -12.793   3.572  1.00  0.00     0.236 C 
HETATM    4  N   UNL     1      41.621 -14.305   3.570  1.00  0.00    -0.066 N 
HETATM    5  H   UNL     1      41.280 -14.589   4.503  1.00  0.00     0.280 HD
HETATM    6  C   UNL     1      40.769 -14.910   2.492  1.00  0.00     0.236 C 
HETATM    7  C   UNL     1      39.394 -14.261   2.411  1.00  0.00     0.037 C 
ENDROOT
BRANCH   4   8
HETATM    8  C   UNL     1      43.034 -14.886   3.502  1.00  0.00     0.294 C 
BRANCH   8   9
HETATM    9  C   UNL     1      43.291 -16.003   4.496  1.00  0.00     0.075 A 
HETATM   10  N   UNL     1      43.367 -15.616   5.803  1.00  0.00    -0.263 NA
HETATM   11  C   UNL     1      43.595 -16.583   6.723  1.00  0.00     0.117 A 
HETATM   12  C   UNL     1      43.744 -17.922   6.408  1.00  0.00     0.020 A 
HETATM   13  C   UNL     1      43.644 -18.302   5.074  1.00  0.00     0.020 A 
HETATM   14  C   UNL     1      43.402 -17.338   4.090  1.00  0.00     0.074 A 
BRANCH  14  15
HETATM   15  C   UNL     1      43.292 -17.717   2.639  1.00  0.00     0.419 C 
HETATM   16  F   UNL     1      43.914 -18.904   2.388  1.00  0.00    -0.166 F 
HETATM   17  F   UNL     1      41.996 -17.905   2.273  1.00  0.00    -0.166 F 
HETATM   18  F   UNL     1      43.818 -16.815   1.779  1.00  0.00    -0.166 F 
ENDBRANCH  14  15
ENDBRANCH   8   9
ENDBRANCH   4   8
BRANCH   1  19
HETATM   19  C   UNL     1      40.062 -12.166   1.027  1.00  0.00    -0.024 A 
HETATM   20  C   UNL     1      40.125 -12.696  -0.317  1.00  0.00     0.018 A 
HETATM   21  C   UNL     1      40.906 -11.814  -1.063  1.00  0.00     0.138 A 
HETATM   22  C   UNL     1      39.643 -13.821  -1.017  1.00  0.00     0.017 A 
HETATM   23  N   UNL     1      41.305 -11.934  -2.341  1.00  0.00    -0.242 NA
HETATM   24  N   UNL     1      41.213 -10.743  -0.283  1.00  0.00    -0.350 N 
HETATM   25  C   UNL     1      40.838 -13.042  -2.947  1.00  0.00     0.119 A 
HETATM   26  C   UNL     1      40.019 -13.989  -2.353  1.00  0.00     0.020 A 
HETATM   27  H   UNL     1      41.735  -9.943  -0.613  1.00  0.00     0.166 HD
HETATM   28  C   UNL     1      40.699 -10.931   0.970  1.00  0.00     0.098 A 
ENDBRANCH   1  19
TORSDOF 4
ENDMDL
