MODEL 1
REMARK VINA RESULT:      -9.1      0.000      0.000
REMARK  2 active torsions:
REMARK  status: ('A' for Active; 'I' for Inactive)
REMARK    1  A    between atoms: C_3  and  C_4 
REMARK    2  A    between atoms: C_11  and  C_12 
REMARK       I    between atoms: C_12  and  N_13 
ROOT
HETATM    1  C   UNL     1      40.285 -13.329   2.320  1.00  0.00     0.256 C 
HETATM    2  N   UNL     1      41.273 -14.161   2.865  1.00  0.00    -0.348 N 
HETATM    3  C   UNL     1      42.708 -13.919   2.736  1.00  0.00     0.128 C 
HETATM    4  C   UNL     1      43.515 -14.502   3.891  1.00  0.00     0.055 C 
HETATM    5  C   UNL     1      43.170 -15.972   4.179  1.00  0.00     0.100 C 
HETATM    6  N   UNL     1      43.605 -16.817   3.022  1.00  0.00    -0.273 NA
HETATM    7  C   UNL     1      43.589 -18.205   3.321  1.00  0.00     0.036 A 
HETATM    8  C   UNL     1      43.844 -18.684   4.618  1.00  0.00     0.056 A 
HETATM    9  N   UNL     1      44.033 -17.772   5.662  1.00  0.00    -0.324 N 
HETATM   10  C   UNL     1      43.866 -16.418   5.497  1.00  0.00     0.245 C 
HETATM   11  O   UNL     1      44.179 -15.646   6.402  1.00  0.00    -0.271 OA
HETATM   12  C   UNL     1      43.489 -19.121   2.270  1.00  0.00     0.026 A 
HETATM   13  C   UNL     1      43.574 -20.492   2.521  1.00  0.00     0.002 A 
HETATM   14  C   UNL     1      43.800 -20.956   3.818  1.00  0.00     0.002 A 
HETATM   15  C   UNL     1      43.949 -20.051   4.869  1.00  0.00     0.031 A 
HETATM   16  C   UNL     1      41.646 -16.088   4.375  1.00  0.00     0.055 C 
HETATM   17  C   UNL     1      40.879 -15.528   3.184  1.00  0.00     0.128 C 
HETATM   18  O   UNL     1      39.098 -13.649   2.294  1.00  0.00    -0.267 OA
HETATM   19  H   UNL     1      44.573 -16.594   2.779  1.00  0.00     0.129 HD
HETATM   20  H   UNL     1      44.372 -18.084   6.562  1.00  0.00     0.169 HD
ENDROOT
BRANCH   1  21
HETATM   21  C   UNL     1      40.687 -12.007   1.831  1.00  0.00     0.062 A 
HETATM   22  C   UNL     1      40.912 -11.641   0.453  1.00  0.00    -0.014 A 
HETATM   23  C   UNL     1      40.734 -12.563  -0.706  1.00  0.00     0.052 C 
HETATM   24  C   UNL     1      41.312 -10.307   0.439  1.00  0.00     0.085 A 
HETATM   25  N   UNL     1      41.353  -9.891   1.753  1.00  0.00    -0.356 N 
HETATM   26  H   UNL     1      41.638  -8.957   2.023  1.00  0.00     0.166 HD
HETATM   27  C   UNL     1      41.024 -10.908   2.606  1.00  0.00     0.022 A 
HETATM   28  C   UNL     1      41.084 -10.718   4.078  1.00  0.00     0.069 C 
BRANCH  24  29
HETATM   29  C   UNL     1      41.670  -9.374  -0.618  1.00  0.00     0.172 C 
HETATM   30  C   UNL     1      40.617  -8.926  -1.597  1.00  0.00     0.098 C 
HETATM   31  O   UNL     1      42.824  -8.956  -0.729  1.00  0.00    -0.291 OA
ENDBRANCH  24  29
ENDBRANCH   1  21
TORSDOF 2
ENDMDL
MODEL 2
REMARK VINA RESULT:      -8.8      2.021      3.027
REMARK  2 active torsions:
REMARK  status: ('A' for Active; 'I' for Inactive)
REMARK    1  A    between atoms: C_3  and  C_4 
REMARK    2  A    between atoms: C_11  and  C_12 
REMARK       I    between atoms: C_12  and  N_13 
ROOT
HETATM    1  C   UNL     1      40.437 -13.125   3.893  1.00  0.00     0.256 C 
HETATM    2  N   UNL     1      41.337 -14.093   4.360  1.00  0.00    -0.348 N 
HETATM    3  C   UNL     1      42.758 -13.846   4.588  1.00  0.00     0.128 C 
HETATM    4  C   UNL     1      43.354 -14.749   5.664  1.00  0.00     0.055 C 
HETATM    5  C   UNL     1      43.022 -16.235   5.447  1.00  0.00     0.100 C 
HETATM    6  N   UNL     1      43.706 -16.717   4.206  1.00  0.00    -0.273 NA
HETATM    7  C   UNL     1      43.691 -18.132   4.087  1.00  0.00     0.036 A 
HETATM    8  C   UNL     1      43.713 -18.968   5.217  1.00  0.00     0.056 A 
HETATM    9  N   UNL     1      43.661 -18.398   6.494  1.00  0.00    -0.324 N 
HETATM   10  C   UNL     1      43.471 -17.052   6.693  1.00  0.00     0.245 C 
HETATM   11  O   UNL     1      43.572 -16.577   7.823  1.00  0.00    -0.271 OA
HETATM   12  C   UNL     1      43.832 -18.705   2.820  1.00  0.00     0.026 A 
HETATM   13  C   UNL     1      43.925 -20.092   2.680  1.00  0.00     0.002 A 
HETATM   14  C   UNL     1      43.919 -20.913   3.809  1.00  0.00     0.002 A 
HETATM   15  C   UNL     1      43.825 -20.351   5.083  1.00  0.00     0.031 A 
HETATM   16  C   UNL     1      41.495 -16.379   5.300  1.00  0.00     0.055 C 
HETATM   17  C   UNL     1      40.948 -15.489   4.193  1.00  0.00     0.128 C 
HETATM   18  O   UNL     1      39.292 -13.405   3.546  1.00  0.00    -0.267 OA
HETATM   19  H   UNL     1      44.692 -16.449   4.230  1.00  0.00     0.129 HD
HETATM   20  H   UNL     1      43.833 -18.961   7.315  1.00  0.00     0.169 HD
ENDROOT
BRANCH   1  21
HETATM   21  C   UNL     1      40.870 -11.724   3.889  1.00  0.00     0.062 A 
HETATM   22  C   UNL     1      40.721 -10.784   4.974  1.00  0.00    -0.014 A 
HETATM   23  C   UNL     1      40.121 -11.112   6.299  1.00  0.00     0.052 C 
HETATM   24  C   UNL     1      41.231  -9.564   4.537  1.00  0.00     0.085 A 
HETATM   25  N   UNL     1      41.646  -9.749   3.235  1.00  0.00    -0.356 N 
HETATM   26  H   UNL     1      42.040  -9.004   2.674  1.00  0.00     0.166 HD
HETATM   27  C   UNL     1      41.398 -11.027   2.813  1.00  0.00     0.022 A 
HETATM   28  C   UNL     1      41.683 -11.436   1.414  1.00  0.00     0.069 C 
BRANCH  24  29
HETATM   29  C   UNL     1      41.375  -8.254   5.154  1.00  0.00     0.172 C 
HETATM   30  C   UNL     1      40.863  -7.037   4.431  1.00  0.00     0.098 C 
HETATM   31  O   UNL     1      41.918  -8.128   6.253  1.00  0.00    -0.291 OA
ENDBRANCH  24  29
ENDBRANCH   1  21
TORSDOF 2
ENDMDL
MODEL 3
REMARK VINA RESULT:      -8.7      2.761      4.145
REMARK  2 active torsions:
REMARK  status: ('A' for Active; 'I' for Inactive)
REMARK    1  A    between atoms: C_3  and  C_4 
REMARK    2  A    between atoms: C_11  and  C_12 
REMARK       I    between atoms: C_12  and  N_13 
ROOT
HETATM    1  C   UNL     1      40.686 -12.539   0.967  1.00  0.00     0.256 C 
HETATM    2  N   UNL     1      41.027 -13.697   1.680  1.00  0.00    -0.348 N 
HETATM    3  C   UNL     1      40.134 -14.838   1.863  1.00  0.00     0.128 C 
HETATM    4  C   UNL     1      40.881 -16.155   2.049  1.00  0.00     0.055 C 
HETATM    5  C   UNL     1      41.984 -16.069   3.116  1.00  0.00     0.100 C 
HETATM    6  N   UNL     1      41.357 -15.861   4.459  1.00  0.00    -0.273 NA
HETATM    7  C   UNL     1      42.272 -16.058   5.528  1.00  0.00     0.036 A 
HETATM    8  C   UNL     1      43.332 -16.976   5.431  1.00  0.00     0.056 A 
HETATM    9  N   UNL     1      43.548 -17.652   4.226  1.00  0.00    -0.324 N 
HETATM   10  C   UNL     1      42.835 -17.372   3.086  1.00  0.00     0.245 C 
HETATM   11  O   UNL     1      42.961 -18.085   2.091  1.00  0.00    -0.271 OA
HETATM   12  C   UNL     1      42.011 -15.454   6.760  1.00  0.00     0.026 A 
HETATM   13  C   UNL     1      42.835 -15.710   7.859  1.00  0.00     0.002 A 
HETATM   14  C   UNL     1      43.901 -16.604   7.743  1.00  0.00     0.002 A 
HETATM   15  C   UNL     1      44.145 -17.250   6.531  1.00  0.00     0.031 A 
HETATM   16  C   UNL     1      42.906 -14.883   2.773  1.00  0.00     0.055 C 
HETATM   17  C   UNL     1      42.126 -13.584   2.632  1.00  0.00     0.128 C 
HETATM   18  O   UNL     1      41.388 -11.531   0.977  1.00  0.00    -0.267 OA
HETATM   19  H   UNL     1      40.612 -16.546   4.600  1.00  0.00     0.129 HD
HETATM   20  H   UNL     1      44.197 -18.426   4.180  1.00  0.00     0.169 HD
ENDROOT
BRANCH   1  21
HETATM   21  C   UNL     1      39.483 -12.572   0.130  1.00  0.00     0.062 A 
HETATM   22  C   UNL     1      39.364 -13.193  -1.167  1.00  0.00    -0.014 A 
HETATM   23  C   UNL     1      40.460 -13.938  -1.850  1.00  0.00     0.052 C 
HETATM   24  C   UNL     1      38.068 -12.958  -1.621  1.00  0.00     0.085 A 
HETATM   25  N   UNL     1      37.438 -12.205  -0.654  1.00  0.00    -0.356 N 
HETATM   26  H   UNL     1      36.484 -11.877  -0.749  1.00  0.00     0.166 HD
HETATM   27  C   UNL     1      38.283 -11.925   0.386  1.00  0.00     0.022 A 
HETATM   28  C   UNL     1      37.850 -11.051   1.506  1.00  0.00     0.069 C 
BRANCH  24  29
HETATM   29  C   UNL     1      37.343 -13.325  -2.827  1.00  0.00     0.172 C 
HETATM   30  C   UNL     1      37.800 -14.511  -3.633  1.00  0.00     0.098 C 
HETATM   31  O   UNL     1      36.367 -12.671  -3.202  1.00  0.00    -0.291 OA
ENDBRANCH  24  29
ENDBRANCH   1  21
TORSDOF 2
ENDMDL
MODEL 4
REMARK VINA RESULT:      -8.5      3.453      5.353
REMARK  2 active torsions:
REMARK  status: ('A' for Active; 'I' for Inactive)
REMARK    1  A    between atoms: C_3  and  C_4 
REMARK    2  A    between atoms: C_11  and  C_12 
REMARK       I    between atoms: C_12  and  N_13 
ROOT
HETATM    1  C   UNL     1      43.095 -11.211   5.701  1.00  0.00     0.256 C 
HETATM    2  N   UNL     1      42.589 -12.431   5.233  1.00  0.00    -0.348 N 
HETATM    3  C   UNL     1      41.507 -13.170   5.878  1.00  0.00     0.128 C 
HETATM    4  C   UNL     1      40.712 -14.033   4.904  1.00  0.00     0.055 C 
HETATM    5  C   UNL     1      41.609 -14.917   4.021  1.00  0.00     0.100 C 
HETATM    6  N   UNL     1      42.290 -15.939   4.876  1.00  0.00    -0.273 NA
HETATM    7  C   UNL     1      42.905 -16.968   4.116  1.00  0.00     0.036 A 
HETATM    8  C   UNL     1      42.379 -17.388   2.881  1.00  0.00     0.056 A 
HETATM    9  N   UNL     1      41.273 -16.721   2.343  1.00  0.00    -0.324 N 
HETATM   10  C   UNL     1      40.744 -15.591   2.917  1.00  0.00     0.245 C 
HETATM   11  O   UNL     1      39.690 -15.121   2.490  1.00  0.00    -0.271 OA
HETATM   12  C   UNL     1      43.954 -17.695   4.685  1.00  0.00     0.026 A 
HETATM   13  C   UNL     1      44.511 -18.780   4.004  1.00  0.00     0.002 A 
HETATM   14  C   UNL     1      43.997 -19.170   2.767  1.00  0.00     0.002 A 
HETATM   15  C   UNL     1      42.920 -18.482   2.207  1.00  0.00     0.031 A 
HETATM   16  C   UNL     1      42.656 -14.019   3.333  1.00  0.00     0.055 C 
HETATM   17  C   UNL     1      43.450 -13.203   4.343  1.00  0.00     0.128 C 
HETATM   18  O   UNL     1      44.116 -10.703   5.242  1.00  0.00    -0.267 OA
HETATM   19  H   UNL     1      41.601 -16.404   5.470  1.00  0.00     0.129 HD
HETATM   20  H   UNL     1      40.783 -17.100   1.544  1.00  0.00     0.169 HD
ENDROOT
BRANCH   1  21
HETATM   21  C   UNL     1      42.332 -10.494   6.727  1.00  0.00     0.062 A 
HETATM   22  C   UNL     1      41.068  -9.823   6.535  1.00  0.00    -0.014 A 
HETATM   23  C   UNL     1      40.320  -9.785   5.246  1.00  0.00     0.052 C 
HETATM   24  C   UNL     1      40.717  -9.246   7.753  1.00  0.00     0.085 A 
HETATM   25  N   UNL     1      41.735  -9.532   8.637  1.00  0.00    -0.356 N 
HETATM   26  H   UNL     1      41.736  -9.205   9.596  1.00  0.00     0.166 HD
HETATM   27  C   UNL     1      42.734 -10.243   8.030  1.00  0.00     0.022 A 
HETATM   28  C   UNL     1      43.978 -10.590   8.765  1.00  0.00     0.069 C 
BRANCH  24  29
HETATM   29  C   UNL     1      39.578  -8.461   8.203  1.00  0.00     0.172 C 
HETATM   30  C   UNL     1      39.445  -7.029   7.758  1.00  0.00     0.098 C 
HETATM   31  O   UNL     1      38.728  -8.949   8.951  1.00  0.00    -0.291 OA
ENDBRANCH  24  29
ENDBRANCH   1  21
TORSDOF 2
ENDMDL
MODEL 5
REMARK VINA RESULT:      -8.3      5.783      8.512
REMARK  2 active torsions:
REMARK  status: ('A' for Active; 'I' for Inactive)
REMARK    1  A    between atoms: C_3  and  C_4 
REMARK    2  A    between atoms: C_11  and  C_12 
REMARK       I    between atoms: C_12  and  N_13 
ROOT
HETATM    1  C   UNL     1      44.873 -10.146   8.914  1.00  0.00     0.256 C 
HETATM    2  N   UNL     1      44.171 -10.618   7.796  1.00  0.00    -0.348 N 
HETATM    3  C   UNL     1      42.714 -10.630   7.690  1.00  0.00     0.128 C 
HETATM    4  C   UNL     1      42.221 -10.537   6.250  1.00  0.00     0.055 C 
HETATM    5  C   UNL     1      42.906 -11.550   5.318  1.00  0.00     0.100 C 
HETATM    6  N   UNL     1      42.498 -12.936   5.710  1.00  0.00    -0.273 NA
HETATM    7  C   UNL     1      42.849 -13.907   4.736  1.00  0.00     0.036 A 
HETATM    8  C   UNL     1      42.890 -13.596   3.365  1.00  0.00     0.056 A 
HETATM    9  N   UNL     1      42.664 -12.279   2.953  1.00  0.00    -0.324 N 
HETATM   10  C   UNL     1      42.516 -11.243   3.843  1.00  0.00     0.245 C 
HETATM   11  O   UNL     1      42.181 -10.130   3.441  1.00  0.00    -0.271 OA
HETATM   12  C   UNL     1      42.989 -15.240   5.130  1.00  0.00     0.026 A 
HETATM   13  C   UNL     1      43.232 -16.235   4.180  1.00  0.00     0.002 A 
HETATM   14  C   UNL     1      43.297 -15.909   2.824  1.00  0.00     0.002 A 
HETATM   15  C   UNL     1      43.112 -14.589   2.412  1.00  0.00     0.031 A 
HETATM   16  C   UNL     1      44.433 -11.389   5.457  1.00  0.00     0.055 C 
HETATM   17  C   UNL     1      44.885 -11.524   6.904  1.00  0.00     0.128 C 
HETATM   18  O   UNL     1      46.084 -10.309   9.046  1.00  0.00    -0.267 OA
HETATM   19  H   UNL     1      41.481 -12.982   5.798  1.00  0.00     0.129 HD
HETATM   20  H   UNL     1      42.531 -12.062   1.974  1.00  0.00     0.169 HD
ENDROOT
BRANCH   1  21
HETATM   21  C   UNL     1      44.135  -9.373   9.917  1.00  0.00     0.062 A 
HETATM   22  C   UNL     1      43.676  -9.857  11.197  1.00  0.00    -0.014 A 
HETATM   23  C   UNL     1      43.917 -11.236  11.714  1.00  0.00     0.052 C 
HETATM   24  C   UNL     1      42.993  -8.813  11.815  1.00  0.00     0.085 A 
HETATM   25  N   UNL     1      43.014  -7.750  10.936  1.00  0.00    -0.356 N 
HETATM   26  H   UNL     1      42.563  -6.865  11.136  1.00  0.00     0.166 HD
HETATM   27  C   UNL     1      43.657  -8.080   9.774  1.00  0.00     0.022 A 
HETATM   28  C   UNL     1      43.727  -7.119   8.644  1.00  0.00     0.069 C 
BRANCH  24  29
HETATM   29  C   UNL     1      42.318  -8.669  13.095  1.00  0.00     0.172 C 
HETATM   30  C   UNL     1      42.800  -7.630  14.072  1.00  0.00     0.098 C 
HETATM   31  O   UNL     1      41.366  -9.393  13.393  1.00  0.00    -0.291 OA
ENDBRANCH  24  29
ENDBRANCH   1  21
TORSDOF 2
ENDMDL
MODEL 6
REMARK VINA RESULT:      -8.2      4.092      6.894
REMARK  2 active torsions:
REMARK  status: ('A' for Active; 'I' for Inactive)
REMARK    1  A    between atoms: C_3  and  C_4 
REMARK    2  A    between atoms: C_11  and  C_12 
REMARK       I    between atoms: C_12  and  N_13 
ROOT
HETATM    1  C   UNL     1      41.084 -11.105   6.160  1.00  0.00     0.256 C 
HETATM    2  N   UNL     1      41.354 -11.639   4.892  1.00  0.00    -0.348 N 
HETATM    3  C   UNL     1      42.422 -11.166   4.016  1.00  0.00     0.128 C 
HETATM    4  C   UNL     1      42.942 -12.247   3.074  1.00  0.00     0.055 C 
HETATM    5  C   UNL     1      41.816 -12.974   2.320  1.00  0.00     0.100 C 
HETATM    6  N   UNL     1      41.153 -12.017   1.380  1.00  0.00    -0.273 NA
HETATM    7  C   UNL     1      40.304 -12.665   0.445  1.00  0.00     0.036 A 
HETATM    8  C   UNL     1      40.575 -13.964  -0.020  1.00  0.00     0.056 A 
HETATM    9  N   UNL     1      41.658 -14.672   0.511  1.00  0.00    -0.324 N 
HETATM   10  C   UNL     1      42.408 -14.195   1.559  1.00  0.00     0.245 C 
HETATM   11  O   UNL     1      43.433 -14.784   1.900  1.00  0.00    -0.271 OA
HETATM   12  C   UNL     1      39.274 -11.935  -0.153  1.00  0.00     0.026 A 
HETATM   13  C   UNL     1      38.487 -12.514  -1.151  1.00  0.00     0.002 A 
HETATM   14  C   UNL     1      38.749 -13.814  -1.586  1.00  0.00     0.002 A 
HETATM   15  C   UNL     1      39.804 -14.539  -1.029  1.00  0.00     0.031 A 
HETATM   16  C   UNL     1      40.795 -13.495   3.351  1.00  0.00     0.055 C 
HETATM   17  C   UNL     1      40.276 -12.379   4.246  1.00  0.00     0.128 C 
HETATM   18  O   UNL     1      40.075 -11.403   6.797  1.00  0.00    -0.267 OA
HETATM   19  H   UNL     1      41.863 -11.534   0.824  1.00  0.00     0.129 HD
HETATM   20  H   UNL     1      41.967 -15.536   0.085  1.00  0.00     0.169 HD
ENDROOT
BRANCH   1  21
HETATM   21  C   UNL     1      42.080 -10.216   6.762  1.00  0.00     0.062 A 
HETATM   22  C   UNL     1      43.349 -10.614   7.323  1.00  0.00    -0.014 A 
HETATM   23  C   UNL     1      43.860 -12.015   7.345  1.00  0.00     0.052 C 
HETATM   24  C   UNL     1      43.963  -9.466   7.816  1.00  0.00     0.085 A 
HETATM   25  N   UNL     1      43.093  -8.421   7.588  1.00  0.00    -0.356 N 
HETATM   26  H   UNL     1      43.291  -7.469   7.875  1.00  0.00     0.166 HD
HETATM   27  C   UNL     1      41.939  -8.857   6.996  1.00  0.00     0.022 A 
HETATM   28  C   UNL     1      40.816  -7.920   6.734  1.00  0.00     0.069 C 
BRANCH  24  29
HETATM   29  C   UNL     1      45.234  -9.207   8.476  1.00  0.00     0.172 C 
HETATM   30  C   UNL     1      45.449  -9.698   9.882  1.00  0.00     0.098 C 
HETATM   31  O   UNL     1      46.129  -8.583   7.902  1.00  0.00    -0.291 OA
ENDBRANCH  24  29
ENDBRANCH   1  21
TORSDOF 2
ENDMDL
MODEL 7
REMARK VINA RESULT:      -8.1      3.355      8.096
REMARK  2 active torsions:
REMARK  status: ('A' for Active; 'I' for Inactive)
REMARK    1  A    between atoms: C_3  and  C_4 
REMARK    2  A    between atoms: C_11  and  C_12 
REMARK       I    between atoms: C_12  and  N_13 
ROOT
HETATM    1  C   UNL     1      41.112 -15.557   5.229  1.00  0.00     0.256 C 
HETATM    2  N   UNL     1      41.583 -14.237   5.269  1.00  0.00    -0.348 N 
HETATM    3  C   UNL     1      42.764 -13.768   4.549  1.00  0.00     0.128 C 
HETATM    4  C   UNL     1      42.698 -12.285   4.199  1.00  0.00     0.055 C 
HETATM    5  C   UNL     1      42.330 -11.403   5.404  1.00  0.00     0.100 C 
HETATM    6  N   UNL     1      43.441 -11.449   6.406  1.00  0.00    -0.273 NA
HETATM    7  C   UNL     1      43.317 -10.449   7.407  1.00  0.00     0.036 A 
HETATM    8  C   UNL     1      42.727  -9.202   7.135  1.00  0.00     0.056 A 
HETATM    9  N   UNL     1      42.168  -8.966   5.874  1.00  0.00    -0.324 N 
HETATM   10  C   UNL     1      42.067  -9.948   4.918  1.00  0.00     0.245 C 
HETATM   11  O   UNL     1      41.699  -9.662   3.780  1.00  0.00    -0.271 OA
HETATM   12  C   UNL     1      43.949 -10.643   8.638  1.00  0.00     0.026 A 
HETATM   13  C   UNL     1      43.933  -9.635   9.605  1.00  0.00     0.002 A 
HETATM   14  C   UNL     1      43.321  -8.411   9.333  1.00  0.00     0.002 A 
HETATM   15  C   UNL     1      42.726  -8.187   8.090  1.00  0.00     0.031 A 
HETATM   16  C   UNL     1      41.030 -11.946   6.029  1.00  0.00     0.055 C 
HETATM   17  C   UNL     1      41.152 -13.418   6.396  1.00  0.00     0.128 C 
HETATM   18  O   UNL     1      40.224 -15.960   5.977  1.00  0.00    -0.267 OA
HETATM   19  H   UNL     1      44.332 -11.269   5.940  1.00  0.00     0.129 HD
HETATM   20  H   UNL     1      41.883  -8.035   5.604  1.00  0.00     0.169 HD
ENDROOT
BRANCH   1  21
HETATM   21  C   UNL     1      41.658 -16.455   4.208  1.00  0.00     0.062 A 
HETATM   22  C   UNL     1      42.730 -17.403   4.393  1.00  0.00    -0.014 A 
HETATM   23  C   UNL     1      43.435 -17.639   5.686  1.00  0.00     0.052 C 
HETATM   24  C   UNL     1      42.954 -18.020   3.165  1.00  0.00     0.085 A 
HETATM   25  N   UNL     1      42.075 -17.451   2.268  1.00  0.00    -0.356 N 
HETATM   26  H   UNL     1      42.047 -17.710   1.288  1.00  0.00     0.166 HD
HETATM   27  C   UNL     1      41.319 -16.479   2.864  1.00  0.00     0.022 A 
HETATM   28  C   UNL     1      40.361 -15.666   2.071  1.00  0.00     0.069 C 
BRANCH  24  29
HETATM   29  C   UNL     1      43.874 -19.051   2.709  1.00  0.00     0.172 C 
HETATM   30  C   UNL     1      43.349 -20.204   1.896  1.00  0.00     0.098 C 
HETATM   31  O   UNL     1      45.074 -18.996   2.988  1.00  0.00    -0.291 OA
ENDBRANCH  24  29
ENDBRANCH   1  21
TORSDOF 2
ENDMDL
MODEL 8
REMARK VINA RESULT:      -8.0      5.639      8.925
REMARK  2 active torsions:
REMARK  status: ('A' for Active; 'I' for Inactive)
REMARK    1  A    between atoms: C_3  and  C_4 
REMARK    2  A    between atoms: C_11  and  C_12 
REMARK       I    between atoms: C_12  and  N_13 
ROOT
HETATM    1  C   UNL     1      39.085 -11.209   6.333  1.00  0.00     0.256 C 
HETATM    2  N   UNL     1      40.078 -10.482   7.004  1.00  0.00    -0.348 N 
HETATM    3  C   UNL     1      41.508 -10.614   6.739  1.00  0.00     0.128 C 
HETATM    4  C   UNL     1      42.291  -9.344   7.052  1.00  0.00     0.055 C 
HETATM    5  C   UNL     1      41.982  -8.781   8.449  1.00  0.00     0.100 C 
HETATM    6  N   UNL     1      42.484  -9.734   9.488  1.00  0.00    -0.273 NA
HETATM    7  C   UNL     1      42.501  -9.168  10.790  1.00  0.00     0.036 A 
HETATM    8  C   UNL     1      42.724  -7.795  10.994  1.00  0.00     0.056 A 
HETATM    9  N   UNL     1      42.847  -6.947   9.889  1.00  0.00    -0.324 N 
HETATM   10  C   UNL     1      42.644  -7.381   8.601  1.00  0.00     0.245 C 
HETATM   11  O   UNL     1      42.899  -6.638   7.654  1.00  0.00    -0.271 OA
HETATM   12  C   UNL     1      42.467 -10.019  11.898  1.00  0.00     0.026 A 
HETATM   13  C   UNL     1      42.585  -9.500  13.189  1.00  0.00     0.002 A 
HETATM   14  C   UNL     1      42.779  -8.131  13.380  1.00  0.00     0.002 A 
HETATM   15  C   UNL     1      42.862  -7.276  12.281  1.00  0.00     0.031 A 
HETATM   16  C   UNL     1      40.456  -8.610   8.581  1.00  0.00     0.055 C 
HETATM   17  C   UNL     1      39.716  -9.910   8.296  1.00  0.00     0.128 C 
HETATM   18  O   UNL     1      37.910 -11.206   6.696  1.00  0.00    -0.267 OA
HETATM   19  H   UNL     1      43.453  -9.988   9.281  1.00  0.00     0.129 HD
HETATM   20  H   UNL     1      43.162  -5.994  10.005  1.00  0.00     0.169 HD
ENDROOT
BRANCH   1  21
HETATM   21  C   UNL     1      39.462 -11.938   5.120  1.00  0.00     0.062 A 
HETATM   22  C   UNL     1      40.026 -13.265   5.063  1.00  0.00    -0.014 A 
HETATM   23  C   UNL     1      40.283 -14.124   6.256  1.00  0.00     0.052 C 
HETATM   24  C   UNL     1      40.267 -13.557   3.723  1.00  0.00     0.085 A 
HETATM   25  N   UNL     1      39.891 -12.445   3.000  1.00  0.00    -0.356 N 
HETATM   26  H   UNL     1      39.985 -12.388   1.993  1.00  0.00     0.166 HD
HETATM   27  C   UNL     1      39.446 -11.446   3.823  1.00  0.00     0.022 A 
HETATM   28  C   UNL     1      39.068 -10.118   3.274  1.00  0.00     0.069 C 
BRANCH  24  29
HETATM   29  C   UNL     1      40.805 -14.715   3.026  1.00  0.00     0.172 C 
HETATM   30  C   UNL     1      39.935 -15.460   2.050  1.00  0.00     0.098 C 
HETATM   31  O   UNL     1      41.959 -15.097   3.232  1.00  0.00    -0.291 OA
ENDBRANCH  24  29
ENDBRANCH   1  21
TORSDOF 2
ENDMDL
MODEL 9
REMARK VINA RESULT:      -8.0      2.446      8.155
REMARK  2 active torsions:
REMARK  status: ('A' for Active; 'I' for Inactive)
REMARK    1  A    between atoms: C_3  and  C_4 
REMARK    2  A    between atoms: C_11  and  C_12 
REMARK       I    between atoms: C_12  and  N_13 
ROOT
HETATM    1  C   UNL     1      41.100 -13.294   4.300  1.00  0.00     0.256 C 
HETATM    2  N   UNL     1      40.954 -13.333   2.906  1.00  0.00    -0.348 N 
HETATM    3  C   UNL     1      41.866 -14.037   2.008  1.00  0.00     0.128 C 
HETATM    4  C   UNL     1      41.194 -14.498   0.719  1.00  0.00     0.055 C 
HETATM    5  C   UNL     1      40.402 -13.377   0.025  1.00  0.00     0.100 C 
HETATM    6  N   UNL     1      41.353 -12.330  -0.464  1.00  0.00    -0.273 NA
HETATM    7  C   UNL     1      40.745 -11.412  -1.359  1.00  0.00     0.036 A 
HETATM    8  C   UNL     1      39.696 -11.798  -2.213  1.00  0.00     0.056 A 
HETATM    9  N   UNL     1      39.178 -13.094  -2.121  1.00  0.00    -0.324 N 
HETATM   10  C   UNL     1      39.573 -13.979  -1.147  1.00  0.00     0.245 C 
HETATM   11  O   UNL     1      39.197 -15.149  -1.189  1.00  0.00    -0.271 OA
HETATM   12  C   UNL     1      41.313 -10.145  -1.518  1.00  0.00     0.026 A 
HETATM   13  C   UNL     1      40.801  -9.257  -2.466  1.00  0.00     0.002 A 
HETATM   14  C   UNL     1      39.742  -9.643  -3.290  1.00  0.00     0.002 A 
HETATM   15  C   UNL     1      39.195 -10.921  -3.173  1.00  0.00     0.031 A 
HETATM   16  C   UNL     1      39.421 -12.767   1.046  1.00  0.00     0.055 C 
HETATM   17  C   UNL     1      40.138 -12.287   2.300  1.00  0.00     0.128 C 
HETATM   18  O   UNL     1      40.423 -12.554   5.011  1.00  0.00    -0.267 OA
HETATM   19  H   UNL     1      42.111 -12.772  -0.988  1.00  0.00     0.129 HD
HETATM   20  H   UNL     1      38.540 -13.444  -2.823  1.00  0.00     0.169 HD
ENDROOT
BRANCH   1  21
HETATM   21  C   UNL     1      42.047 -14.223   4.922  1.00  0.00     0.062 A 
HETATM   22  C   UNL     1      41.888 -15.653   5.036  1.00  0.00    -0.014 A 
HETATM   23  C   UNL     1      40.727 -16.419   4.496  1.00  0.00     0.052 C 
HETATM   24  C   UNL     1      42.997 -16.140   5.723  1.00  0.00     0.085 A 
HETATM   25  N   UNL     1      43.780 -15.050   6.037  1.00  0.00    -0.356 N 
HETATM   26  H   UNL     1      44.643 -15.128   6.562  1.00  0.00     0.166 HD
HETATM   27  C   UNL     1      43.207 -13.886   5.604  1.00  0.00     0.022 A 
HETATM   28  C   UNL     1      43.829 -12.571   5.906  1.00  0.00     0.069 C 
BRANCH  24  29
HETATM   29  C   UNL     1      43.421 -17.468   6.137  1.00  0.00     0.172 C 
HETATM   30  C   UNL     1      43.985 -18.417   5.113  1.00  0.00     0.098 C 
HETATM   31  O   UNL     1      43.315 -17.829   7.311  1.00  0.00    -0.291 OA
ENDBRANCH  24  29
ENDBRANCH   1  21
TORSDOF 2
ENDMDL
MODEL 10
REMARK VINA RESULT:      -7.8     15.161     17.723
REMARK  2 active torsions:
REMARK  status: ('A' for Active; 'I' for Inactive)
REMARK    1  A    between atoms: C_3  and  C_4 
REMARK    2  A    between atoms: C_11  and  C_12 
REMARK       I    between atoms: C_12  and  N_13 
ROOT
HETATM    1  C   UNL     1      43.461 -32.490   3.603  1.00  0.00     0.256 C 
HETATM    2  N   UNL     1      43.942 -31.413   2.845  1.00  0.00    -0.348 N 
HETATM    3  C   UNL     1      43.535 -30.025   3.045  1.00  0.00     0.128 C 
HETATM    4  C   UNL     1      44.606 -29.024   2.625  1.00  0.00     0.055 C 
HETATM    5  C   UNL     1      45.159 -29.298   1.216  1.00  0.00     0.100 C 
HETATM    6  N   UNL     1      44.080 -29.059   0.207  1.00  0.00    -0.273 NA
HETATM    7  C   UNL     1      44.574 -29.007  -1.123  1.00  0.00     0.036 A 
HETATM    8  C   UNL     1      45.864 -28.527  -1.412  1.00  0.00     0.056 A 
HETATM    9  N   UNL     1      46.716 -28.171  -0.362  1.00  0.00    -0.324 N 
HETATM   10  C   UNL     1      46.388 -28.380   0.956  1.00  0.00     0.245 C 
HETATM   11  O   UNL     1      47.104 -27.925   1.847  1.00  0.00    -0.271 OA
HETATM   12  C   UNL     1      43.701 -29.277  -2.180  1.00  0.00     0.026 A 
HETATM   13  C   UNL     1      44.128 -29.134  -3.501  1.00  0.00     0.002 A 
HETATM   14  C   UNL     1      45.420 -28.682  -3.776  1.00  0.00     0.002 A 
HETATM   15  C   UNL     1      46.288 -28.365  -2.730  1.00  0.00     0.031 A 
HETATM   16  C   UNL     1      45.629 -30.764   1.151  1.00  0.00     0.055 C 
HETATM   17  C   UNL     1      44.520 -31.730   1.543  1.00  0.00     0.128 C 
HETATM   18  O   UNL     1      43.686 -33.659   3.299  1.00  0.00    -0.267 OA
HETATM   19  H   UNL     1      43.644 -28.150   0.379  1.00  0.00     0.129 HD
HETATM   20  H   UNL     1      47.580 -27.679  -0.545  1.00  0.00     0.169 HD
ENDROOT
BRANCH   1  21
HETATM   21  C   UNL     1      42.724 -32.194   4.834  1.00  0.00     0.062 A 
HETATM   22  C   UNL     1      43.278 -32.130   6.165  1.00  0.00    -0.014 A 
HETATM   23  C   UNL     1      44.721 -32.328   6.488  1.00  0.00     0.052 C 
HETATM   24  C   UNL     1      42.229 -31.857   7.038  1.00  0.00     0.085 A 
HETATM   25  N   UNL     1      41.083 -31.786   6.274  1.00  0.00    -0.356 N 
HETATM   26  H   UNL     1      40.167 -31.619   6.673  1.00  0.00     0.166 HD
HETATM   27  C   UNL     1      41.352 -32.028   4.954  1.00  0.00     0.022 A 
HETATM   28  C   UNL     1      40.257 -32.090   3.953  1.00  0.00     0.069 C 
BRANCH  24  29
HETATM   29  C   UNL     1      42.141 -31.667   8.478  1.00  0.00     0.172 C 
HETATM   30  C   UNL     1      41.247 -32.566   9.289  1.00  0.00     0.098 C 
HETATM   31  O   UNL     1      42.779 -30.773   9.038  1.00  0.00    -0.291 OA
ENDBRANCH  24  29
ENDBRANCH   1  21
TORSDOF 2
ENDMDL
