MODEL 1
REMARK VINA RESULT:      -7.4      0.000      0.000
REMARK  3 active torsions:
REMARK  status: ('A' for Active; 'I' for Inactive)
REMARK       I    between atoms: C_2  and  N_3 
REMARK    1  A    between atoms: N_3  and  C_4 
REMARK    2  A    between atoms: C_7  and  N_8 
REMARK       I    between atoms: N_8  and  C_9 
REMARK    3  A    between atoms: C_9  and  C_10 
ROOT
HETATM    1  C   UNL     1      39.503 -12.996   0.766  1.00  0.00     0.052 A 
HETATM    2  C   UNL     1      40.183 -13.933  -0.001  1.00  0.00     0.148 A 
HETATM    3  N   UNL     1      40.810 -15.027   0.508  1.00  0.00    -0.241 NA
HETATM    4  C   UNL     1      40.773 -15.208   1.844  1.00  0.00     0.130 A 
HETATM    5  C   UNL     1      40.120 -14.326   2.690  1.00  0.00     0.053 A 
HETATM    6  C   UNL     1      39.479 -13.212   2.142  1.00  0.00     0.035 A 
ENDROOT
BRANCH   4   7
HETATM    7  N   UNL     1      41.441 -16.360   2.262  1.00  0.00    -0.307 N 
HETATM    8  C   UNL     1      42.780 -16.537   2.498  1.00  0.00     0.259 C 
HETATM    9  O   UNL     1      43.631 -15.660   2.365  1.00  0.00    -0.267 OA
HETATM   10  H   UNL     1      40.803 -17.140   2.363  1.00  0.00     0.170 HD
BRANCH   8  11
HETATM   11  C   UNL     1      43.233 -17.891   2.977  1.00  0.00     0.054 A 
HETATM   12  C   UNL     1      43.872 -18.181   4.193  1.00  0.00     0.049 A 
HETATM   13 CL   UNL     1      44.233 -17.013   5.417  1.00  0.00    -0.083 Cl
HETATM   14  C   UNL     1      44.245 -19.502   4.499  1.00  0.00     0.025 A 
HETATM   15  C   UNL     1      43.982 -20.543   3.610  1.00  0.00     0.002 A 
HETATM   16  C   UNL     1      43.342 -20.274   2.408  1.00  0.00     0.001 A 
HETATM   17  C   UNL     1      42.973 -18.963   2.097  1.00  0.00     0.019 A 
ENDBRANCH   8  11
ENDBRANCH   4   7
BRANCH   1  18
HETATM   18  N   UNL     1      38.836 -11.859   0.266  1.00  0.00    -0.326 N 
HETATM   19  C   UNL     1      37.967 -11.818  -0.808  1.00  0.00     0.218 C 
HETATM   20  C   UNL     1      37.431 -10.431  -1.053  1.00  0.00     0.117 C 
HETATM   21  O   UNL     1      37.643 -12.761  -1.519  1.00  0.00    -0.274 OA
HETATM   22  H   UNL     1      39.018 -10.985   0.744  1.00  0.00     0.169 HD
ENDBRANCH   1  18
TORSDOF 3
ENDMDL
MODEL 2
REMARK VINA RESULT:      -7.3      1.860      2.175
REMARK  3 active torsions:
REMARK  status: ('A' for Active; 'I' for Inactive)
REMARK       I    between atoms: C_2  and  N_3 
REMARK    1  A    between atoms: N_3  and  C_4 
REMARK    2  A    between atoms: C_7  and  N_8 
REMARK       I    between atoms: N_8  and  C_9 
REMARK    3  A    between atoms: C_9  and  C_10 
ROOT
HETATM    1  C   UNL     1      39.583 -12.482  -0.849  1.00  0.00     0.052 A 
HETATM    2  C   UNL     1      40.616 -12.190   0.033  1.00  0.00     0.148 A 
HETATM    3  N   UNL     1      41.316 -13.128   0.726  1.00  0.00    -0.241 NA
HETATM    4  C   UNL     1      40.980 -14.422   0.550  1.00  0.00     0.130 A 
HETATM    5  C   UNL     1      39.962 -14.809  -0.307  1.00  0.00     0.053 A 
HETATM    6  C   UNL     1      39.261 -13.827  -1.013  1.00  0.00     0.035 A 
ENDROOT
BRANCH   4   7
HETATM    7  N   UNL     1      41.760 -15.300   1.303  1.00  0.00    -0.307 N 
HETATM    8  C   UNL     1      41.424 -15.985   2.443  1.00  0.00     0.259 C 
HETATM    9  O   UNL     1      40.329 -15.916   2.997  1.00  0.00    -0.267 OA
HETATM   10  H   UNL     1      42.694 -15.383   0.922  1.00  0.00     0.170 HD
BRANCH   8  11
HETATM   11  C   UNL     1      42.459 -16.901   3.039  1.00  0.00     0.054 A 
HETATM   12  C   UNL     1      43.171 -16.700   4.233  1.00  0.00     0.049 A 
HETATM   13 CL   UNL     1      42.957 -15.346   5.288  1.00  0.00    -0.083 Cl
HETATM   14  C   UNL     1      44.119 -17.646   4.660  1.00  0.00     0.025 A 
HETATM   15  C   UNL     1      44.363 -18.799   3.915  1.00  0.00     0.002 A 
HETATM   16  C   UNL     1      43.661 -19.018   2.738  1.00  0.00     0.001 A 
HETATM   17  C   UNL     1      42.720 -18.079   2.307  1.00  0.00     0.019 A 
ENDBRANCH   8  11
ENDBRANCH   4   7
BRANCH   1  18
HETATM   18  N   UNL     1      38.848 -11.533  -1.588  1.00  0.00    -0.326 N 
HETATM   19  C   UNL     1      39.241 -10.915  -2.760  1.00  0.00     0.218 C 
HETATM   20  C   UNL     1      38.195  -9.963  -3.280  1.00  0.00     0.117 C 
HETATM   21  O   UNL     1      40.306 -11.072  -3.345  1.00  0.00    -0.274 OA
HETATM   22  H   UNL     1      37.941 -11.281  -1.218  1.00  0.00     0.169 HD
ENDBRANCH   1  18
TORSDOF 3
ENDMDL
MODEL 3
REMARK VINA RESULT:      -7.2      3.033      3.502
REMARK  3 active torsions:
REMARK  status: ('A' for Active; 'I' for Inactive)
REMARK       I    between atoms: C_2  and  N_3 
REMARK    1  A    between atoms: N_3  and  C_4 
REMARK    2  A    between atoms: C_7  and  N_8 
REMARK       I    between atoms: N_8  and  C_9 
REMARK    3  A    between atoms: C_9  and  C_10 
ROOT
HETATM    1  C   UNL     1      39.819 -11.623   4.137  1.00  0.00     0.052 A 
HETATM    2  C   UNL     1      40.860 -12.097   4.926  1.00  0.00     0.148 A 
HETATM    3  N   UNL     1      41.411 -13.334   4.800  1.00  0.00    -0.241 NA
HETATM    4  C   UNL     1      40.909 -14.153   3.854  1.00  0.00     0.130 A 
HETATM    5  C   UNL     1      39.869 -13.769   3.022  1.00  0.00     0.053 A 
HETATM    6  C   UNL     1      39.323 -12.490   3.167  1.00  0.00     0.035 A 
ENDROOT
BRANCH   4   7
HETATM    7  N   UNL     1      41.546 -15.393   3.806  1.00  0.00    -0.307 N 
HETATM    8  C   UNL     1      42.670 -15.755   3.107  1.00  0.00     0.259 C 
HETATM    9  O   UNL     1      43.309 -14.997   2.381  1.00  0.00    -0.267 OA
HETATM   10  H   UNL     1      41.053 -16.082   4.360  1.00  0.00     0.170 HD
BRANCH   8  11
HETATM   11  C   UNL     1      43.166 -17.168   3.262  1.00  0.00     0.054 A 
HETATM   12  C   UNL     1      43.906 -17.685   4.338  1.00  0.00     0.049 A 
HETATM   13 CL   UNL     1      44.365 -16.781   5.739  1.00  0.00    -0.083 Cl
HETATM   14  C   UNL     1      44.308 -19.032   4.337  1.00  0.00     0.025 A 
HETATM   15  C   UNL     1      43.974 -19.877   3.280  1.00  0.00     0.002 A 
HETATM   16  C   UNL     1      43.234 -19.384   2.215  1.00  0.00     0.001 A 
HETATM   17  C   UNL     1      42.835 -18.045   2.207  1.00  0.00     0.019 A 
ENDBRANCH   8  11
ENDBRANCH   4   7
BRANCH   1  18
HETATM   18  N   UNL     1      39.235 -10.344   4.238  1.00  0.00    -0.326 N 
HETATM   19  C   UNL     1      38.443  -9.877   5.270  1.00  0.00     0.218 C 
HETATM   20  C   UNL     1      38.002  -8.453   5.048  1.00  0.00     0.117 C 
HETATM   21  O   UNL     1      38.097 -10.503   6.264  1.00  0.00    -0.274 OA
HETATM   22  H   UNL     1      39.416  -9.706   3.473  1.00  0.00     0.169 HD
ENDBRANCH   1  18
TORSDOF 3
ENDMDL
MODEL 4
REMARK VINA RESULT:      -7.0      6.057      8.622
REMARK  3 active torsions:
REMARK  status: ('A' for Active; 'I' for Inactive)
REMARK       I    between atoms: C_2  and  N_3 
REMARK    1  A    between atoms: N_3  and  C_4 
REMARK    2  A    between atoms: C_7  and  N_8 
REMARK       I    between atoms: N_8  and  C_9 
REMARK    3  A    between atoms: C_9  and  C_10 
ROOT
HETATM    1  C   UNL     1      43.222 -16.413   4.899  1.00  0.00     0.052 A 
HETATM    2  C   UNL     1      42.461 -15.260   4.759  1.00  0.00     0.148 A 
HETATM    3  N   UNL     1      42.582 -14.164   5.556  1.00  0.00    -0.241 NA
HETATM    4  C   UNL     1      43.494 -14.205   6.547  1.00  0.00     0.130 A 
HETATM    5  C   UNL     1      44.298 -15.313   6.765  1.00  0.00     0.053 A 
HETATM    6  C   UNL     1      44.158 -16.425   5.930  1.00  0.00     0.035 A 
ENDROOT
BRANCH   4   7
HETATM    7  N   UNL     1      43.540 -13.031   7.301  1.00  0.00    -0.307 N 
HETATM    8  C   UNL     1      44.394 -11.965   7.177  1.00  0.00     0.259 C 
HETATM    9  O   UNL     1      45.292 -11.888   6.342  1.00  0.00    -0.267 OA
HETATM   10  H   UNL     1      42.844 -13.037   8.035  1.00  0.00     0.170 HD
BRANCH   8  11
HETATM   11  C   UNL     1      44.199 -10.801   8.113  1.00  0.00     0.054 A 
HETATM   12  C   UNL     1      43.099  -9.929   8.150  1.00  0.00     0.049 A 
HETATM   13 CL   UNL     1      41.710 -10.055   7.128  1.00  0.00    -0.083 Cl
HETATM   14  C   UNL     1      43.063  -8.875   9.080  1.00  0.00     0.025 A 
HETATM   15  C   UNL     1      44.108  -8.683   9.983  1.00  0.00     0.002 A 
HETATM   16  C   UNL     1      45.197  -9.542   9.966  1.00  0.00     0.001 A 
HETATM   17  C   UNL     1      45.241 -10.589   9.041  1.00  0.00     0.019 A 
ENDBRANCH   8  11
ENDBRANCH   4   7
BRANCH   1  18
HETATM   18  N   UNL     1      43.126 -17.559   4.084  1.00  0.00    -0.326 N 
HETATM   19  C   UNL     1      43.292 -17.613   2.712  1.00  0.00     0.218 C 
HETATM   20  C   UNL     1      43.128 -19.011   2.174  1.00  0.00     0.117 C 
HETATM   21  O   UNL     1      43.530 -16.669   1.970  1.00  0.00    -0.274 OA
HETATM   22  H   UNL     1      42.912 -18.429   4.555  1.00  0.00     0.169 HD
ENDBRANCH   1  18
TORSDOF 3
ENDMDL
MODEL 5
REMARK VINA RESULT:      -7.0      3.377      7.737
REMARK  3 active torsions:
REMARK  status: ('A' for Active; 'I' for Inactive)
REMARK       I    between atoms: C_2  and  N_3 
REMARK    1  A    between atoms: N_3  and  C_4 
REMARK    2  A    between atoms: C_7  and  N_8 
REMARK       I    between atoms: N_8  and  C_9 
REMARK    3  A    between atoms: C_9  and  C_10 
ROOT
HETATM    1  C   UNL     1      42.217 -16.444   4.100  1.00  0.00     0.052 A 
HETATM    2  C   UNL     1      40.885 -16.050   4.091  1.00  0.00     0.148 A 
HETATM    3  N   UNL     1      40.211 -15.665   2.975  1.00  0.00    -0.241 NA
HETATM    4  C   UNL     1      40.881 -15.660   1.805  1.00  0.00     0.130 A 
HETATM    5  C   UNL     1      42.212 -16.035   1.715  1.00  0.00     0.053 A 
HETATM    6  C   UNL     1      42.882 -16.432   2.876  1.00  0.00     0.035 A 
ENDROOT
BRANCH   4   7
HETATM    7  N   UNL     1      40.097 -15.254   0.724  1.00  0.00    -0.307 N 
HETATM    8  C   UNL     1      40.155 -14.082   0.014  1.00  0.00     0.259 C 
HETATM    9  O   UNL     1      40.946 -13.170   0.244  1.00  0.00    -0.267 OA
HETATM   10  H   UNL     1      39.396 -15.947   0.496  1.00  0.00     0.170 HD
BRANCH   8  11
HETATM   11  C   UNL     1      39.201 -13.914  -1.139  1.00  0.00     0.054 A 
HETATM   12  C   UNL     1      38.290 -12.863  -1.328  1.00  0.00     0.049 A 
HETATM   13 CL   UNL     1      38.116 -11.510  -0.265  1.00  0.00    -0.083 Cl
HETATM   14  C   UNL     1      37.452 -12.847  -2.457  1.00  0.00     0.025 A 
HETATM   15  C   UNL     1      37.516 -13.864  -3.408  1.00  0.00     0.002 A 
HETATM   16  C   UNL     1      38.419 -14.905  -3.241  1.00  0.00     0.001 A 
HETATM   17  C   UNL     1      39.251 -14.928  -2.119  1.00  0.00     0.019 A 
ENDBRANCH   8  11
ENDBRANCH   4   7
BRANCH   1  18
HETATM   18  N   UNL     1      42.939 -16.858   5.238  1.00  0.00    -0.326 N 
HETATM   19  C   UNL     1      43.528 -16.040   6.183  1.00  0.00     0.218 C 
HETATM   20  C   UNL     1      44.209 -16.829   7.273  1.00  0.00     0.117 C 
HETATM   21  O   UNL     1      43.540 -14.815   6.182  1.00  0.00    -0.274 OA
HETATM   22  H   UNL     1      43.035 -17.857   5.370  1.00  0.00     0.169 HD
ENDBRANCH   1  18
TORSDOF 3
ENDMDL
MODEL 6
REMARK VINA RESULT:      -6.9      5.484      6.730
REMARK  3 active torsions:
REMARK  status: ('A' for Active; 'I' for Inactive)
REMARK       I    between atoms: C_2  and  N_3 
REMARK    1  A    between atoms: N_3  and  C_4 
REMARK    2  A    between atoms: C_7  and  N_8 
REMARK       I    between atoms: N_8  and  C_9 
REMARK    3  A    between atoms: C_9  and  C_10 
ROOT
HETATM    1  C   UNL     1      43.288 -10.869   7.212  1.00  0.00     0.052 A 
HETATM    2  C   UNL     1      44.312 -11.808   7.241  1.00  0.00     0.148 A 
HETATM    3  N   UNL     1      44.313 -12.959   6.519  1.00  0.00    -0.241 NA
HETATM    4  C   UNL     1      43.249 -13.208   5.729  1.00  0.00     0.130 A 
HETATM    5  C   UNL     1      42.179 -12.332   5.636  1.00  0.00     0.053 A 
HETATM    6  C   UNL     1      42.204 -11.152   6.384  1.00  0.00     0.035 A 
ENDROOT
BRANCH   4   7
HETATM    7  N   UNL     1      43.352 -14.411   5.029  1.00  0.00    -0.307 N 
HETATM    8  C   UNL     1      42.850 -15.643   5.363  1.00  0.00     0.259 C 
HETATM    9  O   UNL     1      42.207 -15.878   6.383  1.00  0.00    -0.267 OA
HETATM   10  H   UNL     1      43.901 -14.301   4.186  1.00  0.00     0.170 HD
BRANCH   8  11
HETATM   11  C   UNL     1      43.084 -16.777   4.400  1.00  0.00     0.054 A 
HETATM   12  C   UNL     1      42.428 -16.989   3.177  1.00  0.00     0.049 A 
HETATM   13 CL   UNL     1      41.225 -15.940   2.512  1.00  0.00    -0.083 Cl
HETATM   14  C   UNL     1      42.750 -18.106   2.386  1.00  0.00     0.025 A 
HETATM   15  C   UNL     1      43.727 -19.013   2.793  1.00  0.00     0.002 A 
HETATM   16  C   UNL     1      44.392 -18.812   3.995  1.00  0.00     0.001 A 
HETATM   17  C   UNL     1      44.073 -17.707   4.788  1.00  0.00     0.019 A 
ENDBRANCH   8  11
ENDBRANCH   4   7
BRANCH   1  18
HETATM   18  N   UNL     1      43.263  -9.663   7.941  1.00  0.00    -0.326 N 
HETATM   19  C   UNL     1      43.335  -9.528   9.314  1.00  0.00     0.218 C 
HETATM   20  C   UNL     1      43.293  -8.084   9.746  1.00  0.00     0.117 C 
HETATM   21  O   UNL     1      43.412 -10.435  10.133  1.00  0.00    -0.274 OA
HETATM   22  H   UNL     1      43.183  -8.812   7.399  1.00  0.00     0.169 HD
ENDBRANCH   1  18
TORSDOF 3
ENDMDL
MODEL 7
REMARK VINA RESULT:      -6.7     14.794     17.630
REMARK  3 active torsions:
REMARK  status: ('A' for Active; 'I' for Inactive)
REMARK       I    between atoms: C_2  and  N_3 
REMARK    1  A    between atoms: N_3  and  C_4 
REMARK    2  A    between atoms: C_7  and  N_8 
REMARK       I    between atoms: N_8  and  C_9 
REMARK    3  A    between atoms: C_9  and  C_10 
ROOT
HETATM    1  C   UNL     1      50.541 -30.477   4.307  1.00  0.00     0.052 A 
HETATM    2  C   UNL     1      49.155 -30.488   4.409  1.00  0.00     0.148 A 
HETATM    3  N   UNL     1      48.311 -30.262   3.367  1.00  0.00    -0.241 NA
HETATM    4  C   UNL     1      48.855 -30.004   2.161  1.00  0.00     0.130 A 
HETATM    5  C   UNL     1      50.226 -29.970   1.962  1.00  0.00     0.053 A 
HETATM    6  C   UNL     1      51.073 -30.211   3.047  1.00  0.00     0.035 A 
ENDROOT
BRANCH   4   7
HETATM    7  N   UNL     1      47.904 -29.791   1.162  1.00  0.00    -0.307 N 
HETATM    8  C   UNL     1      47.108 -28.694   0.956  1.00  0.00     0.259 C 
HETATM    9  O   UNL     1      47.115 -27.688   1.661  1.00  0.00    -0.267 OA
HETATM   10  H   UNL     1      47.819 -30.598   0.557  1.00  0.00     0.170 HD
BRANCH   8  11
HETATM   11  C   UNL     1      46.180 -28.716  -0.230  1.00  0.00     0.054 A 
HETATM   12  C   UNL     1      44.855 -29.179  -0.251  1.00  0.00     0.049 A 
HETATM   13 CL   UNL     1      44.006 -29.790   1.126  1.00  0.00    -0.083 Cl
HETATM   14  C   UNL     1      44.112 -29.144  -1.445  1.00  0.00     0.025 A 
HETATM   15  C   UNL     1      44.670 -28.645  -2.620  1.00  0.00     0.002 A 
HETATM   16  C   UNL     1      45.976 -28.174  -2.613  1.00  0.00     0.001 A 
HETATM   17  C   UNL     1      46.721 -28.210  -1.432  1.00  0.00     0.019 A 
ENDBRANCH   8  11
ENDBRANCH   4   7
BRANCH   1  18
HETATM   18  N   UNL     1      51.440 -30.717   5.365  1.00  0.00    -0.326 N 
HETATM   19  C   UNL     1      52.027 -31.925   5.691  1.00  0.00     0.218 C 
HETATM   20  C   UNL     1      52.946 -31.808   6.880  1.00  0.00     0.117 C 
HETATM   21  O   UNL     1      51.850 -32.997   5.127  1.00  0.00    -0.274 OA
HETATM   22  H   UNL     1      51.675 -29.921   5.944  1.00  0.00     0.169 HD
ENDBRANCH   1  18
TORSDOF 3
ENDMDL
MODEL 8
REMARK VINA RESULT:      -6.6      3.564      4.082
REMARK  3 active torsions:
REMARK  status: ('A' for Active; 'I' for Inactive)
REMARK       I    between atoms: C_2  and  N_3 
REMARK    1  A    between atoms: N_3  and  C_4 
REMARK    2  A    between atoms: C_7  and  N_8 
REMARK       I    between atoms: N_8  and  C_9 
REMARK    3  A    between atoms: C_9  and  C_10 
ROOT
HETATM    1  C   UNL     1      39.885 -12.488   4.941  1.00  0.00     0.052 A 
HETATM    2  C   UNL     1      40.427 -13.016   3.776  1.00  0.00     0.148 A 
HETATM    3  N   UNL     1      41.015 -14.240   3.695  1.00  0.00    -0.241 NA
HETATM    4  C   UNL     1      41.081 -14.983   4.818  1.00  0.00     0.130 A 
HETATM    5  C   UNL     1      40.570 -14.538   6.027  1.00  0.00     0.053 A 
HETATM    6  C   UNL     1      39.965 -13.280   6.084  1.00  0.00     0.035 A 
ENDROOT
BRANCH   4   7
HETATM    7  N   UNL     1      41.699 -16.219   4.625  1.00  0.00    -0.307 N 
HETATM    8  C   UNL     1      42.954 -16.621   5.006  1.00  0.00     0.259 C 
HETATM    9  O   UNL     1      43.759 -15.909   5.601  1.00  0.00    -0.267 OA
HETATM   10  H   UNL     1      41.102 -16.852   4.108  1.00  0.00     0.170 HD
BRANCH   8  11
HETATM   11  C   UNL     1      43.359 -18.037   4.694  1.00  0.00     0.054 A 
HETATM   12  C   UNL     1      43.547 -18.595   3.420  1.00  0.00     0.049 A 
HETATM   13 CL   UNL     1      43.380 -17.728   1.933  1.00  0.00    -0.083 Cl
HETATM   14  C   UNL     1      43.920 -19.944   3.287  1.00  0.00     0.025 A 
HETATM   15  C   UNL     1      44.118 -20.745   4.410  1.00  0.00     0.002 A 
HETATM   16  C   UNL     1      43.947 -20.206   5.677  1.00  0.00     0.001 A 
HETATM   17  C   UNL     1      43.571 -18.867   5.816  1.00  0.00     0.019 A 
ENDBRANCH   8  11
ENDBRANCH   4   7
BRANCH   1  18
HETATM   18  N   UNL     1      39.261 -11.229   5.053  1.00  0.00    -0.326 N 
HETATM   19  C   UNL     1      39.871 -10.031   5.374  1.00  0.00     0.218 C 
HETATM   20  C   UNL     1      38.895  -8.883   5.392  1.00  0.00     0.117 C 
HETATM   21  O   UNL     1      41.055  -9.864   5.634  1.00  0.00    -0.274 OA
HETATM   22  H   UNL     1      38.263 -11.206   4.883  1.00  0.00     0.169 HD
ENDBRANCH   1  18
TORSDOF 3
ENDMDL
MODEL 9
REMARK VINA RESULT:      -6.5      2.835      8.206
REMARK  3 active torsions:
REMARK  status: ('A' for Active; 'I' for Inactive)
REMARK       I    between atoms: C_2  and  N_3 
REMARK    1  A    between atoms: N_3  and  C_4 
REMARK    2  A    between atoms: C_7  and  N_8 
REMARK       I    between atoms: N_8  and  C_9 
REMARK    3  A    between atoms: C_9  and  C_10 
ROOT
HETATM    1  C   UNL     1      42.526 -16.221   2.964  1.00  0.00     0.052 A 
HETATM    2  C   UNL     1      43.118 -15.253   2.163  1.00  0.00     0.148 A 
HETATM    3  N   UNL     1      42.427 -14.391   1.371  1.00  0.00    -0.241 NA
HETATM    4  C   UNL     1      41.082 -14.488   1.358  1.00  0.00     0.130 A 
HETATM    5  C   UNL     1      40.403 -15.424   2.122  1.00  0.00     0.053 A 
HETATM    6  C   UNL     1      41.135 -16.296   2.932  1.00  0.00     0.035 A 
ENDROOT
BRANCH   4   7
HETATM    7  N   UNL     1      40.471 -13.557   0.517  1.00  0.00    -0.307 N 
HETATM    8  C   UNL     1      39.706 -13.780  -0.599  1.00  0.00     0.259 C 
HETATM    9  O   UNL     1      39.438 -14.893  -1.046  1.00  0.00    -0.267 OA
HETATM   10  H   UNL     1      40.675 -12.609   0.807  1.00  0.00     0.170 HD
BRANCH   8  11
HETATM   11  C   UNL     1      39.137 -12.580  -1.309  1.00  0.00     0.054 A 
HETATM   12  C   UNL     1      39.693 -11.917  -2.415  1.00  0.00     0.049 A 
HETATM   13 CL   UNL     1      41.152 -12.391  -3.213  1.00  0.00    -0.083 Cl
HETATM   14  C   UNL     1      39.046 -10.797  -2.967  1.00  0.00     0.025 A 
HETATM   15  C   UNL     1      37.845 -10.332  -2.436  1.00  0.00     0.002 A 
HETATM   16  C   UNL     1      37.277 -10.982  -1.349  1.00  0.00     0.001 A 
HETATM   17  C   UNL     1      37.917 -12.093  -0.793  1.00  0.00     0.019 A 
ENDBRANCH   8  11
ENDBRANCH   4   7
BRANCH   1  18
HETATM   18  N   UNL     1      43.215 -17.121   3.802  1.00  0.00    -0.326 N 
HETATM   19  C   UNL     1      43.642 -18.394   3.473  1.00  0.00     0.218 C 
HETATM   20  C   UNL     1      44.358 -19.067   4.616  1.00  0.00     0.117 C 
HETATM   21  O   UNL     1      43.475 -18.964   2.402  1.00  0.00    -0.274 OA
HETATM   22  H   UNL     1      43.414 -16.798   4.740  1.00  0.00     0.169 HD
ENDBRANCH   1  18
TORSDOF 3
ENDMDL
MODEL 10
REMARK VINA RESULT:      -6.5      4.329      5.009
REMARK  3 active torsions:
REMARK  status: ('A' for Active; 'I' for Inactive)
REMARK       I    between atoms: C_2  and  N_3 
REMARK    1  A    between atoms: N_3  and  C_4 
REMARK    2  A    between atoms: C_7  and  N_8 
REMARK       I    between atoms: N_8  and  C_9 
REMARK    3  A    between atoms: C_9  and  C_10 
ROOT
HETATM    1  C   UNL     1      40.728 -10.675   5.793  1.00  0.00     0.052 A 
HETATM    2  C   UNL     1      41.923 -11.246   6.212  1.00  0.00     0.148 A 
HETATM    3  N   UNL     1      42.382 -12.453   5.787  1.00  0.00    -0.241 NA
HETATM    4  C   UNL     1      41.625 -13.141   4.908  1.00  0.00     0.130 A 
HETATM    5  C   UNL     1      40.417 -12.653   4.435  1.00  0.00     0.053 A 
HETATM    6  C   UNL     1      39.969 -11.407   4.883  1.00  0.00     0.035 A 
ENDROOT
BRANCH   4   7
HETATM    7  N   UNL     1      42.189 -14.361   4.534  1.00  0.00    -0.307 N 
HETATM    8  C   UNL     1      41.777 -15.630   4.853  1.00  0.00     0.259 C 
HETATM    9  O   UNL     1      40.802 -15.888   5.556  1.00  0.00    -0.267 OA
HETATM   10  H   UNL     1      43.022 -14.227   3.975  1.00  0.00     0.170 HD
BRANCH   8  11
HETATM   11  C   UNL     1      42.559 -16.783   4.283  1.00  0.00     0.054 A 
HETATM   12  C   UNL     1      43.459 -17.611   4.974  1.00  0.00     0.049 A 
HETATM   13 CL   UNL     1      43.816 -17.482   6.661  1.00  0.00    -0.083 Cl
HETATM   14  C   UNL     1      44.125 -18.650   4.299  1.00  0.00     0.025 A 
HETATM   15  C   UNL     1      43.901 -18.881   2.943  1.00  0.00     0.002 A 
HETATM   16  C   UNL     1      43.007 -18.078   2.249  1.00  0.00     0.001 A 
HETATM   17  C   UNL     1      42.345 -17.041   2.912  1.00  0.00     0.019 A 
ENDBRANCH   8  11
ENDBRANCH   4   7
BRANCH   1  18
HETATM   18  N   UNL     1      40.231  -9.423   6.208  1.00  0.00    -0.326 N 
HETATM   19  C   UNL     1      39.342  -9.188   7.240  1.00  0.00     0.218 C 
HETATM   20  C   UNL     1      39.040  -7.721   7.408  1.00  0.00     0.117 C 
HETATM   21  O   UNL     1      38.819 -10.032   7.957  1.00  0.00    -0.274 OA
HETATM   22  H   UNL     1      40.560  -8.616   5.693  1.00  0.00     0.169 HD
ENDBRANCH   1  18
TORSDOF 3
ENDMDL
