MODEL 1
REMARK VINA RESULT:      -8.4      0.000      0.000
REMARK  9 active torsions:
REMARK  status: ('A' for Active; 'I' for Inactive)
REMARK    1  A    between atoms: C_2  and  C_3 
REMARK    2  A    between atoms: C_3  and  O_4 
REMARK    3  A    between atoms: O_4  and  C_5 
REMARK    4  A    between atoms: C_8  and  C_9 
REMARK    5  A    between atoms: N_10  and  N_11 
REMARK       I    between atoms: N_11  and  C_12 
REMARK    6  A    between atoms: C_12  and  C_13 
REMARK    7  A    between atoms: C_17  and  C_18 
REMARK    8  A    between atoms: C_21  and  O_22 
REMARK    9  A    between atoms: O_22  and  C_23 
ROOT
HETATM    1  N   UNL     1      43.359 -11.952   7.788  1.00  0.00    -0.242 N 
HETATM    2  C   UNL     1      44.397 -11.192   8.305  1.00  0.00     0.289 C 
HETATM    3  O   UNL     1      45.569 -11.287   7.949  1.00  0.00    -0.264 OA
HETATM    4  H   UNL     1      42.420 -11.857   8.150  1.00  0.00     0.192 HD
ENDROOT
BRANCH   2   5
HETATM    5  C   UNL     1      44.011 -10.259   9.335  1.00  0.00     0.121 A 
HETATM    6  N   UNL     1      43.900  -8.923   9.067  1.00  0.00    -0.272 N 
HETATM    7  H   UNL     1      44.060  -8.469   8.172  1.00  0.00     0.189 HD
HETATM    8  N   UNL     1      43.560  -8.176  10.126  1.00  0.00    -0.174 NA
HETATM    9  C   UNL     1      43.402  -9.056  11.127  1.00  0.00     0.089 A 
HETATM   10  C   UNL     1      43.681 -10.376  10.671  1.00  0.00     0.071 A 
BRANCH   9  11
HETATM   11  C   UNL     1      43.010  -8.628  12.473  1.00  0.00    -0.005 A 
HETATM   12  C   UNL     1      43.556  -7.479  13.056  1.00  0.00     0.016 A 
HETATM   13  C   UNL     1      43.158  -7.075  14.336  1.00  0.00     0.037 A 
HETATM   14  C   UNL     1      42.207  -7.806  15.052  1.00  0.00     0.068 A 
HETATM   15  C   UNL     1      41.669  -8.960  14.485  1.00  0.00     0.037 A 
HETATM   16  C   UNL     1      42.071  -9.366  13.207  1.00  0.00     0.016 A 
BRANCH  14  17
HETATM   17  O   UNL     1      41.902  -7.295  16.283  1.00  0.00    -0.352 OA
BRANCH  17  18
HETATM   18  C   UNL     1      40.529  -7.320  16.669  1.00  0.00     0.171 C 
HETATM   19  C   UNL     1      39.854  -6.096  16.076  1.00  0.00     0.034 C 
ENDBRANCH  17  18
ENDBRANCH  14  17
ENDBRANCH   9  11
ENDBRANCH   2   5
BRANCH   1  20
HETATM   20  N   UNL     1      43.610 -12.864   6.806  1.00  0.00    -0.184 NA
HETATM   21  C   UNL     1      43.228 -14.077   7.044  1.00  0.00     0.150 C 
BRANCH  21  22
HETATM   22  C   UNL     1      43.439 -15.155   6.057  1.00  0.00    -0.017 A 
HETATM   23  C   UNL     1      42.905 -15.054   4.770  1.00  0.00     0.016 A 
HETATM   24  C   UNL     1      43.108 -16.082   3.843  1.00  0.00     0.037 A 
HETATM   25  C   UNL     1      43.845 -17.212   4.200  1.00  0.00     0.068 A 
HETATM   26  C   UNL     1      44.377 -17.304   5.491  1.00  0.00     0.037 A 
HETATM   27  C   UNL     1      44.176 -16.281   6.423  1.00  0.00     0.016 A 
BRANCH  25  28
HETATM   28  O   UNL     1      44.117 -18.280   3.391  1.00  0.00    -0.351 OA
BRANCH  28  29
HETATM   29  C   UNL     1      43.191 -18.546   2.337  1.00  0.00     0.175 C 
BRANCH  29  30
HETATM   30  C   UNL     1      43.171 -20.053   2.097  1.00  0.00     0.022 C 
HETATM   31  C   UNL     1      43.781 -20.817   3.260  1.00  0.00     0.007 C 
ENDBRANCH  29  30
ENDBRANCH  28  29
ENDBRANCH  25  28
ENDBRANCH  21  22
ENDBRANCH   1  20
TORSDOF 9
ENDMDL
MODEL 2
REMARK VINA RESULT:      -8.1      1.168     12.464
REMARK  9 active torsions:
REMARK  status: ('A' for Active; 'I' for Inactive)
REMARK    1  A    between atoms: C_2  and  C_3 
REMARK    2  A    between atoms: C_3  and  O_4 
REMARK    3  A    between atoms: O_4  and  C_5 
REMARK    4  A    between atoms: C_8  and  C_9 
REMARK    5  A    between atoms: N_10  and  N_11 
REMARK       I    between atoms: N_11  and  C_12 
REMARK    6  A    between atoms: C_12  and  C_13 
REMARK    7  A    between atoms: C_17  and  C_18 
REMARK    8  A    between atoms: C_21  and  O_22 
REMARK    9  A    between atoms: O_22  and  C_23 
ROOT
HETATM    1  N   UNL     1      42.987 -10.458   9.144  1.00  0.00    -0.242 N 
HETATM    2  C   UNL     1      44.080 -11.026   8.506  1.00  0.00     0.289 C 
HETATM    3  O   UNL     1      45.245 -10.878   8.867  1.00  0.00    -0.264 OA
HETATM    4  H   UNL     1      42.054 -10.582   8.776  1.00  0.00     0.192 HD
ENDROOT
BRANCH   2   5
HETATM    5  C   UNL     1      43.760 -11.815   7.343  1.00  0.00     0.121 A 
HETATM    6  N   UNL     1      43.283 -11.228   6.205  1.00  0.00    -0.272 N 
HETATM    7  H   UNL     1      43.117 -10.236   6.058  1.00  0.00     0.189 HD
HETATM    8  N   UNL     1      43.003 -12.089   5.217  1.00  0.00    -0.174 NA
HETATM    9  C   UNL     1      43.346 -13.291   5.706  1.00  0.00     0.089 A 
HETATM   10  C   UNL     1      43.821 -13.162   7.042  1.00  0.00     0.071 A 
BRANCH   9  11
HETATM   11  C   UNL     1      43.202 -14.514   4.911  1.00  0.00    -0.005 A 
HETATM   12  C   UNL     1      42.975 -14.460   3.531  1.00  0.00     0.016 A 
HETATM   13  C   UNL     1      42.856 -15.639   2.785  1.00  0.00     0.037 A 
HETATM   14  C   UNL     1      42.967 -16.887   3.400  1.00  0.00     0.068 A 
HETATM   15  C   UNL     1      43.178 -16.951   4.776  1.00  0.00     0.037 A 
HETATM   16  C   UNL     1      43.292 -15.772   5.523  1.00  0.00     0.016 A 
BRANCH  14  17
HETATM   17  O   UNL     1      42.843 -17.954   2.554  1.00  0.00    -0.352 OA
BRANCH  17  18
HETATM   18  C   UNL     1      43.776 -19.021   2.720  1.00  0.00     0.171 C 
HETATM   19  C   UNL     1      43.236 -20.233   1.983  1.00  0.00     0.034 C 
ENDBRANCH  17  18
ENDBRANCH  14  17
ENDBRANCH   9  11
ENDBRANCH   2   5
BRANCH   1  20
HETATM   20  N   UNL     1      43.173  -9.693  10.257  1.00  0.00    -0.184 NA
HETATM   21  C   UNL     1      42.272  -9.800  11.179  1.00  0.00     0.150 C 
BRANCH  21  22
HETATM   22  C   UNL     1      42.363  -9.026  12.434  1.00  0.00    -0.017 A 
HETATM   23  C   UNL     1      43.260  -7.961  12.547  1.00  0.00     0.016 A 
HETATM   24  C   UNL     1      43.341  -7.236  13.741  1.00  0.00     0.037 A 
HETATM   25  C   UNL     1      42.526  -7.573  14.822  1.00  0.00     0.068 A 
HETATM   26  C   UNL     1      41.629  -8.641  14.699  1.00  0.00     0.037 A 
HETATM   27  C   UNL     1      41.544  -9.371  13.510  1.00  0.00     0.016 A 
BRANCH  25  28
HETATM   28  O   UNL     1      42.505  -6.947  16.038  1.00  0.00    -0.351 OA
BRANCH  28  29
HETATM   29  C   UNL     1      41.491  -5.963  16.242  1.00  0.00     0.175 C 
BRANCH  29  30
HETATM   30  C   UNL     1      40.965  -6.117  17.666  1.00  0.00     0.022 C 
HETATM   31  C   UNL     1      40.180  -7.405  17.841  1.00  0.00     0.007 C 
ENDBRANCH  29  30
ENDBRANCH  28  29
ENDBRANCH  25  28
ENDBRANCH  21  22
ENDBRANCH   1  20
TORSDOF 9
ENDMDL
MODEL 3
REMARK VINA RESULT:      -7.1      2.516     12.394
REMARK  9 active torsions:
REMARK  status: ('A' for Active; 'I' for Inactive)
REMARK    1  A    between atoms: C_2  and  C_3 
REMARK    2  A    between atoms: C_3  and  O_4 
REMARK    3  A    between atoms: O_4  and  C_5 
REMARK    4  A    between atoms: C_8  and  C_9 
REMARK    5  A    between atoms: N_10  and  N_11 
REMARK       I    between atoms: N_11  and  C_12 
REMARK    6  A    between atoms: C_12  and  C_13 
REMARK    7  A    between atoms: C_17  and  C_18 
REMARK    8  A    between atoms: C_21  and  O_22 
REMARK    9  A    between atoms: O_22  and  C_23 
ROOT
HETATM    1  N   UNL     1      43.194 -10.515   9.353  1.00  0.00    -0.242 N 
HETATM    2  C   UNL     1      44.333 -10.915   8.672  1.00  0.00     0.289 C 
HETATM    3  O   UNL     1      45.471 -10.851   9.129  1.00  0.00    -0.264 OA
HETATM    4  H   UNL     1      42.286 -10.553   8.909  1.00  0.00     0.192 HD
ENDROOT
BRANCH   2   5
HETATM    5  C   UNL     1      44.099 -11.412   7.339  1.00  0.00     0.121 A 
HETATM    6  N   UNL     1      44.714 -10.844   6.258  1.00  0.00    -0.272 N 
HETATM    7  H   UNL     1      45.366 -10.065   6.273  1.00  0.00     0.189 HD
HETATM    8  N   UNL     1      44.379 -11.392   5.082  1.00  0.00    -0.174 NA
HETATM    9  C   UNL     1      43.538 -12.389   5.400  1.00  0.00     0.089 A 
HETATM   10  C   UNL     1      43.332 -12.431   6.809  1.00  0.00     0.071 A 
BRANCH   9  11
HETATM   11  C   UNL     1      42.949 -13.254   4.373  1.00  0.00    -0.005 A 
HETATM   12  C   UNL     1      43.419 -13.240   3.055  1.00  0.00     0.016 A 
HETATM   13  C   UNL     1      42.855 -14.084   2.091  1.00  0.00     0.037 A 
HETATM   14  C   UNL     1      41.820 -14.959   2.426  1.00  0.00     0.068 A 
HETATM   15  C   UNL     1      41.335 -14.969   3.733  1.00  0.00     0.037 A 
HETATM   16  C   UNL     1      41.896 -14.121   4.696  1.00  0.00     0.016 A 
BRANCH  14  17
HETATM   17  O   UNL     1      41.370 -15.734   1.394  1.00  0.00    -0.352 OA
BRANCH  17  18
HETATM   18  C   UNL     1      40.000 -15.584   1.025  1.00  0.00     0.171 C 
HETATM   19  C   UNL     1      39.937 -14.647  -0.167  1.00  0.00     0.034 C 
ENDBRANCH  17  18
ENDBRANCH  14  17
ENDBRANCH   9  11
ENDBRANCH   2   5
BRANCH   1  20
HETATM   20  N   UNL     1      43.298 -10.030  10.624  1.00  0.00    -0.184 NA
HETATM   21  C   UNL     1      42.282  -9.361  11.063  1.00  0.00     0.150 C 
BRANCH  21  22
HETATM   22  C   UNL     1      42.272  -8.789  12.425  1.00  0.00    -0.017 A 
HETATM   23  C   UNL     1      43.180  -7.789  12.782  1.00  0.00     0.016 A 
HETATM   24  C   UNL     1      43.164  -7.256  14.075  1.00  0.00     0.037 A 
HETATM   25  C   UNL     1      42.241  -7.719  15.013  1.00  0.00     0.068 A 
HETATM   26  C   UNL     1      41.334  -8.720  14.646  1.00  0.00     0.037 A 
HETATM   27  C   UNL     1      41.345  -9.259  13.356  1.00  0.00     0.016 A 
BRANCH  25  28
HETATM   28  O   UNL     1      42.119  -7.282  16.303  1.00  0.00    -0.351 OA
BRANCH  28  29
HETATM   29  C   UNL     1      40.902  -6.622  16.651  1.00  0.00     0.175 C 
BRANCH  29  30
HETATM   30  C   UNL     1      41.248  -5.210  17.116  1.00  0.00     0.022 C 
HETATM   31  C   UNL     1      40.118  -4.591  17.921  1.00  0.00     0.007 C 
ENDBRANCH  29  30
ENDBRANCH  28  29
ENDBRANCH  25  28
ENDBRANCH  21  22
ENDBRANCH   1  20
TORSDOF 9
ENDMDL
MODEL 4
REMARK VINA RESULT:      -7.0      9.431     13.300
REMARK  9 active torsions:
REMARK  status: ('A' for Active; 'I' for Inactive)
REMARK    1  A    between atoms: C_2  and  C_3 
REMARK    2  A    between atoms: C_3  and  O_4 
REMARK    3  A    between atoms: O_4  and  C_5 
REMARK    4  A    between atoms: C_8  and  C_9 
REMARK    5  A    between atoms: N_10  and  N_11 
REMARK       I    between atoms: N_11  and  C_12 
REMARK    6  A    between atoms: C_12  and  C_13 
REMARK    7  A    between atoms: C_17  and  C_18 
REMARK    8  A    between atoms: C_21  and  O_22 
REMARK    9  A    between atoms: O_22  and  C_23 
ROOT
HETATM    1  N   UNL     1      41.148 -12.481  -1.123  1.00  0.00    -0.242 N 
HETATM    2  C   UNL     1      40.263 -12.823  -0.112  1.00  0.00     0.289 C 
HETATM    3  O   UNL     1      39.251 -12.185   0.166  1.00  0.00    -0.264 OA
HETATM    4  H   UNL     1      41.988 -13.023  -1.279  1.00  0.00     0.192 HD
ENDROOT
BRANCH   2   5
HETATM    5  C   UNL     1      40.619 -14.005   0.632  1.00  0.00     0.121 A 
HETATM    6  N   UNL     1      39.700 -14.987   0.874  1.00  0.00    -0.272 N 
HETATM    7  H   UNL     1      38.730 -14.996   0.571  1.00  0.00     0.189 HD
HETATM    8  N   UNL     1      40.166 -16.011   1.602  1.00  0.00    -0.174 NA
HETATM    9  C   UNL     1      41.457 -15.715   1.817  1.00  0.00     0.089 A 
HETATM   10  C   UNL     1      41.779 -14.458   1.228  1.00  0.00     0.071 A 
BRANCH   9  11
HETATM   11  C   UNL     1      42.334 -16.609   2.578  1.00  0.00    -0.005 A 
HETATM   12  C   UNL     1      42.680 -17.874   2.089  1.00  0.00     0.016 A 
HETATM   13  C   UNL     1      43.533 -18.709   2.821  1.00  0.00     0.037 A 
HETATM   14  C   UNL     1      44.058 -18.295   4.047  1.00  0.00     0.068 A 
HETATM   15  C   UNL     1      43.706 -17.043   4.549  1.00  0.00     0.037 A 
HETATM   16  C   UNL     1      42.850 -16.210   3.819  1.00  0.00     0.016 A 
BRANCH  14  17
HETATM   17  O   UNL     1      44.884 -19.201   4.651  1.00  0.00    -0.352 OA
BRANCH  17  18
HETATM   18  C   UNL     1      44.303 -20.443   5.043  1.00  0.00     0.171 C 
HETATM   19  C   UNL     1      43.399 -20.181   6.234  1.00  0.00     0.034 C 
ENDBRANCH  17  18
ENDBRANCH  14  17
ENDBRANCH   9  11
ENDBRANCH   2   5
BRANCH   1  20
HETATM   20  N   UNL     1      40.908 -11.382  -1.894  1.00  0.00    -0.184 NA
HETATM   21  C   UNL     1      41.594 -10.323  -1.606  1.00  0.00     0.150 C 
BRANCH  21  22
HETATM   22  C   UNL     1      41.427  -9.071  -2.371  1.00  0.00    -0.017 A 
HETATM   23  C   UNL     1      42.313  -8.006  -2.191  1.00  0.00     0.016 A 
HETATM   24  C   UNL     1      42.145  -6.823  -2.918  1.00  0.00     0.037 A 
HETATM   25  C   UNL     1      41.093  -6.702  -3.827  1.00  0.00     0.068 A 
HETATM   26  C   UNL     1      40.211  -7.774  -4.001  1.00  0.00     0.037 A 
HETATM   27  C   UNL     1      40.371  -8.959  -3.276  1.00  0.00     0.016 A 
BRANCH  25  28
HETATM   28  O   UNL     1      40.820  -5.606  -4.598  1.00  0.00    -0.351 OA
BRANCH  28  29
HETATM   29  C   UNL     1      41.878  -5.114  -5.420  1.00  0.00     0.175 C 
BRANCH  29  30
HETATM   30  C   UNL     1      42.173  -6.165  -6.487  1.00  0.00     0.022 C 
HETATM   31  C   UNL     1      43.627  -6.127  -6.927  1.00  0.00     0.007 C 
ENDBRANCH  29  30
ENDBRANCH  28  29
ENDBRANCH  25  28
ENDBRANCH  21  22
ENDBRANCH   1  20
TORSDOF 9
ENDMDL
MODEL 5
REMARK VINA RESULT:      -7.0      1.892     12.314
REMARK  9 active torsions:
REMARK  status: ('A' for Active; 'I' for Inactive)
REMARK    1  A    between atoms: C_2  and  C_3 
REMARK    2  A    between atoms: C_3  and  O_4 
REMARK    3  A    between atoms: O_4  and  C_5 
REMARK    4  A    between atoms: C_8  and  C_9 
REMARK    5  A    between atoms: N_10  and  N_11 
REMARK       I    between atoms: N_11  and  C_12 
REMARK    6  A    between atoms: C_12  and  C_13 
REMARK    7  A    between atoms: C_17  and  C_18 
REMARK    8  A    between atoms: C_21  and  O_22 
REMARK    9  A    between atoms: O_22  and  C_23 
ROOT
HETATM    1  N   UNL     1      42.895 -10.656   7.696  1.00  0.00    -0.242 N 
HETATM    2  C   UNL     1      42.025 -10.878   6.639  1.00  0.00     0.289 C 
HETATM    3  O   UNL     1      41.022 -10.205   6.416  1.00  0.00    -0.264 OA
HETATM    4  H   UNL     1      43.683 -11.270   7.853  1.00  0.00     0.192 HD
ENDROOT
BRANCH   2   5
HETATM    5  C   UNL     1      42.369 -11.995   5.795  1.00  0.00     0.121 A 
HETATM    6  N   UNL     1      42.565 -11.827   4.453  1.00  0.00    -0.272 N 
HETATM    7  H   UNL     1      42.502 -10.954   3.936  1.00  0.00     0.189 HD
HETATM    8  N   UNL     1      42.851 -12.957   3.792  1.00  0.00    -0.174 NA
HETATM    9  C   UNL     1      42.884 -13.906   4.740  1.00  0.00     0.089 A 
HETATM   10  C   UNL     1      42.580 -13.342   6.013  1.00  0.00     0.071 A 
BRANCH   9  11
HETATM   11  C   UNL     1      43.182 -15.305   4.419  1.00  0.00    -0.005 A 
HETATM   12  C   UNL     1      43.732 -16.168   5.373  1.00  0.00     0.016 A 
HETATM   13  C   UNL     1      43.995 -17.504   5.053  1.00  0.00     0.037 A 
HETATM   14  C   UNL     1      43.709 -18.004   3.781  1.00  0.00     0.068 A 
HETATM   15  C   UNL     1      43.176 -17.148   2.819  1.00  0.00     0.037 A 
HETATM   16  C   UNL     1      42.917 -15.809   3.137  1.00  0.00     0.016 A 
BRANCH  14  17
HETATM   17  O   UNL     1      44.004 -19.328   3.607  1.00  0.00    -0.352 OA
BRANCH  17  18
HETATM   18  C   UNL     1      44.563 -20.016   4.724  1.00  0.00     0.171 C 
HETATM   19  C   UNL     1      43.636 -21.166   5.075  1.00  0.00     0.034 C 
ENDBRANCH  17  18
ENDBRANCH  14  17
ENDBRANCH   9  11
ENDBRANCH   2   5
BRANCH   1  20
HETATM   20  N   UNL     1      42.669  -9.624   8.557  1.00  0.00    -0.184 NA
HETATM   21  C   UNL     1      43.075  -9.796   9.773  1.00  0.00     0.150 C 
BRANCH  21  22
HETATM   22  C   UNL     1      42.891  -8.749  10.799  1.00  0.00    -0.017 A 
HETATM   23  C   UNL     1      42.452  -7.473  10.439  1.00  0.00     0.016 A 
HETATM   24  C   UNL     1      42.284  -6.487  11.418  1.00  0.00     0.037 A 
HETATM   25  C   UNL     1      42.554  -6.775  12.756  1.00  0.00     0.068 A 
HETATM   26  C   UNL     1      42.993  -8.056  13.107  1.00  0.00     0.037 A 
HETATM   27  C   UNL     1      43.165  -9.046  12.134  1.00  0.00     0.016 A 
BRANCH  25  28
HETATM   28  O   UNL     1      42.429  -5.906  13.805  1.00  0.00    -0.351 OA
BRANCH  28  29
HETATM   29  C   UNL     1      42.059  -6.463  15.066  1.00  0.00     0.175 C 
BRANCH  29  30
HETATM   30  C   UNL     1      40.948  -5.599  15.656  1.00  0.00     0.022 C 
HETATM   31  C   UNL     1      40.283  -6.271  16.844  1.00  0.00     0.007 C 
ENDBRANCH  29  30
ENDBRANCH  28  29
ENDBRANCH  25  28
ENDBRANCH  21  22
ENDBRANCH   1  20
TORSDOF 9
ENDMDL
MODEL 6
REMARK VINA RESULT:      -6.9      1.626      2.208
REMARK  9 active torsions:
REMARK  status: ('A' for Active; 'I' for Inactive)
REMARK    1  A    between atoms: C_2  and  C_3 
REMARK    2  A    between atoms: C_3  and  O_4 
REMARK    3  A    between atoms: O_4  and  C_5 
REMARK    4  A    between atoms: C_8  and  C_9 
REMARK    5  A    between atoms: N_10  and  N_11 
REMARK       I    between atoms: N_11  and  C_12 
REMARK    6  A    between atoms: C_12  and  C_13 
REMARK    7  A    between atoms: C_17  and  C_18 
REMARK    8  A    between atoms: C_21  and  O_22 
REMARK    9  A    between atoms: O_22  and  C_23 
ROOT
HETATM    1  N   UNL     1      43.049 -11.105   7.491  1.00  0.00    -0.242 N 
HETATM    2  C   UNL     1      43.982 -10.618   8.395  1.00  0.00     0.289 C 
HETATM    3  O   UNL     1      45.096 -11.105   8.568  1.00  0.00    -0.264 OA
HETATM    4  H   UNL     1      42.131 -10.687   7.421  1.00  0.00     0.192 HD
ENDROOT
BRANCH   2   5
HETATM    5  C   UNL     1      43.546  -9.477   9.159  1.00  0.00     0.121 A 
HETATM    6  N   UNL     1      43.886  -8.208   8.783  1.00  0.00    -0.272 N 
HETATM    7  H   UNL     1      44.441  -7.944   7.973  1.00  0.00     0.189 HD
HETATM    8  N   UNL     1      43.435  -7.249   9.604  1.00  0.00    -0.174 NA
HETATM    9  C   UNL     1      42.734  -7.907  10.540  1.00  0.00     0.089 A 
HETATM   10  C   UNL     1      42.785  -9.310  10.299  1.00  0.00     0.071 A 
BRANCH   9  11
HETATM   11  C   UNL     1      42.058  -7.200  11.632  1.00  0.00    -0.005 A 
HETATM   12  C   UNL     1      41.140  -7.855  12.462  1.00  0.00     0.016 A 
HETATM   13  C   UNL     1      40.516  -7.168  13.510  1.00  0.00     0.037 A 
HETATM   14  C   UNL     1      40.801  -5.823  13.752  1.00  0.00     0.068 A 
HETATM   15  C   UNL     1      41.703  -5.159  12.923  1.00  0.00     0.037 A 
HETATM   16  C   UNL     1      42.324  -5.844  11.871  1.00  0.00     0.016 A 
BRANCH  14  17
HETATM   17  O   UNL     1      40.132  -5.279  14.813  1.00  0.00    -0.352 OA
BRANCH  17  18
HETATM   18  C   UNL     1      39.183  -6.114  15.474  1.00  0.00     0.171 C 
HETATM   19  C   UNL     1      39.506  -6.105  16.957  1.00  0.00     0.034 C 
ENDBRANCH  17  18
ENDBRANCH  14  17
ENDBRANCH   9  11
ENDBRANCH   2   5
BRANCH   1  20
HETATM   20  N   UNL     1      43.356 -12.181   6.712  1.00  0.00    -0.184 NA
HETATM   21  C   UNL     1      42.544 -12.428   5.735  1.00  0.00     0.150 C 
BRANCH  21  22
HETATM   22  C   UNL     1      42.771 -13.563   4.818  1.00  0.00    -0.017 A 
HETATM   23  C   UNL     1      42.809 -14.872   5.305  1.00  0.00     0.016 A 
HETATM   24  C   UNL     1      43.027 -15.940   4.428  1.00  0.00     0.037 A 
HETATM   25  C   UNL     1      43.207 -15.703   3.065  1.00  0.00     0.068 A 
HETATM   26  C   UNL     1      43.167 -14.389   2.586  1.00  0.00     0.037 A 
HETATM   27  C   UNL     1      42.951 -13.316   3.457  1.00  0.00     0.016 A 
BRANCH  25  28
HETATM   28  O   UNL     1      43.425 -16.654   2.107  1.00  0.00    -0.351 OA
BRANCH  28  29
HETATM   29  C   UNL     1      42.766 -17.909   2.279  1.00  0.00     0.175 C 
BRANCH  29  30
HETATM   30  C   UNL     1      43.831 -18.966   2.558  1.00  0.00     0.022 C 
HETATM   31  C   UNL     1      43.413 -20.334   2.048  1.00  0.00     0.007 C 
ENDBRANCH  29  30
ENDBRANCH  28  29
ENDBRANCH  25  28
ENDBRANCH  21  22
ENDBRANCH   1  20
TORSDOF 9
ENDMDL
MODEL 7
REMARK VINA RESULT:      -6.9      9.248     13.269
REMARK  9 active torsions:
REMARK  status: ('A' for Active; 'I' for Inactive)
REMARK    1  A    between atoms: C_2  and  C_3 
REMARK    2  A    between atoms: C_3  and  O_4 
REMARK    3  A    between atoms: O_4  and  C_5 
REMARK    4  A    between atoms: C_8  and  C_9 
REMARK    5  A    between atoms: N_10  and  N_11 
REMARK       I    between atoms: N_11  and  C_12 
REMARK    6  A    between atoms: C_12  and  C_13 
REMARK    7  A    between atoms: C_17  and  C_18 
REMARK    8  A    between atoms: C_21  and  O_22 
REMARK    9  A    between atoms: O_22  and  C_23 
ROOT
HETATM    1  N   UNL     1      39.508 -14.051  -0.404  1.00  0.00    -0.242 N 
HETATM    2  C   UNL     1      39.902 -12.896  -1.064  1.00  0.00     0.289 C 
HETATM    3  O   UNL     1      41.049 -12.457  -1.065  1.00  0.00    -0.264 OA
HETATM    4  H   UNL     1      38.539 -14.341  -0.406  1.00  0.00     0.192 HD
ENDROOT
BRANCH   2   5
HETATM    5  C   UNL     1      38.845 -12.206  -1.761  1.00  0.00     0.121 A 
HETATM    6  N   UNL     1      39.128 -11.286  -2.731  1.00  0.00    -0.272 N 
HETATM    7  H   UNL     1      40.051 -11.008  -3.053  1.00  0.00     0.189 HD
HETATM    8  N   UNL     1      38.047 -10.706  -3.272  1.00  0.00    -0.174 NA
HETATM    9  C   UNL     1      37.006 -11.294  -2.664  1.00  0.00     0.089 A 
HETATM   10  C   UNL     1      37.466 -12.239  -1.702  1.00  0.00     0.071 A 
BRANCH   9  11
HETATM   11  C   UNL     1      35.622 -10.938  -2.993  1.00  0.00    -0.005 A 
HETATM   12  C   UNL     1      35.012  -9.808  -2.438  1.00  0.00     0.016 A 
HETATM   13  C   UNL     1      33.695  -9.474  -2.775  1.00  0.00     0.037 A 
HETATM   14  C   UNL     1      32.969 -10.257  -3.675  1.00  0.00     0.068 A 
HETATM   15  C   UNL     1      33.563 -11.393  -4.221  1.00  0.00     0.037 A 
HETATM   16  C   UNL     1      34.879 -11.730  -3.880  1.00  0.00     0.016 A 
BRANCH  14  17
HETATM   17  O   UNL     1      31.701  -9.812  -3.926  1.00  0.00    -0.352 OA
BRANCH  17  18
HETATM   18  C   UNL     1      30.932  -9.389  -2.801  1.00  0.00     0.171 C 
HETATM   19  C   UNL     1      30.158 -10.589  -2.286  1.00  0.00     0.034 C 
ENDBRANCH  17  18
ENDBRANCH  14  17
ENDBRANCH   9  11
ENDBRANCH   2   5
BRANCH   1  20
HETATM   20  N   UNL     1      40.426 -14.785   0.286  1.00  0.00    -0.184 NA
HETATM   21  C   UNL     1      40.234 -14.885   1.562  1.00  0.00     0.150 C 
BRANCH  21  22
HETATM   22  C   UNL     1      41.157 -15.657   2.418  1.00  0.00    -0.017 A 
HETATM   23  C   UNL     1      42.291 -16.264   1.873  1.00  0.00     0.016 A 
HETATM   24  C   UNL     1      43.157 -16.996   2.692  1.00  0.00     0.037 A 
HETATM   25  C   UNL     1      42.893 -17.122   4.056  1.00  0.00     0.068 A 
HETATM   26  C   UNL     1      41.755 -16.510   4.594  1.00  0.00     0.037 A 
HETATM   27  C   UNL     1      40.884 -15.779   3.780  1.00  0.00     0.016 A 
BRANCH  25  28
HETATM   28  O   UNL     1      43.657 -17.805   4.962  1.00  0.00    -0.351 OA
BRANCH  28  29
HETATM   29  C   UNL     1      44.619 -18.720   4.437  1.00  0.00     0.175 C 
BRANCH  29  30
HETATM   30  C   UNL     1      44.200 -20.130   4.844  1.00  0.00     0.022 C 
HETATM   31  C   UNL     1      43.825 -20.975   3.639  1.00  0.00     0.007 C 
ENDBRANCH  29  30
ENDBRANCH  28  29
ENDBRANCH  25  28
ENDBRANCH  21  22
ENDBRANCH   1  20
TORSDOF 9
ENDMDL
MODEL 8
REMARK VINA RESULT:      -6.9     20.349     23.460
REMARK  9 active torsions:
REMARK  status: ('A' for Active; 'I' for Inactive)
REMARK    1  A    between atoms: C_2  and  C_3 
REMARK    2  A    between atoms: C_3  and  O_4 
REMARK    3  A    between atoms: O_4  and  C_5 
REMARK    4  A    between atoms: C_8  and  C_9 
REMARK    5  A    between atoms: N_10  and  N_11 
REMARK       I    between atoms: N_11  and  C_12 
REMARK    6  A    between atoms: C_12  and  C_13 
REMARK    7  A    between atoms: C_17  and  C_18 
REMARK    8  A    between atoms: C_21  and  O_22 
REMARK    9  A    between atoms: O_22  and  C_23 
ROOT
HETATM    1  N   UNL     1      38.476 -32.626   5.000  1.00  0.00    -0.242 N 
HETATM    2  C   UNL     1      39.742 -32.063   5.059  1.00  0.00     0.289 C 
HETATM    3  O   UNL     1      40.347 -31.831   6.102  1.00  0.00    -0.264 OA
HETATM    4  H   UNL     1      38.010 -32.757   4.112  1.00  0.00     0.192 HD
ENDROOT
BRANCH   2   5
HETATM    5  C   UNL     1      40.321 -31.741   3.780  1.00  0.00     0.121 A 
HETATM    6  N   UNL     1      39.608 -31.900   2.625  1.00  0.00    -0.272 N 
HETATM    7  H   UNL     1      38.652 -32.235   2.544  1.00  0.00     0.189 HD
HETATM    8  N   UNL     1      40.285 -31.587   1.511  1.00  0.00    -0.174 NA
HETATM    9  C   UNL     1      41.482 -31.167   1.948  1.00  0.00     0.089 A 
HETATM   10  C   UNL     1      41.546 -31.254   3.369  1.00  0.00     0.071 A 
BRANCH   9  11
HETATM   11  C   UNL     1      42.523 -30.715   1.021  1.00  0.00    -0.005 A 
HETATM   12  C   UNL     1      42.844 -29.358   0.894  1.00  0.00     0.016 A 
HETATM   13  C   UNL     1      43.852 -28.947   0.016  1.00  0.00     0.037 A 
HETATM   14  C   UNL     1      44.562 -29.878  -0.745  1.00  0.00     0.068 A 
HETATM   15  C   UNL     1      44.239 -31.230  -0.637  1.00  0.00     0.037 A 
HETATM   16  C   UNL     1      43.226 -31.642   0.238  1.00  0.00     0.016 A 
BRANCH  14  17
HETATM   17  O   UNL     1      45.526 -29.343  -1.552  1.00  0.00    -0.352 OA
BRANCH  17  18
HETATM   18  C   UNL     1      45.158 -28.203  -2.327  1.00  0.00     0.171 C 
HETATM   19  C   UNL     1      44.917 -28.666  -3.753  1.00  0.00     0.034 C 
ENDBRANCH  17  18
ENDBRANCH  14  17
ENDBRANCH   9  11
ENDBRANCH   2   5
BRANCH   1  20
HETATM   20  N   UNL     1      37.833 -32.974   6.152  1.00  0.00    -0.184 NA
HETATM   21  C   UNL     1      37.476 -34.213   6.254  1.00  0.00     0.150 C 
BRANCH  21  22
HETATM   22  C   UNL     1      36.777 -34.713   7.455  1.00  0.00    -0.017 A 
HETATM   23  C   UNL     1      37.493 -35.040   8.609  1.00  0.00     0.016 A 
HETATM   24  C   UNL     1      36.821 -35.516   9.740  1.00  0.00     0.037 A 
HETATM   25  C   UNL     1      35.434 -35.665   9.721  1.00  0.00     0.068 A 
HETATM   26  C   UNL     1      34.725 -35.335   8.560  1.00  0.00     0.037 A 
HETATM   27  C   UNL     1      35.390 -34.860   7.425  1.00  0.00     0.016 A 
BRANCH  25  28
HETATM   28  O   UNL     1      34.661 -36.115  10.755  1.00  0.00    -0.351 OA
BRANCH  28  29
HETATM   29  C   UNL     1      34.447 -35.215  11.842  1.00  0.00     0.175 C 
BRANCH  29  30
HETATM   30  C   UNL     1      33.007 -34.716  11.764  1.00  0.00     0.022 C 
HETATM   31  C   UNL     1      32.940 -33.254  11.356  1.00  0.00     0.007 C 
ENDBRANCH  29  30
ENDBRANCH  28  29
ENDBRANCH  25  28
ENDBRANCH  21  22
ENDBRANCH   1  20
TORSDOF 9
ENDMDL
MODEL 9
REMARK VINA RESULT:      -6.9      9.516     13.896
REMARK  9 active torsions:
REMARK  status: ('A' for Active; 'I' for Inactive)
REMARK    1  A    between atoms: C_2  and  C_3 
REMARK    2  A    between atoms: C_3  and  O_4 
REMARK    3  A    between atoms: O_4  and  C_5 
REMARK    4  A    between atoms: C_8  and  C_9 
REMARK    5  A    between atoms: N_10  and  N_11 
REMARK       I    between atoms: N_11  and  C_12 
REMARK    6  A    between atoms: C_12  and  C_13 
REMARK    7  A    between atoms: C_17  and  C_18 
REMARK    8  A    between atoms: C_21  and  O_22 
REMARK    9  A    between atoms: O_22  and  C_23 
ROOT
HETATM    1  N   UNL     1      39.437 -14.376  -0.074  1.00  0.00    -0.242 N 
HETATM    2  C   UNL     1      39.539 -13.161  -0.735  1.00  0.00     0.289 C 
HETATM    3  O   UNL     1      40.498 -12.399  -0.638  1.00  0.00    -0.264 OA
HETATM    4  H   UNL     1      38.604 -14.942  -0.161  1.00  0.00     0.192 HD
ENDROOT
BRANCH   2   5
HETATM    5  C   UNL     1      38.408 -12.824  -1.562  1.00  0.00     0.121 A 
HETATM    6  N   UNL     1      37.658 -13.799  -2.158  1.00  0.00    -0.272 N 
HETATM    7  H   UNL     1      37.800 -14.802  -2.085  1.00  0.00     0.189 HD
HETATM    8  N   UNL     1      36.656 -13.336  -2.919  1.00  0.00    -0.174 NA
HETATM    9  C   UNL     1      36.720 -12.002  -2.789  1.00  0.00     0.089 A 
HETATM   10  C   UNL     1      37.812 -11.640  -1.949  1.00  0.00     0.071 A 
BRANCH   9  11
HETATM   11  C   UNL     1      35.769 -11.117  -3.469  1.00  0.00    -0.005 A 
HETATM   12  C   UNL     1      34.495 -11.565  -3.835  1.00  0.00     0.016 A 
HETATM   13  C   UNL     1      33.594 -10.702  -4.469  1.00  0.00     0.037 A 
HETATM   14  C   UNL     1      33.945  -9.378  -4.741  1.00  0.00     0.068 A 
HETATM   15  C   UNL     1      35.217  -8.927  -4.394  1.00  0.00     0.037 A 
HETATM   16  C   UNL     1      36.121  -9.792  -3.765  1.00  0.00     0.016 A 
BRANCH  14  17
HETATM   17  O   UNL     1      32.968  -8.641  -5.352  1.00  0.00    -0.352 OA
BRANCH  17  18
HETATM   18  C   UNL     1      33.300  -8.042  -6.603  1.00  0.00     0.171 C 
HETATM   19  C   UNL     1      32.936  -9.024  -7.702  1.00  0.00     0.034 C 
ENDBRANCH  17  18
ENDBRANCH  14  17
ENDBRANCH   9  11
ENDBRANCH   2   5
BRANCH   1  20
HETATM   20  N   UNL     1      40.452 -14.797   0.733  1.00  0.00    -0.184 NA
HETATM   21  C   UNL     1      40.127 -15.623   1.674  1.00  0.00     0.150 C 
BRANCH  21  22
HETATM   22  C   UNL     1      41.138 -16.155   2.611  1.00  0.00    -0.017 A 
HETATM   23  C   UNL     1      40.906 -16.140   3.988  1.00  0.00     0.016 A 
HETATM   24  C   UNL     1      41.871 -16.644   4.867  1.00  0.00     0.037 A 
HETATM   25  C   UNL     1      43.068 -17.163   4.372  1.00  0.00     0.068 A 
HETATM   26  C   UNL     1      43.291 -17.174   2.990  1.00  0.00     0.037 A 
HETATM   27  C   UNL     1      42.332 -16.671   2.106  1.00  0.00     0.016 A 
BRANCH  25  28
HETATM   28  O   UNL     1      44.087 -17.685   5.120  1.00  0.00    -0.351 OA
BRANCH  28  29
HETATM   29  C   UNL     1      44.785 -18.803   4.571  1.00  0.00     0.175 C 
BRANCH  29  30
HETATM   30  C   UNL     1      44.071 -20.073   5.024  1.00  0.00     0.022 C 
HETATM   31  C   UNL     1      43.850 -21.037   3.871  1.00  0.00     0.007 C 
ENDBRANCH  29  30
ENDBRANCH  28  29
ENDBRANCH  25  28
ENDBRANCH  21  22
ENDBRANCH   1  20
TORSDOF 9
ENDMDL
MODEL 10
REMARK VINA RESULT:      -6.6     19.968     23.046
REMARK  9 active torsions:
REMARK  status: ('A' for Active; 'I' for Inactive)
REMARK    1  A    between atoms: C_2  and  C_3 
REMARK    2  A    between atoms: C_3  and  O_4 
REMARK    3  A    between atoms: O_4  and  C_5 
REMARK    4  A    between atoms: C_8  and  C_9 
REMARK    5  A    between atoms: N_10  and  N_11 
REMARK       I    between atoms: N_11  and  C_12 
REMARK    6  A    between atoms: C_12  and  C_13 
REMARK    7  A    between atoms: C_17  and  C_18 
REMARK    8  A    between atoms: C_21  and  O_22 
REMARK    9  A    between atoms: O_22  and  C_23 
ROOT
HETATM    1  N   UNL     1      49.661 -29.815   2.258  1.00  0.00    -0.242 N 
HETATM    2  C   UNL     1      48.377 -29.292   2.225  1.00  0.00     0.289 C 
HETATM    3  O   UNL     1      47.706 -29.042   3.222  1.00  0.00    -0.264 OA
HETATM    4  H   UNL     1      50.149 -30.039   1.401  1.00  0.00     0.192 HD
ENDROOT
BRANCH   2   5
HETATM    5  C   UNL     1      47.849 -29.065   0.902  1.00  0.00     0.121 A 
HETATM    6  N   UNL     1      48.161 -27.931   0.206  1.00  0.00    -0.272 N 
HETATM    7  H   UNL     1      48.765 -27.175   0.519  1.00  0.00     0.189 HD
HETATM    8  N   UNL     1      47.576 -27.843  -0.996  1.00  0.00    -0.174 NA
HETATM    9  C   UNL     1      46.879 -28.984  -1.118  1.00  0.00     0.089 A 
HETATM   10  C   UNL     1      47.020 -29.776   0.057  1.00  0.00     0.071 A 
BRANCH   9  11
HETATM   11  C   UNL     1      46.096 -29.281  -2.321  1.00  0.00    -0.005 A 
HETATM   12  C   UNL     1      46.387 -30.393  -3.120  1.00  0.00     0.016 A 
HETATM   13  C   UNL     1      45.618 -30.670  -4.256  1.00  0.00     0.037 A 
HETATM   14  C   UNL     1      44.546 -29.850  -4.611  1.00  0.00     0.068 A 
HETATM   15  C   UNL     1      44.259 -28.731  -3.831  1.00  0.00     0.037 A 
HETATM   16  C   UNL     1      45.030 -28.450  -2.697  1.00  0.00     0.016 A 
BRANCH  14  17
HETATM   17  O   UNL     1      43.874 -30.241  -5.735  1.00  0.00    -0.352 OA
BRANCH  17  18
HETATM   18  C   UNL     1      44.326 -31.433  -6.375  1.00  0.00     0.171 C 
HETATM   19  C   UNL     1      44.134 -31.262  -7.871  1.00  0.00     0.034 C 
ENDBRANCH  17  18
ENDBRANCH  14  17
ENDBRANCH   9  11
ENDBRANCH   2   5
BRANCH   1  20
HETATM   20  N   UNL     1      50.260 -30.067   3.456  1.00  0.00    -0.184 NA
HETATM   21  C   UNL     1      50.218 -31.293   3.869  1.00  0.00     0.150 C 
BRANCH  21  22
HETATM   22  C   UNL     1      50.835 -31.693   5.149  1.00  0.00    -0.017 A 
HETATM   23  C   UNL     1      50.220 -32.642   5.969  1.00  0.00     0.016 A 
HETATM   24  C   UNL     1      50.811 -33.012   7.181  1.00  0.00     0.037 A 
HETATM   25  C   UNL     1      52.019 -32.435   7.577  1.00  0.00     0.068 A 
HETATM   26  C   UNL     1      52.629 -31.485   6.749  1.00  0.00     0.037 A 
HETATM   27  C   UNL     1      52.042 -31.109   5.537  1.00  0.00     0.016 A 
BRANCH  25  28
HETATM   28  O   UNL     1      52.699 -32.709   8.731  1.00  0.00    -0.351 OA
BRANCH  28  29
HETATM   29  C   UNL     1      52.062 -33.580   9.666  1.00  0.00     0.175 C 
BRANCH  29  30
HETATM   30  C   UNL     1      51.814 -32.793  10.949  1.00  0.00     0.022 C 
HETATM   31  C   UNL     1      50.343 -32.464  11.132  1.00  0.00     0.007 C 
ENDBRANCH  29  30
ENDBRANCH  28  29
ENDBRANCH  25  28
ENDBRANCH  21  22
ENDBRANCH   1  20
TORSDOF 9
ENDMDL
