MODEL 1
REMARK VINA RESULT:      -7.8      0.000      0.000
REMARK  3 active torsions:
REMARK  status: ('A' for Active; 'I' for Inactive)
REMARK       I    between atoms: C_2  and  N_3 
REMARK    1  A    between atoms: C_2  and  C_16 
REMARK    2  A    between atoms: N_3  and  C_4 
REMARK    3  A    between atoms: C_7  and  C_10 
ROOT
HETATM    1  O   UNL     1      43.986 -12.204   8.046  1.00  0.00    -0.270 OA
HETATM    2  C   UNL     1      44.713 -11.299   7.663  1.00  0.00     0.255 C 
HETATM    3  N   UNL     1      44.521 -10.791   6.351  1.00  0.00    -0.305 N 
HETATM    4  H   UNL     1      45.053 -10.009   5.992  1.00  0.00     0.171 HD
ENDROOT
BRANCH   3   5
HETATM    5  C   UNL     1      43.721 -11.375   5.481  1.00  0.00     0.151 A 
HETATM    6  N   UNL     1      43.793 -12.643   5.075  1.00  0.00    -0.335 N 
HETATM    7  H   UNL     1      44.511 -13.249   5.478  1.00  0.00     0.168 HD
HETATM    8  C   UNL     1      42.882 -12.980   4.090  1.00  0.00     0.051 A 
HETATM    9  C   UNL     1      42.044 -11.925   3.790  1.00  0.00     0.083 A 
HETATM   10  S   UNL     1      42.444 -10.517   4.700  1.00  0.00    -0.063 SA
BRANCH   8  11
HETATM   11  C   UNL     1      42.843 -14.292   3.454  1.00  0.00    -0.006 A 
HETATM   12  C   UNL     1      42.348 -15.401   4.149  1.00  0.00     0.033 A 
HETATM   13  C   UNL     1      42.360 -16.638   3.525  1.00  0.00     0.117 A 
HETATM   14  N   UNL     1      42.823 -16.837   2.277  1.00  0.00    -0.273 NA
HETATM   15  C   UNL     1      43.293 -15.762   1.615  1.00  0.00     0.117 A 
HETATM   16  C   UNL     1      43.326 -14.487   2.153  1.00  0.00     0.033 A 
ENDBRANCH   8  11
ENDBRANCH   3   5
BRANCH   2  17
HETATM   17  C   UNL     1      45.806 -10.605   8.469  1.00  0.00     0.245 C 
HETATM   18  C   UNL     1      46.086  -9.216   7.920  1.00  0.00     0.218 C 
HETATM   19  O   UNL     1      44.915  -8.397   8.002  1.00  0.00    -0.345 OA
HETATM   20  C   UNL     1      44.323  -8.481   9.234  1.00  0.00     0.102 A 
HETATM   21  C   UNL     1      43.395  -7.494   9.551  1.00  0.00     0.039 A 
HETATM   22  C   UNL     1      44.590  -9.514  10.138  1.00  0.00     0.103 A 
HETATM   23  C   UNL     1      42.752  -7.521  10.789  1.00  0.00     0.003 A 
HETATM   24  C   UNL     1      43.041  -8.534  11.705  1.00  0.00     0.003 A 
HETATM   25  C   UNL     1      43.962  -9.532  11.382  1.00  0.00     0.040 A 
HETATM   26  O   UNL     1      45.432 -10.561   9.855  1.00  0.00    -0.331 OA
ENDBRANCH   2  17
TORSDOF 3
ENDMDL
MODEL 2
REMARK VINA RESULT:      -7.8      6.232      9.032
REMARK  3 active torsions:
REMARK  status: ('A' for Active; 'I' for Inactive)
REMARK       I    between atoms: C_2  and  N_3 
REMARK    1  A    between atoms: C_2  and  C_16 
REMARK    2  A    between atoms: N_3  and  C_4 
REMARK    3  A    between atoms: C_7  and  C_10 
ROOT
HETATM    1  O   UNL     1      39.532 -13.508   2.132  1.00  0.00    -0.270 OA
HETATM    2  C   UNL     1      40.294 -12.672   1.671  1.00  0.00     0.255 C 
HETATM    3  N   UNL     1      41.687 -12.833   1.898  1.00  0.00    -0.305 N 
HETATM    4  H   UNL     1      42.374 -12.207   1.500  1.00  0.00     0.171 HD
ENDROOT
BRANCH   3   5
HETATM    5  C   UNL     1      42.164 -13.739   2.730  1.00  0.00     0.151 A 
HETATM    6  N   UNL     1      42.486 -14.995   2.422  1.00  0.00    -0.335 N 
HETATM    7  H   UNL     1      42.388 -15.306   1.454  1.00  0.00     0.168 HD
HETATM    8  C   UNL     1      42.885 -15.762   3.502  1.00  0.00     0.051 A 
HETATM    9  C   UNL     1      42.923 -15.022   4.667  1.00  0.00     0.083 A 
HETATM   10  S   UNL     1      42.406 -13.398   4.404  1.00  0.00    -0.063 SA
BRANCH   8  11
HETATM   11  C   UNL     1      43.207 -17.181   3.398  1.00  0.00    -0.006 A 
HETATM   12  C   UNL     1      43.951 -17.813   4.400  1.00  0.00     0.033 A 
HETATM   13  C   UNL     1      44.268 -19.153   4.249  1.00  0.00     0.117 A 
HETATM   14  N   UNL     1      43.897 -19.891   3.186  1.00  0.00    -0.273 NA
HETATM   15  C   UNL     1      43.177 -19.274   2.230  1.00  0.00     0.117 A 
HETATM   16  C   UNL     1      42.813 -17.939   2.287  1.00  0.00     0.033 A 
ENDBRANCH   8  11
ENDBRANCH   3   5
BRANCH   2  17
HETATM   17  C   UNL     1      39.916 -11.464   0.821  1.00  0.00     0.245 C 
HETATM   18  C   UNL     1      41.032 -11.112  -0.149  1.00  0.00     0.218 C 
HETATM   19  O   UNL     1      41.281 -12.199  -1.046  1.00  0.00    -0.345 OA
HETATM   20  C   UNL     1      40.120 -12.697  -1.574  1.00  0.00     0.102 A 
HETATM   21  C   UNL     1      40.242 -13.509  -2.697  1.00  0.00     0.039 A 
HETATM   22  C   UNL     1      38.862 -12.447  -1.018  1.00  0.00     0.103 A 
HETATM   23  C   UNL     1      39.098 -14.053  -3.285  1.00  0.00     0.003 A 
HETATM   24  C   UNL     1      37.839 -13.779  -2.748  1.00  0.00     0.003 A 
HETATM   25  C   UNL     1      37.718 -12.974  -1.614  1.00  0.00     0.040 A 
HETATM   26  O   UNL     1      38.680 -11.722   0.134  1.00  0.00    -0.331 OA
ENDBRANCH   2  17
TORSDOF 3
ENDMDL
MODEL 3
REMARK VINA RESULT:      -7.6      2.582      8.459
REMARK  3 active torsions:
REMARK  status: ('A' for Active; 'I' for Inactive)
REMARK       I    between atoms: C_2  and  N_3 
REMARK    1  A    between atoms: C_2  and  C_16 
REMARK    2  A    between atoms: N_3  and  C_4 
REMARK    3  A    between atoms: C_7  and  C_10 
ROOT
HETATM    1  O   UNL     1      41.717 -13.485   6.194  1.00  0.00    -0.270 OA
HETATM    2  C   UNL     1      41.690 -12.698   5.260  1.00  0.00     0.255 C 
HETATM    3  N   UNL     1      42.606 -11.613   5.266  1.00  0.00    -0.305 N 
HETATM    4  H   UNL     1      42.671 -10.957   4.499  1.00  0.00     0.171 HD
ENDROOT
BRANCH   3   5
HETATM    5  C   UNL     1      43.349 -11.326   6.318  1.00  0.00     0.151 A 
HETATM    6  N   UNL     1      42.913 -10.830   7.476  1.00  0.00    -0.335 N 
HETATM    7  H   UNL     1      41.911 -10.670   7.597  1.00  0.00     0.168 HD
HETATM    8  C   UNL     1      43.915 -10.542   8.386  1.00  0.00     0.051 A 
HETATM    9  C   UNL     1      45.158 -10.900   7.905  1.00  0.00     0.083 A 
HETATM   10  S   UNL     1      45.062 -11.537   6.306  1.00  0.00    -0.063 SA
BRANCH   8  11
HETATM   11  C   UNL     1      43.661  -9.921   9.681  1.00  0.00    -0.006 A 
HETATM   12  C   UNL     1      43.574 -10.706  10.836  1.00  0.00     0.033 A 
HETATM   13  C   UNL     1      43.296 -10.086  12.044  1.00  0.00     0.117 A 
HETATM   14  N   UNL     1      43.106  -8.760  12.173  1.00  0.00    -0.273 NA
HETATM   15  C   UNL     1      43.197  -8.013  11.056  1.00  0.00     0.117 A 
HETATM   16  C   UNL     1      43.468  -8.539   9.803  1.00  0.00     0.033 A 
ENDBRANCH   8  11
ENDBRANCH   3   5
BRANCH   2  17
HETATM   17  C   UNL     1      40.788 -12.771   4.033  1.00  0.00     0.245 C 
HETATM   18  C   UNL     1      41.478 -12.177   2.816  1.00  0.00     0.218 C 
HETATM   19  O   UNL     1      42.670 -12.906   2.508  1.00  0.00    -0.345 OA
HETATM   20  C   UNL     1      42.454 -14.258   2.513  1.00  0.00     0.102 A 
HETATM   21  C   UNL     1      43.425 -15.049   1.907  1.00  0.00     0.039 A 
HETATM   22  C   UNL     1      41.341 -14.849   3.119  1.00  0.00     0.103 A 
HETATM   23  C   UNL     1      43.269 -16.436   1.880  1.00  0.00     0.003 A 
HETATM   24  C   UNL     1      42.142 -17.025   2.457  1.00  0.00     0.003 A 
HETATM   25  C   UNL     1      41.175 -16.231   3.077  1.00  0.00     0.040 A 
HETATM   26  O   UNL     1      40.390 -14.133   3.804  1.00  0.00    -0.331 OA
ENDBRANCH   2  17
TORSDOF 3
ENDMDL
MODEL 4
REMARK VINA RESULT:      -7.5      5.415      7.115
REMARK  3 active torsions:
REMARK  status: ('A' for Active; 'I' for Inactive)
REMARK       I    between atoms: C_2  and  N_3 
REMARK    1  A    between atoms: C_2  and  C_16 
REMARK    2  A    between atoms: N_3  and  C_4 
REMARK    3  A    between atoms: C_7  and  C_10 
ROOT
HETATM    1  O   UNL     1      41.741 -13.010   4.300  1.00  0.00    -0.270 OA
HETATM    2  C   UNL     1      40.775 -13.533   4.834  1.00  0.00     0.255 C 
HETATM    3  N   UNL     1      39.564 -13.622   4.098  1.00  0.00    -0.305 N 
HETATM    4  H   UNL     1      38.745 -14.089   4.462  1.00  0.00     0.171 HD
ENDROOT
BRANCH   3   5
HETATM    5  C   UNL     1      39.396 -13.006   2.944  1.00  0.00     0.151 A 
HETATM    6  N   UNL     1      39.672 -13.507   1.739  1.00  0.00    -0.335 N 
HETATM    7  H   UNL     1      40.025 -14.464   1.672  1.00  0.00     0.168 HD
HETATM    8  C   UNL     1      39.482 -12.619   0.696  1.00  0.00     0.051 A 
HETATM    9  C   UNL     1      38.978 -11.413   1.138  1.00  0.00     0.083 A 
HETATM   10  S   UNL     1      38.804 -11.388   2.853  1.00  0.00    -0.063 SA
BRANCH   8  11
HETATM   11  C   UNL     1      39.798 -12.939  -0.692  1.00  0.00    -0.006 A 
HETATM   12  C   UNL     1      39.284 -14.098  -1.285  1.00  0.00     0.033 A 
HETATM   13  C   UNL     1      39.635 -14.389  -2.593  1.00  0.00     0.117 A 
HETATM   14  N   UNL     1      40.446 -13.613  -3.336  1.00  0.00    -0.273 NA
HETATM   15  C   UNL     1      40.931 -12.497  -2.758  1.00  0.00     0.117 A 
HETATM   16  C   UNL     1      40.642 -12.123  -1.456  1.00  0.00     0.033 A 
ENDBRANCH   8  11
ENDBRANCH   3   5
BRANCH   2  17
HETATM   17  C   UNL     1      40.730 -14.157   6.225  1.00  0.00     0.245 C 
HETATM   18  C   UNL     1      40.037 -15.509   6.191  1.00  0.00     0.218 C 
HETATM   19  O   UNL     1      40.749 -16.417   5.344  1.00  0.00    -0.345 OA
HETATM   20  C   UNL     1      42.093 -16.403   5.601  1.00  0.00     0.102 A 
HETATM   21  C   UNL     1      42.838 -17.465   5.096  1.00  0.00     0.039 A 
HETATM   22  C   UNL     1      42.724 -15.371   6.302  1.00  0.00     0.103 A 
HETATM   23  C   UNL     1      44.215 -17.512   5.319  1.00  0.00     0.003 A 
HETATM   24  C   UNL     1      44.840 -16.498   6.046  1.00  0.00     0.003 A 
HETATM   25  C   UNL     1      44.095 -15.425   6.541  1.00  0.00     0.040 A 
HETATM   26  O   UNL     1      42.061 -14.257   6.756  1.00  0.00    -0.331 OA
ENDBRANCH   2  17
TORSDOF 3
ENDMDL
MODEL 5
REMARK VINA RESULT:      -7.5      2.847      8.345
REMARK  3 active torsions:
REMARK  status: ('A' for Active; 'I' for Inactive)
REMARK       I    between atoms: C_2  and  N_3 
REMARK    1  A    between atoms: C_2  and  C_16 
REMARK    2  A    between atoms: N_3  and  C_4 
REMARK    3  A    between atoms: C_7  and  C_10 
ROOT
HETATM    1  O   UNL     1      43.542 -14.171   6.563  1.00  0.00    -0.270 OA
HETATM    2  C   UNL     1      42.366 -14.498   6.489  1.00  0.00     0.255 C 
HETATM    3  N   UNL     1      41.423 -13.526   6.063  1.00  0.00    -0.305 N 
HETATM    4  H   UNL     1      40.445 -13.746   5.931  1.00  0.00     0.171 HD
ENDROOT
BRANCH   3   5
HETATM    5  C   UNL     1      41.739 -12.253   5.921  1.00  0.00     0.151 A 
HETATM    6  N   UNL     1      42.289 -11.473   6.851  1.00  0.00    -0.335 N 
HETATM    7  H   UNL     1      42.521 -11.878   7.761  1.00  0.00     0.168 HD
HETATM    8  C   UNL     1      42.442 -10.152   6.470  1.00  0.00     0.051 A 
HETATM    9  C   UNL     1      42.042  -9.949   5.164  1.00  0.00     0.083 A 
HETATM   10  S   UNL     1      41.432 -11.397   4.455  1.00  0.00    -0.063 SA
BRANCH   8  11
HETATM   11  C   UNL     1      42.951  -9.117   7.363  1.00  0.00    -0.006 A 
HETATM   12  C   UNL     1      42.263  -7.907   7.508  1.00  0.00     0.033 A 
HETATM   13  C   UNL     1      42.795  -6.933   8.338  1.00  0.00     0.117 A 
HETATM   14  N   UNL     1      43.945  -7.085   9.021  1.00  0.00    -0.273 NA
HETATM   15  C   UNL     1      44.597  -8.255   8.878  1.00  0.00     0.117 A 
HETATM   16  C   UNL     1      44.148  -9.287   8.071  1.00  0.00     0.033 A 
ENDBRANCH   8  11
ENDBRANCH   3   5
BRANCH   2  17
HETATM   17  C   UNL     1      41.786 -15.879   6.771  1.00  0.00     0.245 C 
HETATM   18  C   UNL     1      40.518 -16.109   5.964  1.00  0.00     0.218 C 
HETATM   19  O   UNL     1      40.797 -16.046   4.562  1.00  0.00    -0.345 OA
HETATM   20  C   UNL     1      41.900 -16.786   4.229  1.00  0.00     0.102 A 
HETATM   21  C   UNL     1      42.072 -17.081   2.880  1.00  0.00     0.039 A 
HETATM   22  C   UNL     1      42.843 -17.211   5.170  1.00  0.00     0.103 A 
HETATM   23  C   UNL     1      43.177 -17.829   2.472  1.00  0.00     0.003 A 
HETATM   24  C   UNL     1      44.103 -18.280   3.414  1.00  0.00     0.003 A 
HETATM   25  C   UNL     1      43.937 -17.973   4.766  1.00  0.00     0.040 A 
HETATM   26  O   UNL     1      42.775 -16.885   6.502  1.00  0.00    -0.331 OA
ENDBRANCH   2  17
TORSDOF 3
ENDMDL
MODEL 6
REMARK VINA RESULT:      -7.5      2.120      2.972
REMARK  3 active torsions:
REMARK  status: ('A' for Active; 'I' for Inactive)
REMARK       I    between atoms: C_2  and  N_3 
REMARK    1  A    between atoms: C_2  and  C_16 
REMARK    2  A    between atoms: N_3  and  C_4 
REMARK    3  A    between atoms: C_7  and  C_10 
ROOT
HETATM    1  O   UNL     1      44.099 -12.786   7.136  1.00  0.00    -0.270 OA
HETATM    2  C   UNL     1      43.459 -11.982   6.475  1.00  0.00     0.255 C 
HETATM    3  N   UNL     1      42.329 -12.451   5.754  1.00  0.00    -0.305 N 
HETATM    4  H   UNL     1      41.727 -11.829   5.230  1.00  0.00     0.171 HD
ENDROOT
BRANCH   3   5
HETATM    5  C   UNL     1      42.059 -13.735   5.628  1.00  0.00     0.151 A 
HETATM    6  N   UNL     1      42.813 -14.639   5.002  1.00  0.00    -0.335 N 
HETATM    7  H   UNL     1      43.701 -14.341   4.592  1.00  0.00     0.168 HD
HETATM    8  C   UNL     1      42.257 -15.904   4.942  1.00  0.00     0.051 A 
HETATM    9  C   UNL     1      41.053 -15.963   5.615  1.00  0.00     0.083 A 
HETATM   10  S   UNL     1      40.609 -14.427   6.260  1.00  0.00    -0.063 SA
BRANCH   8  11
HETATM   11  C   UNL     1      42.881 -17.018   4.236  1.00  0.00    -0.006 A 
HETATM   12  C   UNL     1      42.559 -17.276   2.899  1.00  0.00     0.033 A 
HETATM   13  C   UNL     1      43.144 -18.365   2.272  1.00  0.00     0.117 A 
HETATM   14  N   UNL     1      44.013 -19.194   2.878  1.00  0.00    -0.273 NA
HETATM   15  C   UNL     1      44.320 -18.933   4.163  1.00  0.00     0.117 A 
HETATM   16  C   UNL     1      43.787 -17.873   4.877  1.00  0.00     0.033 A 
ENDBRANCH   8  11
ENDBRANCH   3   5
BRANCH   2  17
HETATM   17  C   UNL     1      43.716 -10.483   6.366  1.00  0.00     0.245 C 
HETATM   18  C   UNL     1      42.457  -9.692   6.683  1.00  0.00     0.218 C 
HETATM   19  O   UNL     1      42.025  -9.950   8.023  1.00  0.00    -0.345 OA
HETATM   20  C   UNL     1      43.062  -9.870   8.914  1.00  0.00     0.102 A 
HETATM   21  C   UNL     1      42.723  -9.763  10.260  1.00  0.00     0.039 A 
HETATM   22  C   UNL     1      44.405  -9.926   8.527  1.00  0.00     0.103 A 
HETATM   23  C   UNL     1      43.731  -9.681  11.222  1.00  0.00     0.003 A 
HETATM   24  C   UNL     1      45.072  -9.706  10.834  1.00  0.00     0.003 A 
HETATM   25  C   UNL     1      45.411  -9.827   9.485  1.00  0.00     0.040 A 
HETATM   26  O   UNL     1      44.805 -10.113   7.227  1.00  0.00    -0.331 OA
ENDBRANCH   2  17
TORSDOF 3
ENDMDL
MODEL 7
REMARK VINA RESULT:      -7.4      6.051      8.582
REMARK  3 active torsions:
REMARK  status: ('A' for Active; 'I' for Inactive)
REMARK       I    between atoms: C_2  and  N_3 
REMARK    1  A    between atoms: C_2  and  C_16 
REMARK    2  A    between atoms: N_3  and  C_4 
REMARK    3  A    between atoms: C_7  and  C_10 
ROOT
HETATM    1  O   UNL     1      39.457 -13.945   2.363  1.00  0.00    -0.270 OA
HETATM    2  C   UNL     1      39.977 -12.842   2.291  1.00  0.00     0.255 C 
HETATM    3  N   UNL     1      41.304 -12.691   2.775  1.00  0.00    -0.305 N 
HETATM    4  H   UNL     1      41.810 -11.819   2.698  1.00  0.00     0.171 HD
ENDROOT
BRANCH   3   5
HETATM    5  C   UNL     1      41.917 -13.641   3.454  1.00  0.00     0.151 A 
HETATM    6  N   UNL     1      42.279 -14.834   2.983  1.00  0.00    -0.335 N 
HETATM    7  H   UNL     1      42.099 -15.051   2.000  1.00  0.00     0.168 HD
HETATM    8  C   UNL     1      42.833 -15.678   3.929  1.00  0.00     0.051 A 
HETATM    9  C   UNL     1      42.947 -15.059   5.158  1.00  0.00     0.083 A 
HETATM   10  S   UNL     1      42.311 -13.457   5.124  1.00  0.00    -0.063 SA
BRANCH   8  11
HETATM   11  C   UNL     1      43.224 -17.053   3.641  1.00  0.00    -0.006 A 
HETATM   12  C   UNL     1      42.778 -17.686   2.475  1.00  0.00     0.033 A 
HETATM   13  C   UNL     1      43.141 -19.005   2.253  1.00  0.00     0.117 A 
HETATM   14  N   UNL     1      43.906 -19.719   3.099  1.00  0.00    -0.273 NA
HETATM   15  C   UNL     1      44.335 -19.098   4.215  1.00  0.00     0.117 A 
HETATM   16  C   UNL     1      44.024 -17.785   4.528  1.00  0.00     0.033 A 
ENDBRANCH   8  11
ENDBRANCH   3   5
BRANCH   2  17
HETATM   17  C   UNL     1      39.365 -11.583   1.688  1.00  0.00     0.245 C 
HETATM   18  C   UNL     1      40.446 -10.644   1.179  1.00  0.00     0.218 C 
HETATM   19  O   UNL     1      41.216 -11.274   0.150  1.00  0.00    -0.345 OA
HETATM   20  C   UNL     1      40.417 -11.880  -0.782  1.00  0.00     0.102 A 
HETATM   21  C   UNL     1      41.015 -12.226  -1.990  1.00  0.00     0.039 A 
HETATM   22  C   UNL     1      39.071 -12.183  -0.550  1.00  0.00     0.103 A 
HETATM   23  C   UNL     1      40.259 -12.850  -2.983  1.00  0.00     0.003 A 
HETATM   24  C   UNL     1      38.908 -13.124  -2.765  1.00  0.00     0.003 A 
HETATM   25  C   UNL     1      38.310 -12.789  -1.547  1.00  0.00     0.040 A 
HETATM   26  O   UNL     1      38.443 -11.942   0.647  1.00  0.00    -0.331 OA
ENDBRANCH   2  17
TORSDOF 3
ENDMDL
MODEL 8
REMARK VINA RESULT:      -7.3      7.326     10.124
REMARK  3 active torsions:
REMARK  status: ('A' for Active; 'I' for Inactive)
REMARK       I    between atoms: C_2  and  N_3 
REMARK    1  A    between atoms: C_2  and  C_16 
REMARK    2  A    between atoms: N_3  and  C_4 
REMARK    3  A    between atoms: C_7  and  C_10 
ROOT
HETATM    1  O   UNL     1      41.040 -12.960  -0.766  1.00  0.00    -0.270 OA
HETATM    2  C   UNL     1      40.218 -13.768  -1.173  1.00  0.00     0.255 C 
HETATM    3  N   UNL     1      39.712 -14.732  -0.262  1.00  0.00    -0.305 N 
HETATM    4  H   UNL     1      38.993 -15.394  -0.521  1.00  0.00     0.171 HD
ENDROOT
BRANCH   3   5
HETATM    5  C   UNL     1      40.224 -14.898   0.942  1.00  0.00     0.151 A 
HETATM    6  N   UNL     1      41.227 -15.716   1.262  1.00  0.00    -0.335 N 
HETATM    7  H   UNL     1      41.676 -16.259   0.521  1.00  0.00     0.168 HD
HETATM    8  C   UNL     1      41.516 -15.763   2.614  1.00  0.00     0.051 A 
HETATM    9  C   UNL     1      40.728 -14.888   3.334  1.00  0.00     0.083 A 
HETATM   10  S   UNL     1      39.604 -14.063   2.319  1.00  0.00    -0.063 SA
BRANCH   8  11
HETATM   11  C   UNL     1      42.524 -16.650   3.184  1.00  0.00    -0.006 A 
HETATM   12  C   UNL     1      42.994 -17.747   2.454  1.00  0.00     0.033 A 
HETATM   13  C   UNL     1      43.925 -18.589   3.043  1.00  0.00     0.117 A 
HETATM   14  N   UNL     1      44.409 -18.410   4.286  1.00  0.00    -0.273 NA
HETATM   15  C   UNL     1      43.954 -17.348   4.977  1.00  0.00     0.117 A 
HETATM   16  C   UNL     1      43.022 -16.452   4.479  1.00  0.00     0.033 A 
ENDBRANCH   8  11
ENDBRANCH   3   5
BRANCH   2  17
HETATM   17  C   UNL     1      39.626 -13.836  -2.577  1.00  0.00     0.245 C 
HETATM   18  C   UNL     1      38.133 -14.113  -2.523  1.00  0.00     0.218 C 
HETATM   19  O   UNL     1      37.451 -13.064  -1.828  1.00  0.00    -0.345 OA
HETATM   20  C   UNL     1      37.848 -11.827  -2.261  1.00  0.00     0.102 A 
HETATM   21  C   UNL     1      37.033 -10.753  -1.917  1.00  0.00     0.039 A 
HETATM   22  C   UNL     1      39.026 -11.616  -2.984  1.00  0.00     0.103 A 
HETATM   23  C   UNL     1      37.381  -9.464  -2.323  1.00  0.00     0.003 A 
HETATM   24  C   UNL     1      38.540  -9.255  -3.072  1.00  0.00     0.003 A 
HETATM   25  C   UNL     1      39.365 -10.332  -3.406  1.00  0.00     0.040 A 
HETATM   26  O   UNL     1      39.914 -12.619  -3.285  1.00  0.00    -0.331 OA
ENDBRANCH   2  17
TORSDOF 3
ENDMDL
MODEL 9
REMARK VINA RESULT:      -6.9      6.796      9.227
REMARK  3 active torsions:
REMARK  status: ('A' for Active; 'I' for Inactive)
REMARK       I    between atoms: C_2  and  N_3 
REMARK    1  A    between atoms: C_2  and  C_16 
REMARK    2  A    between atoms: N_3  and  C_4 
REMARK    3  A    between atoms: C_7  and  C_10 
ROOT
HETATM    1  O   UNL     1      41.840 -12.892   1.614  1.00  0.00    -0.270 OA
HETATM    2  C   UNL     1      40.791 -13.519   1.598  1.00  0.00     0.255 C 
HETATM    3  N   UNL     1      40.098 -13.641   0.365  1.00  0.00    -0.305 N 
HETATM    4  H   UNL     1      39.254 -14.189   0.272  1.00  0.00     0.171 HD
ENDROOT
BRANCH   3   5
HETATM    5  C   UNL     1      40.448 -12.959  -0.709  1.00  0.00     0.151 A 
HETATM    6  N   UNL     1      40.888 -11.701  -0.731  1.00  0.00    -0.335 N 
HETATM    7  H   UNL     1      40.996 -11.201   0.154  1.00  0.00     0.168 HD
HETATM    8  C   UNL     1      41.106 -11.195  -2.000  1.00  0.00     0.051 A 
HETATM    9  C   UNL     1      40.878 -12.147  -2.974  1.00  0.00     0.083 A 
HETATM   10  S   UNL     1      40.341 -13.637  -2.292  1.00  0.00    -0.063 SA
BRANCH   8  11
HETATM   11  C   UNL     1      41.512  -9.817  -2.251  1.00  0.00    -0.006 A 
HETATM   12  C   UNL     1      42.245  -9.110  -1.291  1.00  0.00     0.033 A 
HETATM   13  C   UNL     1      42.582  -7.791  -1.548  1.00  0.00     0.117 A 
HETATM   14  N   UNL     1      42.246  -7.144  -2.680  1.00  0.00    -0.273 NA
HETATM   15  C   UNL     1      41.545  -7.835  -3.600  1.00  0.00     0.117 A 
HETATM   16  C   UNL     1      41.158  -9.155  -3.434  1.00  0.00     0.033 A 
ENDBRANCH   8  11
ENDBRANCH   3   5
BRANCH   2  17
HETATM   17  C   UNL     1      40.142 -14.239   2.775  1.00  0.00     0.245 C 
HETATM   18  C   UNL     1      39.493 -15.538   2.325  1.00  0.00     0.218 C 
HETATM   19  O   UNL     1      40.472 -16.424   1.773  1.00  0.00    -0.345 OA
HETATM   20  C   UNL     1      41.580 -16.517   2.573  1.00  0.00     0.102 A 
HETATM   21  C   UNL     1      42.439 -17.584   2.330  1.00  0.00     0.039 A 
HETATM   22  C   UNL     1      41.881 -15.583   3.569  1.00  0.00     0.103 A 
HETATM   23  C   UNL     1      43.589 -17.736   3.106  1.00  0.00     0.003 A 
HETATM   24  C   UNL     1      43.874 -16.822   4.121  1.00  0.00     0.003 A 
HETATM   25  C   UNL     1      43.019 -15.743   4.356  1.00  0.00     0.040 A 
HETATM   26  O   UNL     1      41.119 -14.464   3.804  1.00  0.00    -0.331 OA
ENDBRANCH   2  17
TORSDOF 3
ENDMDL
MODEL 10
REMARK VINA RESULT:      -6.8      5.306      7.573
REMARK  3 active torsions:
REMARK  status: ('A' for Active; 'I' for Inactive)
REMARK       I    between atoms: C_2  and  N_3 
REMARK    1  A    between atoms: C_2  and  C_16 
REMARK    2  A    between atoms: N_3  and  C_4 
REMARK    3  A    between atoms: C_7  and  C_10 
ROOT
HETATM    1  O   UNL     1      41.807 -12.823   3.703  1.00  0.00    -0.270 OA
HETATM    2  C   UNL     1      40.973 -13.494   4.293  1.00  0.00     0.255 C 
HETATM    3  N   UNL     1      40.031 -14.226   3.523  1.00  0.00    -0.305 N 
HETATM    4  H   UNL     1      39.348 -14.839   3.947  1.00  0.00     0.171 HD
ENDROOT
BRANCH   3   5
HETATM    5  C   UNL     1      39.912 -14.066   2.219  1.00  0.00     0.151 A 
HETATM    6  N   UNL     1      39.283 -13.063   1.605  1.00  0.00    -0.335 N 
HETATM    7  H   UNL     1      38.865 -12.323   2.172  1.00  0.00     0.168 HD
HETATM    8  C   UNL     1      39.234 -13.180   0.227  1.00  0.00     0.051 A 
HETATM    9  C   UNL     1      39.917 -14.296  -0.214  1.00  0.00     0.083 A 
HETATM   10  S   UNL     1      40.559 -15.209   1.100  1.00  0.00    -0.063 SA
BRANCH   8  11
HETATM   11  C   UNL     1      38.528 -12.234  -0.629  1.00  0.00    -0.006 A 
HETATM   12  C   UNL     1      38.474 -10.877  -0.290  1.00  0.00     0.033 A 
HETATM   13  C   UNL     1      37.763 -10.013  -1.108  1.00  0.00     0.117 A 
HETATM   14  N   UNL     1      37.117 -10.406  -2.221  1.00  0.00    -0.273 NA
HETATM   15  C   UNL     1      37.180 -11.713  -2.542  1.00  0.00     0.117 A 
HETATM   16  C   UNL     1      37.861 -12.654  -1.787  1.00  0.00     0.033 A 
ENDBRANCH   8  11
ENDBRANCH   3   5
BRANCH   2  17
HETATM   17  C   UNL     1      40.848 -13.672   5.802  1.00  0.00     0.245 C 
HETATM   18  C   UNL     1      40.031 -14.909   6.137  1.00  0.00     0.218 C 
HETATM   19  O   UNL     1      40.665 -16.085   5.623  1.00  0.00    -0.345 OA
HETATM   20  C   UNL     1      42.001 -16.112   5.921  1.00  0.00     0.102 A 
HETATM   21  C   UNL     1      42.648 -17.336   5.781  1.00  0.00     0.039 A 
HETATM   22  C   UNL     1      42.716 -14.977   6.315  1.00  0.00     0.103 A 
HETATM   23  C   UNL     1      44.011 -17.434   6.065  1.00  0.00     0.003 A 
HETATM   24  C   UNL     1      44.720 -16.308   6.489  1.00  0.00     0.003 A 
HETATM   25  C   UNL     1      44.073 -15.077   6.616  1.00  0.00     0.040 A 
HETATM   26  O   UNL     1      42.156 -13.726   6.394  1.00  0.00    -0.331 OA
ENDBRANCH   2  17
TORSDOF 3
ENDMDL
