MODEL 1
REMARK VINA RESULT:      -7.7      0.000      0.000
REMARK  6 active torsions:
REMARK  status: ('A' for Active; 'I' for Inactive)
REMARK    1  A    between atoms: C_2  and  O_3 
REMARK    2  A    between atoms: O_3  and  C_4 
REMARK    3  A    between atoms: C_7  and  C_8 
REMARK       I    between atoms: N_11  and  C_12 
REMARK       I    between atoms: C_12  and  N_13 
REMARK    4  A    between atoms: N_13  and  C_14 
REMARK    5  A    between atoms: C_14  and  C_15 
REMARK    6  A    between atoms: C_15  and  C_16 
ROOT
HETATM    1  C   UNL     1      43.216 -13.752   5.667  1.00  0.00    -0.049 C 
HETATM    2  C   UNL     1      42.149 -12.873   5.078  1.00  0.00     0.059 C 
HETATM    3  C   UNL     1      41.678 -11.819   6.081  1.00  0.00     0.132 C 
HETATM    4  N   UNL     1      42.800 -11.110   6.701  1.00  0.00    -0.331 N 
HETATM    5  C   UNL     1      42.698  -9.826   7.225  1.00  0.00     0.318 C 
HETATM    6  N   UNL     1      41.610  -9.110   6.819  1.00  0.00    -0.338 N 
HETATM    7  O   UNL     1      43.502  -9.377   8.041  1.00  0.00    -0.247 OA
HETATM    8  C   UNL     1      43.836 -11.937   7.313  1.00  0.00     0.155 C 
HETATM    9  C   UNL     1      43.965 -13.297   6.690  1.00  0.00     0.001 C 
HETATM   10  H   UNL     1      41.245  -9.287   5.890  1.00  0.00     0.164 HD
ENDROOT
BRANCH   6  11
HETATM   11  C   UNL     1      41.299  -7.776   7.317  1.00  0.00     0.087 C 
HETATM   12  C   UNL     1      41.515  -6.715   6.236  1.00  0.00     0.032 C 
BRANCH  11  13
HETATM   13  C   UNL     1      39.876  -7.735   7.906  1.00  0.00     0.085 C 
BRANCH  13  14
HETATM   14  C   UNL     1      39.608  -8.722   9.004  1.00  0.00     0.058 A 
HETATM   15  N   UNL     1      38.930  -9.856   8.773  1.00  0.00    -0.179 NA
HETATM   16  N   UNL     1      38.920 -10.477   9.965  1.00  0.00    -0.282 N 
HETATM   17  H   UNL     1      38.453 -11.376  10.035  1.00  0.00     0.189 HD
HETATM   18  C   UNL     1      39.571  -9.788  10.948  1.00  0.00     0.026 A 
HETATM   19  C   UNL     1      39.699 -10.298  12.331  1.00  0.00     0.070 C 
HETATM   20  C   UNL     1      40.029  -8.636  10.352  1.00  0.00     0.055 A 
ENDBRANCH  13  14
ENDBRANCH  11  13
ENDBRANCH   6  11
BRANCH   1  21
HETATM   21  C   UNL     1      43.380 -15.127   5.154  1.00  0.00    -0.030 A 
HETATM   22  C   UNL     1      43.990 -16.116   5.937  1.00  0.00     0.014 A 
HETATM   23  C   UNL     1      44.139 -17.426   5.461  1.00  0.00     0.037 A 
HETATM   24  C   UNL     1      43.680 -17.766   4.190  1.00  0.00     0.068 A 
HETATM   25  C   UNL     1      43.082 -16.783   3.399  1.00  0.00     0.037 A 
HETATM   26  C   UNL     1      42.929 -15.477   3.876  1.00  0.00     0.014 A 
BRANCH  24  27
HETATM   27  O   UNL     1      43.763 -19.002   3.610  1.00  0.00    -0.352 OA
BRANCH  27  28
HETATM   28  C   UNL     1      43.236 -19.132   2.290  1.00  0.00     0.171 C 
HETATM   29  C   UNL     1      43.621 -20.502   1.762  1.00  0.00     0.034 C 
ENDBRANCH  27  28
ENDBRANCH  24  27
ENDBRANCH   1  21
TORSDOF 6
ENDMDL
MODEL 2
REMARK VINA RESULT:      -7.7      2.128      3.368
REMARK  6 active torsions:
REMARK  status: ('A' for Active; 'I' for Inactive)
REMARK    1  A    between atoms: C_2  and  O_3 
REMARK    2  A    between atoms: O_3  and  C_4 
REMARK    3  A    between atoms: C_7  and  C_8 
REMARK       I    between atoms: N_11  and  C_12 
REMARK       I    between atoms: C_12  and  N_13 
REMARK    4  A    between atoms: N_13  and  C_14 
REMARK    5  A    between atoms: C_14  and  C_15 
REMARK    6  A    between atoms: C_15  and  C_16 
ROOT
HETATM    1  C   UNL     1      41.575 -14.690   4.790  1.00  0.00    -0.049 C 
HETATM    2  C   UNL     1      42.119 -14.098   6.061  1.00  0.00     0.059 C 
HETATM    3  C   UNL     1      41.762 -12.616   6.184  1.00  0.00     0.132 C 
HETATM    4  N   UNL     1      40.338 -12.372   5.940  1.00  0.00    -0.331 N 
HETATM    5  C   UNL     1      39.649 -11.281   6.458  1.00  0.00     0.318 C 
HETATM    6  N   UNL     1      40.259 -10.640   7.496  1.00  0.00    -0.338 N 
HETATM    7  O   UNL     1      38.586 -10.882   5.983  1.00  0.00    -0.247 OA
HETATM    8  C   UNL     1      39.788 -12.905   4.696  1.00  0.00     0.155 C 
HETATM    9  C   UNL     1      40.514 -14.118   4.190  1.00  0.00     0.001 C 
HETATM   10  H   UNL     1      40.837 -11.190   8.120  1.00  0.00     0.164 HD
ENDROOT
BRANCH   6  11
HETATM   11  C   UNL     1      39.723  -9.436   8.119  1.00  0.00     0.087 C 
HETATM   12  C   UNL     1      39.051  -9.754   9.456  1.00  0.00     0.032 C 
BRANCH  11  13
HETATM   13  C   UNL     1      40.817  -8.360   8.251  1.00  0.00     0.085 C 
BRANCH  13  14
HETATM   14  C   UNL     1      42.205  -8.882   8.477  1.00  0.00     0.058 A 
HETATM   15  N   UNL     1      42.958  -9.330   7.460  1.00  0.00    -0.179 NA
HETATM   16  N   UNL     1      44.118  -9.678   8.042  1.00  0.00    -0.282 N 
HETATM   17  H   UNL     1      44.857 -10.051   7.455  1.00  0.00     0.189 HD
HETATM   18  C   UNL     1      44.141  -9.465   9.391  1.00  0.00     0.026 A 
HETATM   19  C   UNL     1      45.325  -9.759  10.227  1.00  0.00     0.070 C 
HETATM   20  C   UNL     1      42.905  -8.948   9.705  1.00  0.00     0.055 A 
ENDBRANCH  13  14
ENDBRANCH  11  13
ENDBRANCH   6  11
BRANCH   1  21
HETATM   21  C   UNL     1      42.258 -15.852   4.189  1.00  0.00    -0.030 A 
HETATM   22  C   UNL     1      41.843 -16.367   2.954  1.00  0.00     0.014 A 
HETATM   23  C   UNL     1      42.493 -17.463   2.371  1.00  0.00     0.037 A 
HETATM   24  C   UNL     1      43.571 -18.064   3.019  1.00  0.00     0.068 A 
HETATM   25  C   UNL     1      43.982 -17.565   4.256  1.00  0.00     0.037 A 
HETATM   26  C   UNL     1      43.336 -16.468   4.835  1.00  0.00     0.014 A 
BRANCH  24  27
HETATM   27  O   UNL     1      44.288 -19.134   2.560  1.00  0.00    -0.352 OA
BRANCH  27  28
HETATM   28  C   UNL     1      43.613 -20.391   2.511  1.00  0.00     0.171 C 
HETATM   29  C   UNL     1      43.843 -21.101   3.833  1.00  0.00     0.034 C 
ENDBRANCH  27  28
ENDBRANCH  24  27
ENDBRANCH   1  21
TORSDOF 6
ENDMDL
MODEL 3
REMARK VINA RESULT:      -7.6      5.673      7.689
REMARK  6 active torsions:
REMARK  status: ('A' for Active; 'I' for Inactive)
REMARK    1  A    between atoms: C_2  and  O_3 
REMARK    2  A    between atoms: O_3  and  C_4 
REMARK    3  A    between atoms: C_7  and  C_8 
REMARK       I    between atoms: N_11  and  C_12 
REMARK       I    between atoms: C_12  and  N_13 
REMARK    4  A    between atoms: N_13  and  C_14 
REMARK    5  A    between atoms: C_14  and  C_15 
REMARK    6  A    between atoms: C_15  and  C_16 
ROOT
HETATM    1  C   UNL     1      42.650 -14.188   2.851  1.00  0.00    -0.049 C 
HETATM    2  C   UNL     1      42.038 -14.336   1.485  1.00  0.00     0.059 C 
HETATM    3  C   UNL     1      41.169 -13.130   1.130  1.00  0.00     0.132 C 
HETATM    4  N   UNL     1      41.864 -11.863   1.369  1.00  0.00    -0.331 N 
HETATM    5  C   UNL     1      41.559 -10.684   0.696  1.00  0.00     0.318 C 
HETATM    6  N   UNL     1      40.834 -10.832  -0.450  1.00  0.00    -0.338 N 
HETATM    7  O   UNL     1      41.873  -9.575   1.127  1.00  0.00    -0.247 OA
HETATM    8  C   UNL     1      42.439 -11.674   2.697  1.00  0.00     0.155 C 
HETATM    9  C   UNL     1      42.814 -12.959   3.377  1.00  0.00     0.001 C 
HETATM   10  H   UNL     1      40.967 -11.679  -0.990  1.00  0.00     0.164 HD
ENDROOT
BRANCH   6  11
HETATM   11  C   UNL     1      40.361  -9.708  -1.248  1.00  0.00     0.087 C 
HETATM   12  C   UNL     1      41.356  -9.355  -2.356  1.00  0.00     0.032 C 
BRANCH  11  13
HETATM   13  C   UNL     1      38.947  -9.985  -1.793  1.00  0.00     0.085 C 
BRANCH  13  14
HETATM   14  C   UNL     1      38.587 -11.436  -1.931  1.00  0.00     0.058 A 
HETATM   15  N   UNL     1      37.899 -12.078  -0.975  1.00  0.00    -0.179 NA
HETATM   16  N   UNL     1      37.748 -13.321  -1.462  1.00  0.00    -0.282 N 
HETATM   17  H   UNL     1      37.246 -14.001  -0.900  1.00  0.00     0.189 HD
HETATM   18  C   UNL     1      38.307 -13.499  -2.695  1.00  0.00     0.026 A 
HETATM   19  C   UNL     1      38.242 -14.784  -3.426  1.00  0.00     0.070 C 
HETATM   20  C   UNL     1      38.866 -12.285  -3.027  1.00  0.00     0.055 A 
ENDBRANCH  13  14
ENDBRANCH  11  13
ENDBRANCH   6  11
BRANCH   1  21
HETATM   21  C   UNL     1      43.000 -15.400   3.618  1.00  0.00    -0.030 A 
HETATM   22  C   UNL     1      43.176 -15.344   5.007  1.00  0.00     0.014 A 
HETATM   23  C   UNL     1      43.498 -16.492   5.742  1.00  0.00     0.037 A 
HETATM   24  C   UNL     1      43.651 -17.718   5.097  1.00  0.00     0.068 A 
HETATM   25  C   UNL     1      43.490 -17.780   3.712  1.00  0.00     0.037 A 
HETATM   26  C   UNL     1      43.164 -16.634   2.978  1.00  0.00     0.014 A 
BRANCH  24  27
HETATM   27  O   UNL     1      43.962 -18.907   5.696  1.00  0.00    -0.352 OA
BRANCH  27  28
HETATM   28  C   UNL     1      44.480 -19.937   4.855  1.00  0.00     0.171 C 
HETATM   29  C   UNL     1      43.703 -21.210   5.138  1.00  0.00     0.034 C 
ENDBRANCH  27  28
ENDBRANCH  24  27
ENDBRANCH   1  21
TORSDOF 6
ENDMDL
MODEL 4
REMARK VINA RESULT:      -7.6      2.064      2.523
REMARK  6 active torsions:
REMARK  status: ('A' for Active; 'I' for Inactive)
REMARK    1  A    between atoms: C_2  and  O_3 
REMARK    2  A    between atoms: O_3  and  C_4 
REMARK    3  A    between atoms: C_7  and  C_8 
REMARK       I    between atoms: N_11  and  C_12 
REMARK       I    between atoms: C_12  and  N_13 
REMARK    4  A    between atoms: N_13  and  C_14 
REMARK    5  A    between atoms: C_14  and  C_15 
REMARK    6  A    between atoms: C_15  and  C_16 
ROOT
HETATM    1  C   UNL     1      43.182 -14.392   5.414  1.00  0.00    -0.049 C 
HETATM    2  C   UNL     1      43.501 -14.017   6.835  1.00  0.00     0.059 C 
HETATM    3  C   UNL     1      43.881 -12.541   6.951  1.00  0.00     0.132 C 
HETATM    4  N   UNL     1      42.915 -11.670   6.277  1.00  0.00    -0.331 N 
HETATM    5  C   UNL     1      42.709 -10.340   6.628  1.00  0.00     0.318 C 
HETATM    6  N   UNL     1      43.181  -9.976   7.855  1.00  0.00    -0.338 N 
HETATM    7  O   UNL     1      42.186  -9.528   5.867  1.00  0.00    -0.247 OA
HETATM    8  C   UNL     1      42.610 -11.987   4.885  1.00  0.00     0.155 C 
HETATM    9  C   UNL     1      42.783 -13.440   4.548  1.00  0.00     0.001 C 
HETATM   10  H   UNL     1      43.188 -10.676   8.588  1.00  0.00     0.164 HD
ENDROOT
BRANCH   6  11
HETATM   11  C   UNL     1      43.121  -8.611   8.363  1.00  0.00     0.087 C 
HETATM   12  C   UNL     1      41.674  -8.165   8.588  1.00  0.00     0.032 C 
BRANCH  11  13
HETATM   13  C   UNL     1      43.987  -8.463   9.628  1.00  0.00     0.085 C 
BRANCH  13  14
HETATM   14  C   UNL     1      43.374  -8.995  10.890  1.00  0.00     0.058 A 
HETATM   15  N   UNL     1      43.117 -10.303  11.045  1.00  0.00    -0.179 NA
HETATM   16  N   UNL     1      42.609 -10.390  12.286  1.00  0.00    -0.282 N 
HETATM   17  H   UNL     1      42.336 -11.305  12.631  1.00  0.00     0.189 HD
HETATM   18  C   UNL     1      42.537  -9.190  12.934  1.00  0.00     0.026 A 
HETATM   19  C   UNL     1      42.028  -9.058  14.318  1.00  0.00     0.070 C 
HETATM   20  C   UNL     1      43.026  -8.259  12.047  1.00  0.00     0.055 A 
ENDBRANCH  13  14
ENDBRANCH  11  13
ENDBRANCH   6  11
BRANCH   1  21
HETATM   21  C   UNL     1      43.375 -15.788   4.977  1.00  0.00    -0.030 A 
HETATM   22  C   UNL     1      43.756 -16.779   5.892  1.00  0.00     0.014 A 
HETATM   23  C   UNL     1      43.930 -18.109   5.487  1.00  0.00     0.037 A 
HETATM   24  C   UNL     1      43.728 -18.469   4.156  1.00  0.00     0.068 A 
HETATM   25  C   UNL     1      43.361 -17.486   3.236  1.00  0.00     0.037 A 
HETATM   26  C   UNL     1      43.182 -16.159   3.641  1.00  0.00     0.014 A 
BRANCH  24  27
HETATM   27  O   UNL     1      43.864 -19.726   3.635  1.00  0.00    -0.352 OA
BRANCH  27  28
HETATM   28  C   UNL     1      42.981 -20.082   2.571  1.00  0.00     0.171 C 
HETATM   29  C   UNL     1      43.815 -20.645   1.435  1.00  0.00     0.034 C 
ENDBRANCH  27  28
ENDBRANCH  24  27
ENDBRANCH   1  21
TORSDOF 6
ENDMDL
MODEL 5
REMARK VINA RESULT:      -7.6      5.843      7.915
REMARK  6 active torsions:
REMARK  status: ('A' for Active; 'I' for Inactive)
REMARK    1  A    between atoms: C_2  and  O_3 
REMARK    2  A    between atoms: O_3  and  C_4 
REMARK    3  A    between atoms: C_7  and  C_8 
REMARK       I    between atoms: N_11  and  C_12 
REMARK       I    between atoms: C_12  and  N_13 
REMARK    4  A    between atoms: N_13  and  C_14 
REMARK    5  A    between atoms: C_14  and  C_15 
REMARK    6  A    between atoms: C_15  and  C_16 
ROOT
HETATM    1  C   UNL     1      41.470 -14.775   2.643  1.00  0.00    -0.049 C 
HETATM    2  C   UNL     1      41.769 -14.031   1.371  1.00  0.00     0.059 C 
HETATM    3  C   UNL     1      40.517 -13.353   0.813  1.00  0.00     0.132 C 
HETATM    4  N   UNL     1      39.809 -12.581   1.836  1.00  0.00    -0.331 N 
HETATM    5  C   UNL     1      38.986 -11.498   1.545  1.00  0.00     0.318 C 
HETATM    6  N   UNL     1      39.146 -10.956   0.303  1.00  0.00    -0.338 N 
HETATM    7  O   UNL     1      38.132 -11.085   2.328  1.00  0.00    -0.247 OA
HETATM    8  C   UNL     1      39.472 -13.286   3.070  1.00  0.00     0.155 C 
HETATM    9  C   UNL     1      40.411 -14.413   3.393  1.00  0.00     0.001 C 
HETATM   10  H   UNL     1      40.068 -10.992  -0.115  1.00  0.00     0.164 HD
ENDROOT
BRANCH   6  11
HETATM   11  C   UNL     1      38.325  -9.864  -0.205  1.00  0.00     0.087 C 
HETATM   12  C   UNL     1      39.134  -8.571  -0.329  1.00  0.00     0.032 C 
BRANCH  11  13
HETATM   13  C   UNL     1      37.648 -10.265  -1.530  1.00  0.00     0.085 C 
BRANCH  13  14
HETATM   14  C   UNL     1      38.178 -11.516  -2.166  1.00  0.00     0.058 A 
HETATM   15  N   UNL     1      39.429 -11.579  -2.648  1.00  0.00    -0.179 NA
HETATM   16  N   UNL     1      39.540 -12.839  -3.101  1.00  0.00    -0.282 N 
HETATM   17  H   UNL     1      40.420 -13.125  -3.518  1.00  0.00     0.189 HD
HETATM   18  C   UNL     1      38.411 -13.588  -2.923  1.00  0.00     0.026 A 
HETATM   19  C   UNL     1      38.320 -15.008  -3.330  1.00  0.00     0.070 C 
HETATM   20  C   UNL     1      37.503 -12.751  -2.317  1.00  0.00     0.055 A 
ENDBRANCH  13  14
ENDBRANCH  11  13
ENDBRANCH   6  11
BRANCH   1  21
HETATM   21  C   UNL     1      42.307 -15.933   3.013  1.00  0.00    -0.030 A 
HETATM   22  C   UNL     1      43.028 -15.942   4.215  1.00  0.00     0.014 A 
HETATM   23  C   UNL     1      43.816 -17.042   4.578  1.00  0.00     0.037 A 
HETATM   24  C   UNL     1      43.898 -18.152   3.741  1.00  0.00     0.068 A 
HETATM   25  C   UNL     1      43.193 -18.146   2.536  1.00  0.00     0.037 A 
HETATM   26  C   UNL     1      42.402 -17.050   2.176  1.00  0.00     0.014 A 
BRANCH  24  27
HETATM   27  O   UNL     1      44.627 -19.285   3.978  1.00  0.00    -0.352 OA
BRANCH  27  28
HETATM   28  C   UNL     1      43.921 -20.525   3.944  1.00  0.00     0.171 C 
HETATM   29  C   UNL     1      43.858 -21.070   5.359  1.00  0.00     0.034 C 
ENDBRANCH  27  28
ENDBRANCH  24  27
ENDBRANCH   1  21
TORSDOF 6
ENDMDL
MODEL 6
REMARK VINA RESULT:      -7.4      1.884      2.228
REMARK  6 active torsions:
REMARK  status: ('A' for Active; 'I' for Inactive)
REMARK    1  A    between atoms: C_2  and  O_3 
REMARK    2  A    between atoms: O_3  and  C_4 
REMARK    3  A    between atoms: C_7  and  C_8 
REMARK       I    between atoms: N_11  and  C_12 
REMARK       I    between atoms: C_12  and  N_13 
REMARK    4  A    between atoms: N_13  and  C_14 
REMARK    5  A    between atoms: C_14  and  C_15 
REMARK    6  A    between atoms: C_15  and  C_16 
ROOT
HETATM    1  C   UNL     1      43.081 -13.554   5.230  1.00  0.00    -0.049 C 
HETATM    2  C   UNL     1      42.300 -12.346   4.791  1.00  0.00     0.059 C 
HETATM    3  C   UNL     1      41.926 -11.461   5.980  1.00  0.00     0.132 C 
HETATM    4  N   UNL     1      43.077 -11.182   6.841  1.00  0.00    -0.331 N 
HETATM    5  C   UNL     1      43.171 -10.056   7.653  1.00  0.00     0.318 C 
HETATM    6  N   UNL     1      42.313  -9.040   7.349  1.00  0.00    -0.338 N 
HETATM    7  O   UNL     1      43.936  -9.995   8.614  1.00  0.00    -0.247 OA
HETATM    8  C   UNL     1      43.836 -12.337   7.313  1.00  0.00     0.155 C 
HETATM    9  C   UNL     1      43.766 -13.519   6.389  1.00  0.00     0.001 C 
HETATM   10  H   UNL     1      42.045  -8.919   6.379  1.00  0.00     0.164 HD
ENDROOT
BRANCH   6  11
HETATM   11  C   UNL     1      42.217  -7.814   8.131  1.00  0.00     0.087 C 
HETATM   12  C   UNL     1      41.974  -6.599   7.233  1.00  0.00     0.032 C 
BRANCH  11  13
HETATM   13  C   UNL     1      41.148  -7.955   9.232  1.00  0.00     0.085 C 
BRANCH  13  14
HETATM   14  C   UNL     1      41.682  -8.146  10.622  1.00  0.00     0.058 A 
HETATM   15  N   UNL     1      41.704  -9.357  11.201  1.00  0.00    -0.179 NA
HETATM   16  N   UNL     1      42.266  -9.133  12.401  1.00  0.00    -0.282 N 
HETATM   17  H   UNL     1      42.390  -9.921  13.028  1.00  0.00     0.189 HD
HETATM   18  C   UNL     1      42.611  -7.828  12.610  1.00  0.00     0.026 A 
HETATM   19  C   UNL     1      43.262  -7.362  13.855  1.00  0.00     0.070 C 
HETATM   20  C   UNL     1      42.239  -7.158  11.467  1.00  0.00     0.055 A 
ENDBRANCH  13  14
ENDBRANCH  11  13
ENDBRANCH   6  11
BRANCH   1  21
HETATM   21  C   UNL     1      43.028 -14.781   4.412  1.00  0.00    -0.030 A 
HETATM   22  C   UNL     1      42.659 -14.727   3.061  1.00  0.00     0.014 A 
HETATM   23  C   UNL     1      42.617 -15.886   2.275  1.00  0.00     0.037 A 
HETATM   24  C   UNL     1      42.942 -17.122   2.831  1.00  0.00     0.068 A 
HETATM   25  C   UNL     1      43.297 -17.187   4.179  1.00  0.00     0.037 A 
HETATM   26  C   UNL     1      43.344 -16.029   4.962  1.00  0.00     0.014 A 
BRANCH  24  27
HETATM   27  O   UNL     1      42.941 -18.322   2.175  1.00  0.00    -0.352 OA
BRANCH  27  28
HETATM   28  C   UNL     1      43.709 -19.376   2.757  1.00  0.00     0.171 C 
HETATM   29  C   UNL     1      43.663 -20.566   1.817  1.00  0.00     0.034 C 
ENDBRANCH  27  28
ENDBRANCH  24  27
ENDBRANCH   1  21
TORSDOF 6
ENDMDL
MODEL 7
REMARK VINA RESULT:      -7.3      3.929     10.383
REMARK  6 active torsions:
REMARK  status: ('A' for Active; 'I' for Inactive)
REMARK    1  A    between atoms: C_2  and  O_3 
REMARK    2  A    between atoms: O_3  and  C_4 
REMARK    3  A    between atoms: C_7  and  C_8 
REMARK       I    between atoms: N_11  and  C_12 
REMARK       I    between atoms: C_12  and  N_13 
REMARK    4  A    between atoms: N_13  and  C_14 
REMARK    5  A    between atoms: C_14  and  C_15 
REMARK    6  A    between atoms: C_15  and  C_16 
ROOT
HETATM    1  C   UNL     1      42.661  -8.669  12.027  1.00  0.00    -0.049 C 
HETATM    2  C   UNL     1      43.746  -9.687  11.805  1.00  0.00     0.059 C 
HETATM    3  C   UNL     1      43.489 -10.509  10.542  1.00  0.00     0.132 C 
HETATM    4  N   UNL     1      43.182  -9.661   9.387  1.00  0.00    -0.331 N 
HETATM    5  C   UNL     1      43.405 -10.050   8.071  1.00  0.00     0.318 C 
HETATM    6  N   UNL     1      44.252 -11.107   7.906  1.00  0.00    -0.338 N 
HETATM    7  O   UNL     1      42.838  -9.518   7.118  1.00  0.00    -0.247 OA
HETATM    8  C   UNL     1      42.109  -8.686   9.560  1.00  0.00     0.155 C 
HETATM    9  C   UNL     1      41.929  -8.237  10.982  1.00  0.00     0.001 C 
HETATM   10  H   UNL     1      44.998 -11.227   8.581  1.00  0.00     0.164 HD
ENDROOT
BRANCH   6  11
HETATM   11  C   UNL     1      44.548 -11.700   6.608  1.00  0.00     0.087 C 
HETATM   12  C   UNL     1      45.942 -11.299   6.119  1.00  0.00     0.032 C 
BRANCH  11  13
HETATM   13  C   UNL     1      44.357 -13.228   6.653  1.00  0.00     0.085 C 
BRANCH  13  14
HETATM   14  C   UNL     1      42.935 -13.699   6.558  1.00  0.00     0.058 A 
HETATM   15  N   UNL     1      41.939 -12.853   6.254  1.00  0.00    -0.179 NA
HETATM   16  N   UNL     1      40.845 -13.633   6.235  1.00  0.00    -0.282 N 
HETATM   17  H   UNL     1      39.950 -13.202   6.021  1.00  0.00     0.189 HD
HETATM   18  C   UNL     1      41.102 -14.946   6.509  1.00  0.00     0.026 A 
HETATM   19  C   UNL     1      40.047 -15.983   6.521  1.00  0.00     0.070 C 
HETATM   20  C   UNL     1      42.459 -15.020   6.727  1.00  0.00     0.055 A 
ENDBRANCH  13  14
ENDBRANCH  11  13
ENDBRANCH   6  11
BRANCH   1  21
HETATM   21  C   UNL     1      42.376  -8.210  13.400  1.00  0.00    -0.030 A 
HETATM   22  C   UNL     1      43.136  -7.189  13.988  1.00  0.00     0.014 A 
HETATM   23  C   UNL     1      42.864  -6.741  15.287  1.00  0.00     0.037 A 
HETATM   24  C   UNL     1      41.825  -7.309  16.022  1.00  0.00     0.068 A 
HETATM   25  C   UNL     1      41.072  -8.335  15.449  1.00  0.00     0.037 A 
HETATM   26  C   UNL     1      41.340  -8.779  14.150  1.00  0.00     0.014 A 
BRANCH  24  27
HETATM   27  O   UNL     1      41.458  -6.963  17.293  1.00  0.00    -0.352 OA
BRANCH  27  28
HETATM   28  C   UNL     1      40.461  -7.771  17.919  1.00  0.00     0.171 C 
HETATM   29  C   UNL     1      41.001  -8.231  19.260  1.00  0.00     0.034 C 
ENDBRANCH  27  28
ENDBRANCH  24  27
ENDBRANCH   1  21
TORSDOF 6
ENDMDL
MODEL 8
REMARK VINA RESULT:      -7.1      2.359      3.111
REMARK  6 active torsions:
REMARK  status: ('A' for Active; 'I' for Inactive)
REMARK    1  A    between atoms: C_2  and  O_3 
REMARK    2  A    between atoms: O_3  and  C_4 
REMARK    3  A    between atoms: C_7  and  C_8 
REMARK       I    between atoms: N_11  and  C_12 
REMARK       I    between atoms: C_12  and  N_13 
REMARK    4  A    between atoms: N_13  and  C_14 
REMARK    5  A    between atoms: C_14  and  C_15 
REMARK    6  A    between atoms: C_15  and  C_16 
ROOT
HETATM    1  C   UNL     1      41.300 -13.721   4.745  1.00  0.00    -0.049 C 
HETATM    2  C   UNL     1      41.999 -13.154   5.950  1.00  0.00     0.059 C 
HETATM    3  C   UNL     1      41.592 -11.701   6.198  1.00  0.00     0.132 C 
HETATM    4  N   UNL     1      40.138 -11.528   6.181  1.00  0.00    -0.331 N 
HETATM    5  C   UNL     1      39.481 -10.500   6.850  1.00  0.00     0.318 C 
HETATM    6  N   UNL     1      40.209  -9.870   7.817  1.00  0.00    -0.338 N 
HETATM    7  O   UNL     1      38.341 -10.142   6.559  1.00  0.00    -0.247 OA
HETATM    8  C   UNL     1      39.433 -12.037   5.008  1.00  0.00     0.155 C 
HETATM    9  C   UNL     1      40.133 -13.185   4.339  1.00  0.00     0.001 C 
HETATM   10  H   UNL     1      40.901 -10.412   8.319  1.00  0.00     0.164 HD
ENDROOT
BRANCH   6  11
HETATM   11  C   UNL     1      39.714  -8.725   8.572  1.00  0.00     0.087 C 
HETATM   12  C   UNL     1      39.006  -9.169   9.854  1.00  0.00     0.032 C 
BRANCH  11  13
HETATM   13  C   UNL     1      40.851  -7.722   8.845  1.00  0.00     0.085 C 
BRANCH  13  14
HETATM   14  C   UNL     1      41.742  -8.063  10.002  1.00  0.00     0.058 A 
HETATM   15  N   UNL     1      42.575  -9.115   9.957  1.00  0.00    -0.179 NA
HETATM   16  N   UNL     1      43.212  -9.077  11.139  1.00  0.00    -0.282 N 
HETATM   17  H   UNL     1      43.906  -9.792  11.334  1.00  0.00     0.189 HD
HETATM   18  C   UNL     1      42.825  -8.039  11.938  1.00  0.00     0.026 A 
HETATM   19  C   UNL     1      43.412  -7.797  13.275  1.00  0.00     0.070 C 
HETATM   20  C   UNL     1      41.864  -7.361  11.224  1.00  0.00     0.055 A 
ENDBRANCH  13  14
ENDBRANCH  11  13
ENDBRANCH   6  11
BRANCH   1  21
HETATM   21  C   UNL     1      41.941 -14.817   3.992  1.00  0.00    -0.030 A 
HETATM   22  C   UNL     1      42.714 -14.548   2.855  1.00  0.00     0.014 A 
HETATM   23  C   UNL     1      43.335 -15.581   2.141  1.00  0.00     0.037 A 
HETATM   24  C   UNL     1      43.188 -16.904   2.553  1.00  0.00     0.068 A 
HETATM   25  C   UNL     1      42.409 -17.182   3.677  1.00  0.00     0.037 A 
HETATM   26  C   UNL     1      41.794 -16.149   4.393  1.00  0.00     0.014 A 
BRANCH  24  27
HETATM   27  O   UNL     1      43.739 -18.000   1.947  1.00  0.00    -0.352 OA
BRANCH  27  28
HETATM   28  C   UNL     1      43.898 -19.169   2.750  1.00  0.00     0.171 C 
HETATM   29  C   UNL     1      43.508 -20.373   1.912  1.00  0.00     0.034 C 
ENDBRANCH  27  28
ENDBRANCH  24  27
ENDBRANCH   1  21
TORSDOF 6
ENDMDL
MODEL 9
REMARK VINA RESULT:      -7.1      6.235      7.981
REMARK  6 active torsions:
REMARK  status: ('A' for Active; 'I' for Inactive)
REMARK    1  A    between atoms: C_2  and  O_3 
REMARK    2  A    between atoms: O_3  and  C_4 
REMARK    3  A    between atoms: C_7  and  C_8 
REMARK       I    between atoms: N_11  and  C_12 
REMARK       I    between atoms: C_12  and  N_13 
REMARK    4  A    between atoms: N_13  and  C_14 
REMARK    5  A    between atoms: C_14  and  C_15 
REMARK    6  A    between atoms: C_15  and  C_16 
ROOT
HETATM    1  C   UNL     1      41.394 -14.902   1.967  1.00  0.00    -0.049 C 
HETATM    2  C   UNL     1      41.560 -13.438   2.271  1.00  0.00     0.059 C 
HETATM    3  C   UNL     1      41.340 -12.581   1.024  1.00  0.00     0.132 C 
HETATM    4  N   UNL     1      40.104 -12.938   0.323  1.00  0.00    -0.331 N 
HETATM    5  C   UNL     1      39.404 -12.054  -0.491  1.00  0.00     0.318 C 
HETATM    6  N   UNL     1      39.712 -10.734  -0.328  1.00  0.00    -0.338 N 
HETATM    7  O   UNL     1      38.598 -12.431  -1.340  1.00  0.00    -0.247 OA
HETATM    8  C   UNL     1      39.930 -14.347  -0.018  1.00  0.00     0.155 C 
HETATM    9  C   UNL     1      40.648 -15.282   0.912  1.00  0.00     0.001 C 
HETATM   10  H   UNL     1      39.998 -10.425   0.594  1.00  0.00     0.164 HD
ENDROOT
BRANCH   6  11
HETATM   11  C   UNL     1      39.134  -9.671  -1.140  1.00  0.00     0.087 C 
HETATM   12  C   UNL     1      38.717  -8.477  -0.279  1.00  0.00     0.032 C 
BRANCH  11  13
HETATM   13  C   UNL     1      40.096  -9.272  -2.275  1.00  0.00     0.085 C 
BRANCH  13  14
HETATM   14  C   UNL     1      41.307  -8.499  -1.846  1.00  0.00     0.058 A 
HETATM   15  N   UNL     1      42.258  -9.058  -1.081  1.00  0.00    -0.179 NA
HETATM   16  N   UNL     1      43.173  -8.085  -0.936  1.00  0.00    -0.282 N 
HETATM   17  H   UNL     1      44.002  -8.282  -0.384  1.00  0.00     0.189 HD
HETATM   18  C   UNL     1      42.849  -6.926  -1.582  1.00  0.00     0.026 A 
HETATM   19  C   UNL     1      43.723  -5.732  -1.572  1.00  0.00     0.070 C 
HETATM   20  C   UNL     1      41.634  -7.164  -2.184  1.00  0.00     0.055 A 
ENDBRANCH  13  14
ENDBRANCH  11  13
ENDBRANCH   6  11
BRANCH   1  21
HETATM   21  C   UNL     1      42.108 -15.893   2.795  1.00  0.00    -0.030 A 
HETATM   22  C   UNL     1      42.610 -17.072   2.228  1.00  0.00     0.014 A 
HETATM   23  C   UNL     1      43.298 -18.013   3.006  1.00  0.00     0.037 A 
HETATM   24  C   UNL     1      43.493 -17.790   4.367  1.00  0.00     0.068 A 
HETATM   25  C   UNL     1      42.985 -16.624   4.942  1.00  0.00     0.037 A 
HETATM   26  C   UNL     1      42.302 -15.682   4.165  1.00  0.00     0.014 A 
BRANCH  24  27
HETATM   27  O   UNL     1      44.145 -18.624   5.232  1.00  0.00    -0.352 OA
BRANCH  27  28
HETATM   28  C   UNL     1      44.592 -19.874   4.710  1.00  0.00     0.171 C 
HETATM   29  C   UNL     1      43.777 -20.976   5.361  1.00  0.00     0.034 C 
ENDBRANCH  27  28
ENDBRANCH  24  27
ENDBRANCH   1  21
TORSDOF 6
ENDMDL
MODEL 10
REMARK VINA RESULT:      -7.1     18.688     20.417
REMARK  6 active torsions:
REMARK  status: ('A' for Active; 'I' for Inactive)
REMARK    1  A    between atoms: C_2  and  O_3 
REMARK    2  A    between atoms: O_3  and  C_4 
REMARK    3  A    between atoms: C_7  and  C_8 
REMARK       I    between atoms: N_11  and  C_12 
REMARK       I    between atoms: C_12  and  N_13 
REMARK    4  A    between atoms: N_13  and  C_14 
REMARK    5  A    between atoms: C_14  and  C_15 
REMARK    6  A    between atoms: C_15  and  C_16 
ROOT
HETATM    1  C   UNL     1      41.906 -31.332   1.855  1.00  0.00    -0.049 C 
HETATM    2  C   UNL     1      42.151 -29.881   1.541  1.00  0.00     0.059 C 
HETATM    3  C   UNL     1      43.522 -29.675   0.897  1.00  0.00     0.132 C 
HETATM    4  N   UNL     1      43.753 -30.602  -0.213  1.00  0.00    -0.331 N 
HETATM    5  C   UNL     1      44.624 -30.336  -1.265  1.00  0.00     0.318 C 
HETATM    6  N   UNL     1      44.984 -29.028  -1.412  1.00  0.00    -0.338 N 
HETATM    7  O   UNL     1      45.085 -31.220  -1.984  1.00  0.00    -0.247 OA
HETATM    8  C   UNL     1      43.557 -32.021   0.069  1.00  0.00     0.155 C 
HETATM    9  C   UNL     1      42.567 -32.283   1.168  1.00  0.00     0.001 C 
HETATM   10  H   UNL     1      44.313 -28.317  -1.145  1.00  0.00     0.164 HD
ENDROOT
BRANCH   6  11
HETATM   11  C   UNL     1      45.942 -28.570  -2.411  1.00  0.00     0.087 C 
HETATM   12  C   UNL     1      45.249 -27.785  -3.527  1.00  0.00     0.032 C 
BRANCH  11  13
HETATM   13  C   UNL     1      47.078 -27.769  -1.746  1.00  0.00     0.085 C 
BRANCH  13  14
HETATM   14  C   UNL     1      47.914 -28.538  -0.766  1.00  0.00     0.058 A 
HETATM   15  N   UNL     1      47.651 -28.509   0.550  1.00  0.00    -0.179 NA
HETATM   16  N   UNL     1      48.576 -29.324   1.085  1.00  0.00    -0.282 N 
HETATM   17  H   UNL     1      48.572 -29.462   2.091  1.00  0.00     0.189 HD
HETATM   18  C   UNL     1      49.418 -29.878   0.163  1.00  0.00     0.026 A 
HETATM   19  C   UNL     1      50.497 -30.821   0.530  1.00  0.00     0.070 C 
HETATM   20  C   UNL     1      49.012 -29.381  -1.055  1.00  0.00     0.055 A 
ENDBRANCH  13  14
ENDBRANCH  11  13
ENDBRANCH   6  11
BRANCH   1  21
HETATM   21  C   UNL     1      40.989 -31.684   2.957  1.00  0.00    -0.030 A 
HETATM   22  C   UNL     1      41.132 -31.099   4.222  1.00  0.00     0.014 A 
HETATM   23  C   UNL     1      40.259 -31.420   5.270  1.00  0.00     0.037 A 
HETATM   24  C   UNL     1      39.228 -32.336   5.069  1.00  0.00     0.068 A 
HETATM   25  C   UNL     1      39.088 -32.933   3.815  1.00  0.00     0.037 A 
HETATM   26  C   UNL     1      39.956 -32.608   2.767  1.00  0.00     0.014 A 
BRANCH  24  27
HETATM   27  O   UNL     1      38.313 -32.733   6.004  1.00  0.00    -0.352 OA
BRANCH  27  28
HETATM   28  C   UNL     1      37.903 -34.100   5.965  1.00  0.00     0.171 C 
HETATM   29  C   UNL     1      36.386 -34.135   5.932  1.00  0.00     0.034 C 
ENDBRANCH  27  28
ENDBRANCH  24  27
ENDBRANCH   1  21
TORSDOF 6
ENDMDL
