MODEL 1
REMARK VINA RESULT:      -9.3      0.000      0.000
REMARK  6 active torsions:
REMARK  status: ('A' for Active; 'I' for Inactive)
REMARK    1  A    between atoms: C_2  and  O_3 
REMARK    2  A    between atoms: O_3  and  C_4 
REMARK    3  A    between atoms: C_4  and  C_5 
REMARK    4  A    between atoms: C_10  and  N_11 
REMARK       I    between atoms: N_11  and  C_12 
REMARK    5  A    between atoms: C_12  and  C_13 
REMARK    6  A    between atoms: C_13  and  N_14 
ROOT
HETATM    1  N   UNL     1      42.604 -15.699   3.106  1.00  0.00    -0.322 N 
HETATM    2  C   UNL     1      41.293 -15.452   2.759  1.00  0.00     0.253 C 
HETATM    3  O   UNL     1      40.303 -15.966   3.273  1.00  0.00    -0.271 OA
HETATM    4  H   UNL     1      43.278 -14.935   3.051  1.00  0.00     0.169 HD
ENDROOT
BRANCH   2   5
HETATM    5  C   UNL     1      41.139 -14.371   1.665  1.00  0.00     0.275 C 
HETATM    6  C   UNL     1      40.171 -14.839   0.591  1.00  0.00     0.050 C 
BRANCH   5   7
HETATM    7  N   UNL     1      40.753 -12.976   2.234  1.00  0.00    -0.058 N 
HETATM    8  H   UNL     1      41.093 -13.088   3.201  1.00  0.00     0.281 HD
HETATM    9  C   UNL     1      41.602 -11.839   1.702  1.00  0.00     0.246 C 
HETATM   10  C   UNL     1      40.819 -10.713   1.014  1.00  0.00     0.062 C 
HETATM   11  C   UNL     1      39.662 -10.300   1.909  1.00  0.00     0.020 C 
HETATM   12  C   UNL     1      40.362 -11.121  -0.376  1.00  0.00     0.020 A 
HETATM   13  C   UNL     1      38.676 -11.453   1.934  1.00  0.00     0.031 C 
HETATM   14  C   UNL     1      38.107 -11.656   0.530  1.00  0.00     0.138 C 
HETATM   15  C   UNL     1      39.270 -12.748   2.494  1.00  0.00     0.242 C 
HETATM   16  N   UNL     1      39.093 -11.677  -0.542  1.00  0.00    -0.317 N 
HETATM   17  C   UNL     1      38.614 -12.097  -1.792  1.00  0.00     0.247 A 
HETATM   18  O   UNL     1      37.501 -12.581  -1.974  1.00  0.00    -0.268 OA
HETATM   19  C   UNL     1      39.541 -11.946  -2.938  1.00  0.00     0.074 A 
HETATM   20  C   UNL     1      40.748 -11.399  -2.753  1.00  0.00     0.007 A 
HETATM   21  C   UNL     1      41.168 -10.972  -1.443  1.00  0.00     0.026 A 
ENDBRANCH   5   7
ENDBRANCH   2   5
BRANCH   1  22
HETATM   22  C   UNL     1      43.035 -16.777   3.871  1.00  0.00     0.080 A 
HETATM   23  C   UNL     1      43.378 -16.624   5.205  1.00  0.00     0.137 A 
HETATM   24  N   UNL     1      43.789 -17.854   5.660  1.00  0.00    -0.349 N 
HETATM   25  H   UNL     1      44.089 -18.041   6.608  1.00  0.00     0.166 HD
HETATM   26  C   UNL     1      43.769 -18.781   4.644  1.00  0.00     0.045 A 
HETATM   27  C   UNL     1      43.280 -18.137   3.504  1.00  0.00     0.023 A 
HETATM   28  C   UNL     1      44.160 -20.127   4.657  1.00  0.00     0.033 A 
HETATM   29  C   UNL     1      43.201 -18.882   2.309  1.00  0.00     0.058 A 
HETATM   30  C   UNL     1      43.593 -20.221   2.312  1.00  0.00     0.117 A 
HETATM   31  C   UNL     1      44.064 -20.840   3.460  1.00  0.00     0.044 A 
HETATM   32  F   UNL     1      43.523 -20.920   1.172  1.00  0.00    -0.206 F 
BRANCH  23  33
HETATM   33  C   UNL     1      43.286 -15.433   6.013  1.00  0.00     0.312 C 
HETATM   34  O   UNL     1      44.261 -14.831   6.451  1.00  0.00    -0.258 OA
BRANCH  33  35
HETATM   35  O   UNL     1      41.984 -15.077   6.174  1.00  0.00    -0.317 OA
BRANCH  35  36
HETATM   36  C   UNL     1      41.693 -13.680   6.011  1.00  0.00     0.175 C 
HETATM   37  C   UNL     1      40.191 -13.457   6.008  1.00  0.00     0.034 C 
ENDBRANCH  35  36
ENDBRANCH  33  35
ENDBRANCH  23  33
ENDBRANCH   1  22
TORSDOF 6
ENDMDL
MODEL 2
REMARK VINA RESULT:      -8.6      2.677      7.573
REMARK  6 active torsions:
REMARK  status: ('A' for Active; 'I' for Inactive)
REMARK    1  A    between atoms: C_2  and  O_3 
REMARK    2  A    between atoms: O_3  and  C_4 
REMARK    3  A    between atoms: C_4  and  C_5 
REMARK    4  A    between atoms: C_10  and  N_11 
REMARK       I    between atoms: N_11  and  C_12 
REMARK    5  A    between atoms: C_12  and  C_13 
REMARK    6  A    between atoms: C_13  and  N_14 
ROOT
HETATM    1  N   UNL     1      41.709 -11.877   1.986  1.00  0.00    -0.322 N 
HETATM    2  C   UNL     1      42.540 -12.804   2.580  1.00  0.00     0.253 C 
HETATM    3  O   UNL     1      43.148 -13.700   2.001  1.00  0.00    -0.271 OA
HETATM    4  H   UNL     1      41.678 -10.931   2.368  1.00  0.00     0.169 HD
ENDROOT
BRANCH   2   5
HETATM    5  C   UNL     1      42.721 -12.584   4.099  1.00  0.00     0.275 C 
HETATM    6  C   UNL     1      42.862 -11.102   4.406  1.00  0.00     0.050 C 
BRANCH   5   7
HETATM    7  N   UNL     1      41.608 -13.257   4.952  1.00  0.00    -0.058 N 
HETATM    8  H   UNL     1      41.091 -12.415   5.248  1.00  0.00     0.281 HD
HETATM    9  C   UNL     1      40.584 -14.019   4.136  1.00  0.00     0.246 C 
HETATM   10  C   UNL     1      40.433 -15.500   4.506  1.00  0.00     0.062 C 
HETATM   11  C   UNL     1      40.283 -15.617   6.014  1.00  0.00     0.020 C 
HETATM   12  C   UNL     1      41.587 -16.329   3.970  1.00  0.00     0.020 A 
HETATM   13  C   UNL     1      41.615 -15.232   6.631  1.00  0.00     0.031 C 
HETATM   14  C   UNL     1      42.676 -16.246   6.206  1.00  0.00     0.138 C 
HETATM   15  C   UNL     1      42.042 -13.798   6.308  1.00  0.00     0.242 C 
HETATM   16  N   UNL     1      42.695 -16.564   4.784  1.00  0.00    -0.317 N 
HETATM   17  C   UNL     1      43.805 -17.302   4.348  1.00  0.00     0.247 A 
HETATM   18  O   UNL     1      44.791 -17.534   5.041  1.00  0.00    -0.268 OA
HETATM   19  C   UNL     1      43.758 -17.803   2.954  1.00  0.00     0.074 A 
HETATM   20  C   UNL     1      42.679 -17.573   2.199  1.00  0.00     0.007 A 
HETATM   21  C   UNL     1      41.564 -16.823   2.718  1.00  0.00     0.026 A 
ENDBRANCH   5   7
ENDBRANCH   2   5
BRANCH   1  22
HETATM   22  C   UNL     1      41.187 -11.985   0.702  1.00  0.00     0.080 A 
HETATM   23  C   UNL     1      41.155 -10.898  -0.158  1.00  0.00     0.137 A 
HETATM   24  N   UNL     1      40.555 -11.321  -1.319  1.00  0.00    -0.349 N 
HETATM   25  H   UNL     1      40.407 -10.735  -2.132  1.00  0.00     0.166 HD
HETATM   26  C   UNL     1      40.154 -12.632  -1.213  1.00  0.00     0.045 A 
HETATM   27  C   UNL     1      40.555 -13.087   0.047  1.00  0.00     0.023 A 
HETATM   28  C   UNL     1      39.460 -13.430  -2.132  1.00  0.00     0.033 A 
HETATM   29  C   UNL     1      40.220 -14.409   0.407  1.00  0.00     0.058 A 
HETATM   30  C   UNL     1      39.524 -15.208  -0.500  1.00  0.00     0.117 A 
HETATM   31  C   UNL     1      39.147 -14.736  -1.748  1.00  0.00     0.044 A 
HETATM   32  F   UNL     1      39.201 -16.459  -0.148  1.00  0.00    -0.206 F 
BRANCH  23  33
HETATM   33  C   UNL     1      41.686  -9.576   0.064  1.00  0.00     0.312 C 
HETATM   34  O   UNL     1      41.263  -8.808   0.922  1.00  0.00    -0.258 OA
BRANCH  33  35
HETATM   35  O   UNL     1      42.724  -9.342  -0.782  1.00  0.00    -0.317 OA
BRANCH  35  36
HETATM   36  C   UNL     1      42.733  -8.054  -1.418  1.00  0.00     0.175 C 
HETATM   37  C   UNL     1      41.800  -8.057  -2.616  1.00  0.00     0.034 C 
ENDBRANCH  35  36
ENDBRANCH  33  35
ENDBRANCH  23  33
ENDBRANCH   1  22
TORSDOF 6
ENDMDL
MODEL 3
REMARK VINA RESULT:      -8.4      1.742      2.999
REMARK  6 active torsions:
REMARK  status: ('A' for Active; 'I' for Inactive)
REMARK    1  A    between atoms: C_2  and  O_3 
REMARK    2  A    between atoms: O_3  and  C_4 
REMARK    3  A    between atoms: C_4  and  C_5 
REMARK    4  A    between atoms: C_10  and  N_11 
REMARK       I    between atoms: N_11  and  C_12 
REMARK    5  A    between atoms: C_12  and  C_13 
REMARK    6  A    between atoms: C_13  and  N_14 
ROOT
HETATM    1  N   UNL     1      41.396 -14.103   2.584  1.00  0.00    -0.322 N 
HETATM    2  C   UNL     1      40.140 -14.448   2.132  1.00  0.00     0.253 C 
HETATM    3  O   UNL     1      39.420 -15.323   2.606  1.00  0.00    -0.271 OA
HETATM    4  H   UNL     1      41.685 -13.126   2.532  1.00  0.00     0.169 HD
ENDROOT
BRANCH   2   5
HETATM    5  C   UNL     1      39.639 -13.562   0.969  1.00  0.00     0.275 C 
HETATM    6  C   UNL     1      39.317 -12.163   1.470  1.00  0.00     0.050 C 
BRANCH   5   7
HETATM    7  N   UNL     1      40.609 -13.541  -0.246  1.00  0.00    -0.058 N 
HETATM    8  H   UNL     1      41.403 -14.058   0.163  1.00  0.00     0.281 HD
HETATM    9  C   UNL     1      40.176 -14.429  -1.394  1.00  0.00     0.246 C 
HETATM   10  C   UNL     1      40.003 -13.711  -2.739  1.00  0.00     0.062 C 
HETATM   11  C   UNL     1      41.232 -12.857  -3.002  1.00  0.00     0.020 C 
HETATM   12  C   UNL     1      38.716 -12.906  -2.778  1.00  0.00     0.020 A 
HETATM   13  C   UNL     1      41.221 -11.725  -1.993  1.00  0.00     0.031 C 
HETATM   14  C   UNL     1      39.999 -10.842  -2.244  1.00  0.00     0.138 C 
HETATM   15  C   UNL     1      41.281 -12.205  -0.541  1.00  0.00     0.242 C 
HETATM   16  N   UNL     1      38.743 -11.557  -2.421  1.00  0.00    -0.317 N 
HETATM   17  C   UNL     1      37.589 -10.759  -2.413  1.00  0.00     0.247 A 
HETATM   18  O   UNL     1      37.580  -9.569  -2.112  1.00  0.00    -0.268 OA
HETATM   19  C   UNL     1      36.320 -11.430  -2.781  1.00  0.00     0.074 A 
HETATM   20  C   UNL     1      36.324 -12.720  -3.131  1.00  0.00     0.007 A 
HETATM   21  C   UNL     1      37.550 -13.476  -3.135  1.00  0.00     0.026 A 
ENDBRANCH   5   7
ENDBRANCH   2   5
BRANCH   1  22
HETATM   22  C   UNL     1      42.173 -14.876   3.439  1.00  0.00     0.080 A 
HETATM   23  C   UNL     1      42.680 -14.358   4.620  1.00  0.00     0.137 A 
HETATM   24  N   UNL     1      43.424 -15.352   5.210  1.00  0.00    -0.349 N 
HETATM   25  H   UNL     1      43.905 -15.256   6.096  1.00  0.00     0.166 HD
HETATM   26  C   UNL     1      43.452 -16.476   4.419  1.00  0.00     0.045 A 
HETATM   27  C   UNL     1      42.656 -16.215   3.299  1.00  0.00     0.023 A 
HETATM   28  C   UNL     1      44.132 -17.686   4.611  1.00  0.00     0.033 A 
HETATM   29  C   UNL     1      42.558 -17.217   2.312  1.00  0.00     0.058 A 
HETATM   30  C   UNL     1      43.236 -18.423   2.494  1.00  0.00     0.117 A 
HETATM   31  C   UNL     1      44.010 -18.661   3.620  1.00  0.00     0.044 A 
HETATM   32  F   UNL     1      43.146 -19.367   1.549  1.00  0.00    -0.206 F 
BRANCH  23  33
HETATM   33  C   UNL     1      42.453 -13.051   5.185  1.00  0.00     0.312 C 
HETATM   34  O   UNL     1      42.870 -12.012   4.684  1.00  0.00    -0.258 OA
BRANCH  33  35
HETATM   35  O   UNL     1      41.692 -13.153   6.306  1.00  0.00    -0.317 OA
BRANCH  35  36
HETATM   36  C   UNL     1      40.352 -13.634   6.112  1.00  0.00     0.175 C 
HETATM   37  C   UNL     1      39.488 -12.541   5.509  1.00  0.00     0.034 C 
ENDBRANCH  35  36
ENDBRANCH  33  35
ENDBRANCH  23  33
ENDBRANCH   1  22
TORSDOF 6
ENDMDL
MODEL 4
REMARK VINA RESULT:      -8.3      3.901      7.385
REMARK  6 active torsions:
REMARK  status: ('A' for Active; 'I' for Inactive)
REMARK    1  A    between atoms: C_2  and  O_3 
REMARK    2  A    between atoms: O_3  and  C_4 
REMARK    3  A    between atoms: C_4  and  C_5 
REMARK    4  A    between atoms: C_10  and  N_11 
REMARK       I    between atoms: N_11  and  C_12 
REMARK    5  A    between atoms: C_12  and  C_13 
REMARK    6  A    between atoms: C_13  and  N_14 
ROOT
HETATM    1  N   UNL     1      41.319 -11.731   5.196  1.00  0.00    -0.322 N 
HETATM    2  C   UNL     1      41.446 -11.280   3.899  1.00  0.00     0.253 C 
HETATM    3  O   UNL     1      42.210 -10.399   3.515  1.00  0.00    -0.271 OA
HETATM    4  H   UNL     1      41.113 -12.718   5.353  1.00  0.00     0.169 HD
ENDROOT
BRANCH   2   5
HETATM    5  C   UNL     1      40.564 -12.050   2.890  1.00  0.00     0.275 C 
HETATM    6  C   UNL     1      39.814 -11.078   1.994  1.00  0.00     0.050 C 
BRANCH   5   7
HETATM    7  N   UNL     1      41.353 -13.111   2.072  1.00  0.00    -0.058 N 
HETATM    8  H   UNL     1      41.443 -12.604   1.179  1.00  0.00     0.281 HD
HETATM    9  C   UNL     1      42.793 -13.283   2.514  1.00  0.00     0.246 C 
HETATM   10  C   UNL     1      43.177 -14.710   2.927  1.00  0.00     0.062 C 
HETATM   11  C   UNL     1      42.705 -15.677   1.854  1.00  0.00     0.020 C 
HETATM   12  C   UNL     1      42.635 -15.056   4.303  1.00  0.00     0.020 A 
HETATM   13  C   UNL     1      41.188 -15.693   1.897  1.00  0.00     0.031 C 
HETATM   14  C   UNL     1      40.731 -16.257   3.241  1.00  0.00     0.138 C 
HETATM   15  C   UNL     1      40.558 -14.327   1.614  1.00  0.00     0.242 C 
HETATM   16  N   UNL     1      41.400 -15.698   4.408  1.00  0.00    -0.317 N 
HETATM   17  C   UNL     1      40.829 -16.028   5.646  1.00  0.00     0.247 A 
HETATM   18  O   UNL     1      39.749 -16.599   5.773  1.00  0.00    -0.268 OA
HETATM   19  C   UNL     1      41.594 -15.636   6.852  1.00  0.00     0.074 A 
HETATM   20  C   UNL     1      42.781 -15.033   6.723  1.00  0.00     0.007 A 
HETATM   21  C   UNL     1      43.318 -14.740   5.419  1.00  0.00     0.026 A 
ENDBRANCH   5   7
ENDBRANCH   2   5
BRANCH   1  22
HETATM   22  C   UNL     1      41.802 -11.069   6.319  1.00  0.00     0.080 A 
HETATM   23  C   UNL     1      40.961 -10.342   7.145  1.00  0.00     0.137 A 
HETATM   24  N   UNL     1      41.743  -9.789   8.131  1.00  0.00    -0.349 N 
HETATM   25  H   UNL     1      41.390  -9.213   8.884  1.00  0.00     0.166 HD
HETATM   26  C   UNL     1      43.068 -10.098   7.933  1.00  0.00     0.045 A 
HETATM   27  C   UNL     1      43.139 -10.921   6.805  1.00  0.00     0.023 A 
HETATM   28  C   UNL     1      44.196  -9.696   8.661  1.00  0.00     0.033 A 
HETATM   29  C   UNL     1      44.413 -11.344   6.376  1.00  0.00     0.058 A 
HETATM   30  C   UNL     1      45.542 -10.945   7.092  1.00  0.00     0.117 A 
HETATM   31  C   UNL     1      45.444 -10.136   8.215  1.00  0.00     0.044 A 
HETATM   32  F   UNL     1      46.750 -11.343   6.674  1.00  0.00    -0.206 F 
BRANCH  23  33
HETATM   33  C   UNL     1      39.528 -10.207   7.055  1.00  0.00     0.312 C 
HETATM   34  O   UNL     1      38.740 -10.839   7.751  1.00  0.00    -0.258 OA
BRANCH  33  35
HETATM   35  O   UNL     1      39.205  -9.266   6.129  1.00  0.00    -0.317 OA
BRANCH  35  36
HETATM   36  C   UNL     1      38.298  -9.690   5.098  1.00  0.00     0.175 C 
HETATM   37  C   UNL     1      37.989  -8.532   4.166  1.00  0.00     0.034 C 
ENDBRANCH  35  36
ENDBRANCH  33  35
ENDBRANCH  23  33
ENDBRANCH   1  22
TORSDOF 6
ENDMDL
MODEL 5
REMARK VINA RESULT:      -8.2      1.748      2.721
REMARK  6 active torsions:
REMARK  status: ('A' for Active; 'I' for Inactive)
REMARK    1  A    between atoms: C_2  and  O_3 
REMARK    2  A    between atoms: O_3  and  C_4 
REMARK    3  A    between atoms: C_4  and  C_5 
REMARK    4  A    between atoms: C_10  and  N_11 
REMARK       I    between atoms: N_11  and  C_12 
REMARK    5  A    between atoms: C_12  and  C_13 
REMARK    6  A    between atoms: C_13  and  N_14 
ROOT
HETATM    1  N   UNL     1      42.003 -15.427   3.853  1.00  0.00    -0.322 N 
HETATM    2  C   UNL     1      42.537 -14.527   2.955  1.00  0.00     0.253 C 
HETATM    3  O   UNL     1      43.581 -14.673   2.324  1.00  0.00    -0.271 OA
HETATM    4  H   UNL     1      40.988 -15.511   3.917  1.00  0.00     0.169 HD
ENDROOT
BRANCH   2   5
HETATM    5  C   UNL     1      41.649 -13.282   2.728  1.00  0.00     0.275 C 
HETATM    6  C   UNL     1      42.506 -12.080   2.365  1.00  0.00     0.050 C 
BRANCH   5   7
HETATM    7  N   UNL     1      40.509 -13.523   1.699  1.00  0.00    -0.058 N 
HETATM    8  H   UNL     1      40.262 -14.494   1.945  1.00  0.00     0.281 HD
HETATM    9  C   UNL     1      39.236 -12.759   2.001  1.00  0.00     0.246 C 
HETATM   10  C   UNL     1      38.756 -11.831   0.878  1.00  0.00     0.062 C 
HETATM   11  C   UNL     1      38.758 -12.602  -0.432  1.00  0.00     0.020 C 
HETATM   12  C   UNL     1      39.588 -10.563   0.808  1.00  0.00     0.020 A 
HETATM   13  C   UNL     1      40.206 -12.874  -0.793  1.00  0.00     0.031 C 
HETATM   14  C   UNL     1      40.916 -11.546  -1.053  1.00  0.00     0.138 C 
HETATM   15  C   UNL     1      40.945 -13.714   0.252  1.00  0.00     0.242 C 
HETATM   16  N   UNL     1      40.687 -10.514  -0.051  1.00  0.00    -0.317 N 
HETATM   17  C   UNL     1      41.513  -9.385  -0.150  1.00  0.00     0.247 A 
HETATM   18  O   UNL     1      42.481  -9.306  -0.901  1.00  0.00    -0.268 OA
HETATM   19  C   UNL     1      41.177  -8.241   0.730  1.00  0.00     0.074 A 
HETATM   20  C   UNL     1      40.112  -8.310   1.536  1.00  0.00     0.007 A 
HETATM   21  C   UNL     1      39.294  -9.496   1.574  1.00  0.00     0.026 A 
ENDBRANCH   5   7
ENDBRANCH   2   5
BRANCH   1  22
HETATM   22  C   UNL     1      42.695 -16.493   4.416  1.00  0.00     0.080 A 
HETATM   23  C   UNL     1      43.224 -16.416   5.694  1.00  0.00     0.137 A 
HETATM   24  N   UNL     1      43.868 -17.606   5.936  1.00  0.00    -0.349 N 
HETATM   25  H   UNL     1      44.340 -17.834   6.802  1.00  0.00     0.166 HD
HETATM   26  C   UNL     1      43.811 -18.425   4.833  1.00  0.00     0.045 A 
HETATM   27  C   UNL     1      43.061 -17.759   3.859  1.00  0.00     0.023 A 
HETATM   28  C   UNL     1      44.379 -19.690   4.631  1.00  0.00     0.033 A 
HETATM   29  C   UNL     1      42.893 -18.391   2.610  1.00  0.00     0.058 A 
HETATM   30  C   UNL     1      43.459 -19.648   2.399  1.00  0.00     0.117 A 
HETATM   31  C   UNL     1      44.190 -20.293   3.386  1.00  0.00     0.044 A 
HETATM   32  F   UNL     1      43.303 -20.238   1.207  1.00  0.00    -0.206 F 
BRANCH  23  33
HETATM   33  C   UNL     1      43.102 -15.336   6.641  1.00  0.00     0.312 C 
HETATM   34  O   UNL     1      42.561 -15.448   7.735  1.00  0.00    -0.258 OA
BRANCH  33  35
HETATM   35  O   UNL     1      43.700 -14.217   6.152  1.00  0.00    -0.317 OA
BRANCH  35  36
HETATM   36  C   UNL     1      43.596 -13.043   6.973  1.00  0.00     0.175 C 
HETATM   37  C   UNL     1      42.807 -11.966   6.249  1.00  0.00     0.034 C 
ENDBRANCH  35  36
ENDBRANCH  33  35
ENDBRANCH  23  33
ENDBRANCH   1  22
TORSDOF 6
ENDMDL
MODEL 6
REMARK VINA RESULT:      -8.2      6.072      9.295
REMARK  6 active torsions:
REMARK  status: ('A' for Active; 'I' for Inactive)
REMARK    1  A    between atoms: C_2  and  O_3 
REMARK    2  A    between atoms: O_3  and  C_4 
REMARK    3  A    between atoms: C_4  and  C_5 
REMARK    4  A    between atoms: C_10  and  N_11 
REMARK       I    between atoms: N_11  and  C_12 
REMARK    5  A    between atoms: C_12  and  C_13 
REMARK    6  A    between atoms: C_13  and  N_14 
ROOT
HETATM    1  N   UNL     1      41.911 -10.033   8.615  1.00  0.00    -0.322 N 
HETATM    2  C   UNL     1      41.107  -9.402   7.690  1.00  0.00     0.253 C 
HETATM    3  O   UNL     1      40.930  -8.191   7.597  1.00  0.00    -0.271 OA
HETATM    4  H   UNL     1      42.408 -10.880   8.336  1.00  0.00     0.169 HD
ENDROOT
BRANCH   2   5
HETATM    5  C   UNL     1      40.461 -10.371   6.673  1.00  0.00     0.275 C 
HETATM    6  C   UNL     1      39.001 -10.009   6.451  1.00  0.00     0.050 C 
BRANCH   5   7
HETATM    7  N   UNL     1      41.250 -10.472   5.337  1.00  0.00    -0.058 N 
HETATM    8  H   UNL     1      41.211  -9.484   5.043  1.00  0.00     0.281 HD
HETATM    9  C   UNL     1      42.734 -10.718   5.516  1.00  0.00     0.246 C 
HETATM   10  C   UNL     1      43.270 -11.976   4.820  1.00  0.00     0.062 C 
HETATM   11  C   UNL     1      42.775 -11.991   3.383  1.00  0.00     0.020 C 
HETATM   12  C   UNL     1      42.894 -13.236   5.578  1.00  0.00     0.020 A 
HETATM   13  C   UNL     1      41.276 -12.221   3.424  1.00  0.00     0.031 C 
HETATM   14  C   UNL     1      40.998 -13.605   4.009  1.00  0.00     0.138 C 
HETATM   15  C   UNL     1      40.514 -11.127   4.175  1.00  0.00     0.242 C 
HETATM   16  N   UNL     1      41.730 -13.922   5.228  1.00  0.00    -0.317 N 
HETATM   17  C   UNL     1      41.310 -15.080   5.899  1.00  0.00     0.247 A 
HETATM   18  O   UNL     1      40.297 -15.711   5.610  1.00  0.00    -0.268 OA
HETATM   19  C   UNL     1      42.155 -15.531   7.029  1.00  0.00     0.074 A 
HETATM   20  C   UNL     1      43.271 -14.862   7.337  1.00  0.00     0.007 A 
HETATM   21  C   UNL     1      43.654 -13.690   6.592  1.00  0.00     0.026 A 
ENDBRANCH   5   7
ENDBRANCH   2   5
BRANCH   1  22
HETATM   22  C   UNL     1      42.408  -9.442   9.771  1.00  0.00     0.080 A 
HETATM   23  C   UNL     1      43.621  -8.771   9.774  1.00  0.00     0.137 A 
HETATM   24  N   UNL     1      43.840  -8.340  11.061  1.00  0.00    -0.349 N 
HETATM   25  H   UNL     1      44.650  -7.809  11.355  1.00  0.00     0.166 HD
HETATM   26  C   UNL     1      42.829  -8.757  11.894  1.00  0.00     0.045 A 
HETATM   27  C   UNL     1      41.898  -9.442  11.107  1.00  0.00     0.023 A 
HETATM   28  C   UNL     1      42.686  -8.588  13.277  1.00  0.00     0.033 A 
HETATM   29  C   UNL     1      40.776 -10.003  11.750  1.00  0.00     0.058 A 
HETATM   30  C   UNL     1      40.629  -9.843  13.129  1.00  0.00     0.117 A 
HETATM   31  C   UNL     1      41.562  -9.149  13.885  1.00  0.00     0.044 A 
HETATM   32  F   UNL     1      39.566 -10.386  13.735  1.00  0.00    -0.206 F 
BRANCH  23  33
HETATM   33  C   UNL     1      44.492  -8.509   8.656  1.00  0.00     0.312 C 
HETATM   34  O   UNL     1      45.063  -7.438   8.474  1.00  0.00    -0.258 OA
BRANCH  33  35
HETATM   35  O   UNL     1      44.604  -9.619   7.880  1.00  0.00    -0.317 OA
BRANCH  35  36
HETATM   36  C   UNL     1      45.717 -10.478   8.174  1.00  0.00     0.175 C 
HETATM   37  C   UNL     1      46.266 -11.079   6.891  1.00  0.00     0.034 C 
ENDBRANCH  35  36
ENDBRANCH  33  35
ENDBRANCH  23  33
ENDBRANCH   1  22
TORSDOF 6
ENDMDL
MODEL 7
REMARK VINA RESULT:      -8.2      1.824      2.683
REMARK  6 active torsions:
REMARK  status: ('A' for Active; 'I' for Inactive)
REMARK    1  A    between atoms: C_2  and  O_3 
REMARK    2  A    between atoms: O_3  and  C_4 
REMARK    3  A    between atoms: C_4  and  C_5 
REMARK    4  A    between atoms: C_10  and  N_11 
REMARK       I    between atoms: N_11  and  C_12 
REMARK    5  A    between atoms: C_12  and  C_13 
REMARK    6  A    between atoms: C_13  and  N_14 
ROOT
HETATM    1  N   UNL     1      41.618 -14.094   2.093  1.00  0.00    -0.322 N 
HETATM    2  C   UNL     1      40.380 -14.388   1.562  1.00  0.00     0.253 C 
HETATM    3  O   UNL     1      39.542 -15.135   2.059  1.00  0.00    -0.271 OA
HETATM    4  H   UNL     1      42.000 -13.158   1.957  1.00  0.00     0.169 HD
ENDROOT
BRANCH   2   5
HETATM    5  C   UNL     1      40.071 -13.616   0.259  1.00  0.00     0.275 C 
HETATM    6  C   UNL     1      40.031 -14.569  -0.925  1.00  0.00     0.050 C 
BRANCH   5   7
HETATM    7  N   UNL     1      38.786 -12.745   0.354  1.00  0.00    -0.058 N 
HETATM    8  H   UNL     1      38.179 -13.396   0.875  1.00  0.00     0.281 HD
HETATM    9  C   UNL     1      38.911 -11.564   1.296  1.00  0.00     0.246 C 
HETATM   10  C   UNL     1      38.639 -10.196   0.658  1.00  0.00     0.062 C 
HETATM   11  C   UNL     1      37.340 -10.268  -0.127  1.00  0.00     0.020 C 
HETATM   12  C   UNL     1      39.809  -9.736  -0.193  1.00  0.00     0.020 A 
HETATM   13  C   UNL     1      37.584 -11.172  -1.321  1.00  0.00     0.031 C 
HETATM   14  C   UNL     1      38.625 -10.526  -2.234  1.00  0.00     0.138 C 
HETATM   15  C   UNL     1      37.982 -12.598  -0.932  1.00  0.00     0.242 C 
HETATM   16  N   UNL     1      39.813 -10.018  -1.560  1.00  0.00    -0.317 N 
HETATM   17  C   UNL     1      40.869  -9.643  -2.402  1.00  0.00     0.247 A 
HETATM   18  O   UNL     1      40.899  -9.869  -3.608  1.00  0.00    -0.268 OA
HETATM   19  C   UNL     1      42.010  -8.948  -1.760  1.00  0.00     0.074 A 
HETATM   20  C   UNL     1      41.976  -8.679  -0.451  1.00  0.00     0.007 A 
HETATM   21  C   UNL     1      40.848  -9.076   0.352  1.00  0.00     0.026 A 
ENDBRANCH   5   7
ENDBRANCH   2   5
BRANCH   1  22
HETATM   22  C   UNL     1      42.239 -14.815   3.106  1.00  0.00     0.080 A 
HETATM   23  C   UNL     1      42.572 -14.223   4.315  1.00  0.00     0.137 A 
HETATM   24  N   UNL     1      43.196 -15.183   5.076  1.00  0.00    -0.349 N 
HETATM   25  H   UNL     1      43.539 -15.032   6.016  1.00  0.00     0.166 HD
HETATM   26  C   UNL     1      43.320 -16.358   4.373  1.00  0.00     0.045 A 
HETATM   27  C   UNL     1      42.709 -16.166   3.130  1.00  0.00     0.023 A 
HETATM   28  C   UNL     1      43.937 -17.560   4.746  1.00  0.00     0.033 A 
HETATM   29  C   UNL     1      42.741 -17.232   2.208  1.00  0.00     0.058 A 
HETATM   30  C   UNL     1      43.358 -18.430   2.570  1.00  0.00     0.117 A 
HETATM   31  C   UNL     1      43.947 -18.599   3.814  1.00  0.00     0.044 A 
HETATM   32  F   UNL     1      43.392 -19.435   1.686  1.00  0.00    -0.206 F 
BRANCH  23  33
HETATM   33  C   UNL     1      42.289 -12.878   4.751  1.00  0.00     0.312 C 
HETATM   34  O   UNL     1      42.539 -11.880   4.083  1.00  0.00    -0.258 OA
BRANCH  33  35
HETATM   35  O   UNL     1      41.684 -12.899   5.968  1.00  0.00    -0.317 OA
BRANCH  35  36
HETATM   36  C   UNL     1      40.326 -13.366   5.983  1.00  0.00     0.175 C 
HETATM   37  C   UNL     1      39.384 -12.242   5.588  1.00  0.00     0.034 C 
ENDBRANCH  35  36
ENDBRANCH  33  35
ENDBRANCH  23  33
ENDBRANCH   1  22
TORSDOF 6
ENDMDL
MODEL 8
REMARK VINA RESULT:      -8.0      2.995      7.345
REMARK  6 active torsions:
REMARK  status: ('A' for Active; 'I' for Inactive)
REMARK    1  A    between atoms: C_2  and  O_3 
REMARK    2  A    between atoms: O_3  and  C_4 
REMARK    3  A    between atoms: C_4  and  C_5 
REMARK    4  A    between atoms: C_10  and  N_11 
REMARK       I    between atoms: N_11  and  C_12 
REMARK    5  A    between atoms: C_12  and  C_13 
REMARK    6  A    between atoms: C_13  and  N_14 
ROOT
HETATM    1  N   UNL     1      41.101 -13.831   1.205  1.00  0.00    -0.322 N 
HETATM    2  C   UNL     1      41.074 -15.089   1.769  1.00  0.00     0.253 C 
HETATM    3  O   UNL     1      40.204 -15.937   1.596  1.00  0.00    -0.271 OA
HETATM    4  H   UNL     1      42.003 -13.425   0.956  1.00  0.00     0.169 HD
ENDROOT
BRANCH   2   5
HETATM    5  C   UNL     1      42.321 -15.405   2.627  1.00  0.00     0.275 C 
HETATM    6  C   UNL     1      43.131 -14.142   2.869  1.00  0.00     0.050 C 
BRANCH   5   7
HETATM    7  N   UNL     1      41.980 -16.146   3.951  1.00  0.00    -0.058 N 
HETATM    8  H   UNL     1      41.868 -17.104   3.585  1.00  0.00     0.281 HD
HETATM    9  C   UNL     1      43.153 -16.278   4.902  1.00  0.00     0.246 C 
HETATM   10  C   UNL     1      42.927 -15.681   6.296  1.00  0.00     0.062 C 
HETATM   11  C   UNL     1      41.593 -16.175   6.833  1.00  0.00     0.020 C 
HETATM   12  C   UNL     1      43.020 -14.165   6.274  1.00  0.00     0.020 A 
HETATM   13  C   UNL     1      40.504 -15.535   5.993  1.00  0.00     0.031 C 
HETATM   14  C   UNL     1      40.536 -14.022   6.198  1.00  0.00     0.138 C 
HETATM   15  C   UNL     1      40.584 -15.906   4.510  1.00  0.00     0.242 C 
HETATM   16  N   UNL     1      41.857 -13.412   6.109  1.00  0.00    -0.317 N 
HETATM   17  C   UNL     1      41.870 -12.010   6.058  1.00  0.00     0.247 A 
HETATM   18  O   UNL     1      40.865 -11.318   5.922  1.00  0.00    -0.268 OA
HETATM   19  C   UNL     1      43.197 -11.359   6.161  1.00  0.00     0.074 A 
HETATM   20  C   UNL     1      44.295 -12.104   6.330  1.00  0.00     0.007 A 
HETATM   21  C   UNL     1      44.206 -13.540   6.394  1.00  0.00     0.026 A 
ENDBRANCH   5   7
ENDBRANCH   2   5
BRANCH   1  22
HETATM   22  C   UNL     1      40.016 -13.209   0.600  1.00  0.00     0.080 A 
HETATM   23  C   UNL     1      39.323 -12.189   1.232  1.00  0.00     0.137 A 
HETATM   24  N   UNL     1      38.299 -11.816   0.395  1.00  0.00    -0.349 N 
HETATM   25  H   UNL     1      37.634 -11.081   0.598  1.00  0.00     0.166 HD
HETATM   26  C   UNL     1      38.281 -12.601  -0.734  1.00  0.00     0.045 A 
HETATM   27  C   UNL     1      39.365 -13.480  -0.645  1.00  0.00     0.023 A 
HETATM   28  C   UNL     1      37.381 -12.600  -1.807  1.00  0.00     0.033 A 
HETATM   29  C   UNL     1      39.537 -14.421  -1.681  1.00  0.00     0.058 A 
HETATM   30  C   UNL     1      38.643 -14.430  -2.751  1.00  0.00     0.117 A 
HETATM   31  C   UNL     1      37.582 -13.539  -2.821  1.00  0.00     0.044 A 
HETATM   32  F   UNL     1      38.807 -15.331  -3.728  1.00  0.00    -0.206 F 
BRANCH  23  33
HETATM   33  C   UNL     1      39.618 -11.571   2.502  1.00  0.00     0.312 C 
HETATM   34  O   UNL     1      38.805 -11.471   3.415  1.00  0.00    -0.258 OA
BRANCH  33  35
HETATM   35  O   UNL     1      40.915 -11.165   2.533  1.00  0.00    -0.317 OA
BRANCH  35  36
HETATM   36  C   UNL     1      41.235 -10.033   1.708  1.00  0.00     0.175 C 
HETATM   37  C   UNL     1      40.555  -8.786   2.244  1.00  0.00     0.034 C 
ENDBRANCH  35  36
ENDBRANCH  33  35
ENDBRANCH  23  33
ENDBRANCH   1  22
TORSDOF 6
ENDMDL
MODEL 9
REMARK VINA RESULT:      -8.0      2.557      3.619
REMARK  6 active torsions:
REMARK  status: ('A' for Active; 'I' for Inactive)
REMARK    1  A    between atoms: C_2  and  O_3 
REMARK    2  A    between atoms: O_3  and  C_4 
REMARK    3  A    between atoms: C_4  and  C_5 
REMARK    4  A    between atoms: C_10  and  N_11 
REMARK       I    between atoms: N_11  and  C_12 
REMARK    5  A    between atoms: C_12  and  C_13 
REMARK    6  A    between atoms: C_13  and  N_14 
ROOT
HETATM    1  N   UNL     1      42.058 -12.907   3.871  1.00  0.00    -0.322 N 
HETATM    2  C   UNL     1      40.699 -12.756   3.694  1.00  0.00     0.253 C 
HETATM    3  O   UNL     1      39.821 -13.319   4.342  1.00  0.00    -0.271 OA
HETATM    4  H   UNL     1      42.665 -12.102   3.715  1.00  0.00     0.169 HD
ENDROOT
BRANCH   2   5
HETATM    5  C   UNL     1      40.331 -11.716   2.610  1.00  0.00     0.275 C 
HETATM    6  C   UNL     1      41.510 -10.796   2.338  1.00  0.00     0.050 C 
BRANCH   5   7
HETATM    7  N   UNL     1      39.777 -12.360   1.307  1.00  0.00    -0.058 N 
HETATM    8  H   UNL     1      39.399 -13.236   1.700  1.00  0.00     0.281 HD
HETATM    9  C   UNL     1      38.546 -11.671   0.756  1.00  0.00     0.246 C 
HETATM   10  C   UNL     1      38.677 -11.165  -0.686  1.00  0.00     0.062 C 
HETATM   11  C   UNL     1      39.241 -12.282  -1.549  1.00  0.00     0.020 C 
HETATM   12  C   UNL     1      39.510  -9.898  -0.758  1.00  0.00     0.020 A 
HETATM   13  C   UNL     1      40.679 -12.504  -1.119  1.00  0.00     0.031 C 
HETATM   14  C   UNL     1      41.492 -11.247  -1.425  1.00  0.00     0.138 C 
HETATM   15  C   UNL     1      40.817 -12.923   0.346  1.00  0.00     0.242 C 
HETATM   16  N   UNL     1      40.881  -9.994  -1.002  1.00  0.00    -0.317 N 
HETATM   17  C   UNL     1      41.715  -8.868  -1.060  1.00  0.00     0.247 A 
HETATM   18  O   UNL     1      42.921  -8.917  -1.280  1.00  0.00    -0.268 OA
HETATM   19  C   UNL     1      41.069  -7.556  -0.821  1.00  0.00     0.074 A 
HETATM   20  C   UNL     1      39.751  -7.490  -0.601  1.00  0.00     0.007 A 
HETATM   21  C   UNL     1      38.951  -8.688  -0.574  1.00  0.00     0.026 A 
ENDBRANCH   5   7
ENDBRANCH   2   5
BRANCH   1  22
HETATM   22  C   UNL     1      42.656 -13.933   4.593  1.00  0.00     0.080 A 
HETATM   23  C   UNL     1      43.240 -13.702   5.828  1.00  0.00     0.137 A 
HETATM   24  N   UNL     1      43.764 -14.898   6.257  1.00  0.00    -0.349 N 
HETATM   25  H   UNL     1      44.243 -15.028   7.139  1.00  0.00     0.166 HD
HETATM   26  C   UNL     1      43.581 -15.878   5.311  1.00  0.00     0.045 A 
HETATM   27  C   UNL     1      42.867 -15.307   4.253  1.00  0.00     0.023 A 
HETATM   28  C   UNL     1      44.006 -17.213   5.316  1.00  0.00     0.033 A 
HETATM   29  C   UNL     1      42.585 -16.116   3.134  1.00  0.00     0.058 A 
HETATM   30  C   UNL     1      43.010 -17.445   3.128  1.00  0.00     0.117 A 
HETATM   31  C   UNL     1      43.707 -17.992   4.196  1.00  0.00     0.044 A 
HETATM   32  F   UNL     1      42.747 -18.206   2.058  1.00  0.00    -0.206 F 
BRANCH  23  33
HETATM   33  C   UNL     1      43.267 -12.471   6.579  1.00  0.00     0.312 C 
HETATM   34  O   UNL     1      42.456 -11.564   6.428  1.00  0.00    -0.258 OA
BRANCH  33  35
HETATM   35  O   UNL     1      44.285 -12.497   7.480  1.00  0.00    -0.317 OA
BRANCH  35  36
HETATM   36  C   UNL     1      44.642 -11.230   8.056  1.00  0.00     0.175 C 
HETATM   37  C   UNL     1      45.940 -10.727   7.449  1.00  0.00     0.034 C 
ENDBRANCH  35  36
ENDBRANCH  33  35
ENDBRANCH  23  33
ENDBRANCH   1  22
TORSDOF 6
ENDMDL
MODEL 10
REMARK VINA RESULT:      -7.9      1.746      2.930
REMARK  6 active torsions:
REMARK  status: ('A' for Active; 'I' for Inactive)
REMARK    1  A    between atoms: C_2  and  O_3 
REMARK    2  A    between atoms: O_3  and  C_4 
REMARK    3  A    between atoms: C_4  and  C_5 
REMARK    4  A    between atoms: C_10  and  N_11 
REMARK       I    between atoms: N_11  and  C_12 
REMARK    5  A    between atoms: C_12  and  C_13 
REMARK    6  A    between atoms: C_13  and  N_14 
ROOT
HETATM    1  N   UNL     1      41.653 -14.863   3.020  1.00  0.00    -0.322 N 
HETATM    2  C   UNL     1      42.211 -14.029   2.075  1.00  0.00     0.253 C 
HETATM    3  O   UNL     1      43.343 -14.126   1.608  1.00  0.00    -0.271 OA
HETATM    4  H   UNL     1      40.653 -15.062   2.969  1.00  0.00     0.169 HD
ENDROOT
BRANCH   2   5
HETATM    5  C   UNL     1      41.239 -12.943   1.560  1.00  0.00     0.275 C 
HETATM    6  C   UNL     1      41.709 -11.563   1.992  1.00  0.00     0.050 C 
BRANCH   5   7
HETATM    7  N   UNL     1      40.986 -13.024   0.028  1.00  0.00    -0.058 N 
HETATM    8  H   UNL     1      41.562 -13.850  -0.194  1.00  0.00     0.281 HD
HETATM    9  C   UNL     1      39.587 -13.471  -0.342  1.00  0.00     0.246 C 
HETATM   10  C   UNL     1      38.809 -12.493  -1.232  1.00  0.00     0.062 C 
HETATM   11  C   UNL     1      39.692 -12.080  -2.398  1.00  0.00     0.020 C 
HETATM   12  C   UNL     1      38.299 -11.303  -0.438  1.00  0.00     0.020 A 
HETATM   13  C   UNL     1      40.815 -11.229  -1.835  1.00  0.00     0.031 C 
HETATM   14  C   UNL     1      40.226  -9.949  -1.244  1.00  0.00     0.138 C 
HETATM   15  C   UNL     1      41.688 -11.971  -0.820  1.00  0.00     0.242 C 
HETATM   16  N   UNL     1      39.070 -10.141  -0.378  1.00  0.00    -0.317 N 
HETATM   17  C   UNL     1      38.672  -9.012   0.353  1.00  0.00     0.247 A 
HETATM   18  O   UNL     1      39.322  -7.973   0.420  1.00  0.00    -0.268 OA
HETATM   19  C   UNL     1      37.391  -9.122   1.091  1.00  0.00     0.074 A 
HETATM   20  C   UNL     1      36.666 -10.242   1.007  1.00  0.00     0.007 A 
HETATM   21  C   UNL     1      37.126 -11.358   0.220  1.00  0.00     0.026 A 
ENDBRANCH   5   7
ENDBRANCH   2   5
BRANCH   1  22
HETATM   22  C   UNL     1      42.365 -15.754   3.815  1.00  0.00     0.080 A 
HETATM   23  C   UNL     1      42.811 -15.398   5.078  1.00  0.00     0.137 A 
HETATM   24  N   UNL     1      43.502 -16.474   5.580  1.00  0.00    -0.349 N 
HETATM   25  H   UNL     1      43.932 -16.500   6.496  1.00  0.00     0.166 HD
HETATM   26  C   UNL     1      43.558 -17.492   4.657  1.00  0.00     0.045 A 
HETATM   27  C   UNL     1      42.834 -17.076   3.536  1.00  0.00     0.023 A 
HETATM   28  C   UNL     1      44.206 -18.732   4.735  1.00  0.00     0.033 A 
HETATM   29  C   UNL     1      42.777 -17.946   2.428  1.00  0.00     0.058 A 
HETATM   30  C   UNL     1      43.424 -19.180   2.495  1.00  0.00     0.117 A 
HETATM   31  C   UNL     1      44.127 -19.574   3.624  1.00  0.00     0.044 A 
HETATM   32  F   UNL     1      43.373 -19.998   1.436  1.00  0.00    -0.206 F 
BRANCH  23  33
HETATM   33  C   UNL     1      42.572 -14.166   5.788  1.00  0.00     0.312 C 
HETATM   34  O   UNL     1      43.464 -13.469   6.260  1.00  0.00    -0.258 OA
BRANCH  33  35
HETATM   35  O   UNL     1      41.241 -13.892   5.813  1.00  0.00    -0.317 OA
BRANCH  35  36
HETATM   36  C   UNL     1      40.883 -12.510   5.649  1.00  0.00     0.175 C 
HETATM   37  C   UNL     1      39.504 -12.399   5.023  1.00  0.00     0.034 C 
ENDBRANCH  35  36
ENDBRANCH  33  35
ENDBRANCH  23  33
ENDBRANCH   1  22
TORSDOF 6
ENDMDL
