MODEL 1
REMARK VINA RESULT:      -7.5      0.000      0.000
REMARK  3 active torsions:
REMARK  status: ('A' for Active; 'I' for Inactive)
REMARK    1  A    between atoms: C_2  and  C_3 
REMARK    2  A    between atoms: C_9  and  C_10 
REMARK    3  A    between atoms: C_21  and  N_22 
ROOT
HETATM    1  C   UNL     1      43.385 -14.811   6.258  1.00  0.00     0.066 A 
HETATM    2  N   UNL     1      43.028 -14.758   7.552  1.00  0.00    -0.177 NA
HETATM    3  N   UNL     1      42.967 -16.045   7.938  1.00  0.00    -0.256 N 
HETATM    4  H   UNL     1      42.719 -16.259   8.899  1.00  0.00     0.191 HD
HETATM    5  C   UNL     1      43.262 -16.907   6.933  1.00  0.00     0.175 A 
HETATM    6  C   UNL     1      43.537 -16.152   5.820  1.00  0.00     0.035 A 
HETATM    7  C   UNL     1      43.935 -16.830   4.553  1.00  0.00     0.104 A 
HETATM    8  C   UNL     1      43.855 -18.348   4.716  1.00  0.00     0.067 A 
HETATM    9  C   UNL     1      44.069 -19.183   3.464  1.00  0.00     0.020 C 
HETATM   10  N   UNL     1      44.245 -19.876   2.425  1.00  0.00    -0.096 N 
HETATM   11  C   UNL     1      43.552 -18.963   5.891  1.00  0.00     0.139 A 
HETATM   12  O   UNL     1      43.271 -18.230   7.056  1.00  0.00    -0.279 OA
ENDROOT
BRANCH   7  13
HETATM   13  C   UNL     1      43.024 -16.293   3.457  1.00  0.00    -0.043 A 
HETATM   14  C   UNL     1      41.629 -16.362   3.630  1.00  0.00     0.033 A 
HETATM   15  C   UNL     1      40.755 -15.861   2.656  1.00  0.00     0.056 A 
HETATM   16 CL   UNL     1      39.059 -16.005   2.952  1.00  0.00    -0.083 Cl
HETATM   17  C   UNL     1      41.268 -15.273   1.497  1.00  0.00     0.055 A 
HETATM   18 CL   UNL     1      40.254 -14.636   0.252  1.00  0.00    -0.083 Cl
HETATM   19  C   UNL     1      42.651 -15.190   1.317  1.00  0.00     0.026 A 
HETATM   20  C   UNL     1      43.522 -15.693   2.288  1.00  0.00     0.010 A 
ENDBRANCH   7  13
BRANCH  11  21
HETATM   21  N   UNL     1      43.464 -20.322   6.083  1.00  0.00    -0.282 NA
HETATM   22  H   UNL     1      43.735 -20.665   7.001  1.00  0.00     0.126 HD
HETATM   23  H   UNL     1      43.882 -20.849   5.320  1.00  0.00     0.126 HD
ENDBRANCH  11  21
BRANCH   1  24
HETATM   24  C   UNL     1      43.563 -13.537   5.497  1.00  0.00     0.057 C 
HETATM   25  C   UNL     1      42.246 -12.980   4.983  1.00  0.00     0.011 C 
ENDBRANCH   1  24
TORSDOF 3
ENDMDL
MODEL 2
REMARK VINA RESULT:      -7.2      1.732      4.128
REMARK  3 active torsions:
REMARK  status: ('A' for Active; 'I' for Inactive)
REMARK    1  A    between atoms: C_2  and  C_3 
REMARK    2  A    between atoms: C_9  and  C_10 
REMARK    3  A    between atoms: C_21  and  N_22 
ROOT
HETATM    1  C   UNL     1      43.526 -18.138   3.521  1.00  0.00     0.066 A 
HETATM    2  N   UNL     1      44.705 -18.665   3.892  1.00  0.00    -0.177 NA
HETATM    3  N   UNL     1      44.957 -18.117   5.095  1.00  0.00    -0.256 N 
HETATM    4  H   UNL     1      45.806 -18.377   5.584  1.00  0.00     0.191 HD
HETATM    5  C   UNL     1      43.986 -17.257   5.491  1.00  0.00     0.175 A 
HETATM    6  C   UNL     1      43.036 -17.234   4.500  1.00  0.00     0.035 A 
HETATM    7  C   UNL     1      41.814 -16.396   4.672  1.00  0.00     0.104 A 
HETATM    8  C   UNL     1      41.907 -15.583   5.964  1.00  0.00     0.067 A 
HETATM    9  C   UNL     1      40.817 -14.552   6.203  1.00  0.00     0.020 C 
HETATM   10  N   UNL     1      39.913 -13.695   6.401  1.00  0.00    -0.096 N 
HETATM   11  C   UNL     1      42.928 -15.703   6.855  1.00  0.00     0.139 A 
HETATM   12  O   UNL     1      43.998 -16.587   6.638  1.00  0.00    -0.279 OA
ENDROOT
BRANCH   7  13
HETATM   13  C   UNL     1      41.690 -15.532   3.425  1.00  0.00    -0.043 A 
HETATM   14  C   UNL     1      40.764 -15.893   2.428  1.00  0.00     0.033 A 
HETATM   15  C   UNL     1      40.603 -15.115   1.275  1.00  0.00     0.056 A 
HETATM   16 CL   UNL     1      39.454 -15.650   0.102  1.00  0.00    -0.083 Cl
HETATM   17  C   UNL     1      41.362 -13.954   1.108  1.00  0.00     0.055 A 
HETATM   18 CL   UNL     1      41.220 -12.945  -0.287  1.00  0.00    -0.083 Cl
HETATM   19  C   UNL     1      42.277 -13.578   2.093  1.00  0.00     0.026 A 
HETATM   20  C   UNL     1      42.439 -14.357   3.243  1.00  0.00     0.010 A 
ENDBRANCH   7  13
BRANCH  11  21
HETATM   21  N   UNL     1      43.056 -14.990   8.025  1.00  0.00    -0.282 NA
HETATM   22  H   UNL     1      43.515 -15.470   8.795  1.00  0.00     0.126 HD
HETATM   23  H   UNL     1      42.189 -14.533   8.297  1.00  0.00     0.126 HD
ENDBRANCH  11  21
BRANCH   1  24
HETATM   24  C   UNL     1      42.924 -18.542   2.215  1.00  0.00     0.057 C 
HETATM   25  C   UNL     1      43.138 -20.015   1.909  1.00  0.00     0.011 C 
ENDBRANCH   1  24
TORSDOF 3
ENDMDL
MODEL 3
REMARK VINA RESULT:      -6.7      3.842      5.736
REMARK  3 active torsions:
REMARK  status: ('A' for Active; 'I' for Inactive)
REMARK    1  A    between atoms: C_2  and  C_3 
REMARK    2  A    between atoms: C_9  and  C_10 
REMARK    3  A    between atoms: C_21  and  N_22 
ROOT
HETATM    1  C   UNL     1      43.516 -13.114   6.767  1.00  0.00     0.066 A 
HETATM    2  N   UNL     1      44.585 -12.382   7.126  1.00  0.00    -0.177 NA
HETATM    3  N   UNL     1      44.449 -11.229   6.446  1.00  0.00    -0.256 N 
HETATM    4  H   UNL     1      45.147 -10.503   6.565  1.00  0.00     0.191 HD
HETATM    5  C   UNL     1      43.341 -11.212   5.663  1.00  0.00     0.175 A 
HETATM    6  C   UNL     1      42.704 -12.416   5.835  1.00  0.00     0.035 A 
HETATM    7  C   UNL     1      41.420 -12.677   5.122  1.00  0.00     0.104 A 
HETATM    8  C   UNL     1      41.087 -11.512   4.189  1.00  0.00     0.067 A 
HETATM    9  C   UNL     1      39.895 -11.697   3.264  1.00  0.00     0.020 C 
HETATM   10  N   UNL     1      38.906 -11.851   2.497  1.00  0.00    -0.096 N 
HETATM   11  C   UNL     1      41.827 -10.374   4.114  1.00  0.00     0.139 A 
HETATM   12  O   UNL     1      42.981 -10.191   4.893  1.00  0.00    -0.279 OA
ENDROOT
BRANCH   7  13
HETATM   13  C   UNL     1      41.579 -14.005   4.396  1.00  0.00    -0.043 A 
HETATM   14  C   UNL     1      42.527 -14.113   3.361  1.00  0.00     0.033 A 
HETATM   15  C   UNL     1      42.719 -15.323   2.680  1.00  0.00     0.056 A 
HETATM   16 CL   UNL     1      43.895 -15.351   1.415  1.00  0.00    -0.083 Cl
HETATM   17  C   UNL     1      41.969 -16.447   3.034  1.00  0.00     0.055 A 
HETATM   18 CL   UNL     1      42.149 -17.970   2.241  1.00  0.00    -0.083 Cl
HETATM   19  C   UNL     1      41.032 -16.356   4.066  1.00  0.00     0.026 A 
HETATM   20  C   UNL     1      40.839 -15.148   4.743  1.00  0.00     0.010 A 
ENDBRANCH   7  13
BRANCH  11  21
HETATM   21  N   UNL     1      41.569  -9.305   3.287  1.00  0.00    -0.282 NA
HETATM   22  H   UNL     1      41.552  -8.389   3.728  1.00  0.00     0.126 HD
HETATM   23  H   UNL     1      40.770  -9.471   2.678  1.00  0.00     0.126 HD
ENDBRANCH  11  21
BRANCH   1  24
HETATM   24  C   UNL     1      43.334 -14.476   7.353  1.00  0.00     0.057 C 
HETATM   25  C   UNL     1      44.060 -15.550   6.561  1.00  0.00     0.011 C 
ENDBRANCH   1  24
TORSDOF 3
ENDMDL
MODEL 4
REMARK VINA RESULT:      -6.6     13.564     16.434
REMARK  3 active torsions:
REMARK  status: ('A' for Active; 'I' for Inactive)
REMARK    1  A    between atoms: C_2  and  C_3 
REMARK    2  A    between atoms: C_9  and  C_10 
REMARK    3  A    between atoms: C_21  and  N_22 
ROOT
HETATM    1  C   UNL     1      40.570  -8.100  13.845  1.00  0.00     0.066 A 
HETATM    2  N   UNL     1      39.810  -8.780  12.969  1.00  0.00    -0.177 NA
HETATM    3  N   UNL     1      38.657  -8.090  12.913  1.00  0.00    -0.256 N 
HETATM    4  H   UNL     1      37.919  -8.416  12.298  1.00  0.00     0.191 HD
HETATM    5  C   UNL     1      38.657  -7.006  13.728  1.00  0.00     0.175 A 
HETATM    6  C   UNL     1      39.877  -6.972  14.357  1.00  0.00     0.035 A 
HETATM    7  C   UNL     1      40.188  -5.858  15.299  1.00  0.00     0.104 A 
HETATM    8  C   UNL     1      38.964  -4.958  15.477  1.00  0.00     0.067 A 
HETATM    9  C   UNL     1      39.064  -3.871  16.534  1.00  0.00     0.020 C 
HETATM   10  N   UNL     1      39.145  -2.969  17.412  1.00  0.00    -0.096 N 
HETATM   11  C   UNL     1      37.804  -5.123  14.788  1.00  0.00     0.139 A 
HETATM   12  O   UNL     1      37.639  -6.162  13.856  1.00  0.00    -0.279 OA
ENDROOT
BRANCH   7  13
HETATM   13  C   UNL     1      40.662  -6.494  16.598  1.00  0.00    -0.043 A 
HETATM   14  C   UNL     1      39.743  -7.216  17.385  1.00  0.00     0.033 A 
HETATM   15  C   UNL     1      40.142  -7.834  18.577  1.00  0.00     0.056 A 
HETATM   16 CL   UNL     1      38.939  -8.683  19.479  1.00  0.00    -0.083 Cl
HETATM   17  C   UNL     1      41.472  -7.747  18.994  1.00  0.00     0.055 A 
HETATM   18 CL   UNL     1      42.038  -8.482  20.452  1.00  0.00    -0.083 Cl
HETATM   19  C   UNL     1      42.397  -7.043  18.219  1.00  0.00     0.026 A 
HETATM   20  C   UNL     1      41.997  -6.423  17.031  1.00  0.00     0.010 A 
ENDBRANCH   7  13
BRANCH  11  21
HETATM   21  N   UNL     1      36.678  -4.343  14.918  1.00  0.00    -0.282 NA
HETATM   22  H   UNL     1      36.834  -3.345  15.042  1.00  0.00     0.126 HD
HETATM   23  H   UNL     1      36.014  -4.730  15.585  1.00  0.00     0.126 HD
ENDBRANCH  11  21
BRANCH   1  24
HETATM   24  C   UNL     1      41.950  -8.585  14.146  1.00  0.00     0.057 C 
HETATM   25  C   UNL     1      43.023  -7.650  13.614  1.00  0.00     0.011 C 
ENDBRANCH   1  24
TORSDOF 3
ENDMDL
MODEL 5
REMARK VINA RESULT:      -6.6      3.726      6.070
REMARK  3 active torsions:
REMARK  status: ('A' for Active; 'I' for Inactive)
REMARK    1  A    between atoms: C_2  and  C_3 
REMARK    2  A    between atoms: C_9  and  C_10 
REMARK    3  A    between atoms: C_21  and  N_22 
ROOT
HETATM    1  C   UNL     1      40.620 -15.022   2.614  1.00  0.00     0.066 A 
HETATM    2  N   UNL     1      39.388 -14.678   2.201  1.00  0.00    -0.177 NA
HETATM    3  N   UNL     1      39.078 -13.592   2.930  1.00  0.00    -0.256 N 
HETATM    4  H   UNL     1      38.180 -13.141   2.784  1.00  0.00     0.191 HD
HETATM    5  C   UNL     1      40.063 -13.244   3.795  1.00  0.00     0.175 A 
HETATM    6  C   UNL     1      41.085 -14.146   3.629  1.00  0.00     0.035 A 
HETATM    7  C   UNL     1      42.335 -13.996   4.428  1.00  0.00     0.104 A 
HETATM    8  C   UNL     1      42.191 -12.846   5.426  1.00  0.00     0.067 A 
HETATM    9  C   UNL     1      43.317 -12.668   6.431  1.00  0.00     0.020 C 
HETATM   10  N   UNL     1      44.251 -12.521   7.266  1.00  0.00    -0.096 N 
HETATM   11  C   UNL     1      41.101 -12.035   5.485  1.00  0.00     0.139 A 
HETATM   12  O   UNL     1      40.003 -12.210   4.627  1.00  0.00    -0.279 OA
ENDROOT
BRANCH   7  13
HETATM   13  C   UNL     1      42.602 -15.339   5.092  1.00  0.00    -0.043 A 
HETATM   14  C   UNL     1      43.495 -16.242   4.483  1.00  0.00     0.033 A 
HETATM   15  C   UNL     1      43.784 -17.480   5.072  1.00  0.00     0.056 A 
HETATM   16 CL   UNL     1      44.880 -18.524   4.240  1.00  0.00    -0.083 Cl
HETATM   17  C   UNL     1      43.189 -17.829   6.286  1.00  0.00     0.055 A 
HETATM   18 CL   UNL     1      43.495 -19.337   7.070  1.00  0.00    -0.083 Cl
HETATM   19  C   UNL     1      42.308 -16.939   6.907  1.00  0.00     0.026 A 
HETATM   20  C   UNL     1      42.018 -15.705   6.317  1.00  0.00     0.010 A 
ENDBRANCH   7  13
BRANCH  11  21
HETATM   21  N   UNL     1      40.926 -10.994   6.367  1.00  0.00    -0.282 NA
HETATM   22  H   UNL     1      39.982 -10.857   6.720  1.00  0.00     0.126 HD
HETATM   23  H   UNL     1      41.360 -10.133   6.042  1.00  0.00     0.126 HD
ENDBRANCH  11  21
BRANCH   1  24
HETATM   24  C   UNL     1      41.295 -16.202   1.995  1.00  0.00     0.057 C 
HETATM   25  C   UNL     1      42.579 -15.825   1.275  1.00  0.00     0.011 C 
ENDBRANCH   1  24
TORSDOF 3
ENDMDL
MODEL 6
REMARK VINA RESULT:      -6.5      4.270      6.980
REMARK  3 active torsions:
REMARK  status: ('A' for Active; 'I' for Inactive)
REMARK    1  A    between atoms: C_2  and  C_3 
REMARK    2  A    between atoms: C_9  and  C_10 
REMARK    3  A    between atoms: C_21  and  N_22 
ROOT
HETATM    1  C   UNL     1      41.646 -14.426   1.519  1.00  0.00     0.066 A 
HETATM    2  N   UNL     1      40.848 -14.949   0.572  1.00  0.00    -0.177 NA
HETATM    3  N   UNL     1      39.759 -14.160   0.575  1.00  0.00    -0.256 N 
HETATM    4  H   UNL     1      39.006 -14.359  -0.076  1.00  0.00     0.191 HD
HETATM    5  C   UNL     1      39.836 -13.165   1.494  1.00  0.00     0.175 A 
HETATM    6  C   UNL     1      41.042 -13.299   2.135  1.00  0.00     0.035 A 
HETATM    7  C   UNL     1      41.430 -12.313   3.185  1.00  0.00     0.104 A 
HETATM    8  C   UNL     1      40.284 -11.333   3.440  1.00  0.00     0.067 A 
HETATM    9  C   UNL     1      40.456 -10.368   4.602  1.00  0.00     0.020 C 
HETATM   10  N   UNL     1      40.598  -9.567   5.566  1.00  0.00    -0.096 N 
HETATM   11  C   UNL     1      39.126 -11.329   2.727  1.00  0.00     0.139 A 
HETATM   12  O   UNL     1      38.891 -12.253   1.695  1.00  0.00    -0.279 OA
ENDROOT
BRANCH   7  13
HETATM   13  C   UNL     1      41.825 -13.113   4.419  1.00  0.00    -0.043 A 
HETATM   14  C   UNL     1      40.905 -14.026   4.969  1.00  0.00     0.033 A 
HETATM   15  C   UNL     1      41.236 -14.797   6.092  1.00  0.00     0.056 A 
HETATM   16 CL   UNL     1      40.035 -15.877   6.702  1.00  0.00    -0.083 Cl
HETATM   17  C   UNL     1      42.499 -14.671   6.674  1.00  0.00     0.055 A 
HETATM   18 CL   UNL     1      42.977 -15.585   8.060  1.00  0.00    -0.083 Cl
HETATM   19  C   UNL     1      43.424 -13.775   6.133  1.00  0.00     0.026 A 
HETATM   20  C   UNL     1      43.093 -13.004   5.015  1.00  0.00     0.010 A 
ENDBRANCH   7  13
BRANCH  11  21
HETATM   21  N   UNL     1      38.068 -10.472   2.924  1.00  0.00    -0.282 NA
HETATM   22  H   UNL     1      37.142 -10.851   2.742  1.00  0.00     0.126 HD
HETATM   23  H   UNL     1      38.221  -9.563   2.494  1.00  0.00     0.126 HD
ENDBRANCH  11  21
BRANCH   1  24
HETATM   24  C   UNL     1      42.975 -15.055   1.783  1.00  0.00     0.057 C 
HETATM   25  C   UNL     1      42.868 -16.283   2.673  1.00  0.00     0.011 C 
ENDBRANCH   1  24
TORSDOF 3
ENDMDL
MODEL 7
REMARK VINA RESULT:      -6.5      3.340      4.876
REMARK  3 active torsions:
REMARK  status: ('A' for Active; 'I' for Inactive)
REMARK    1  A    between atoms: C_2  and  C_3 
REMARK    2  A    between atoms: C_9  and  C_10 
REMARK    3  A    between atoms: C_21  and  N_22 
ROOT
HETATM    1  C   UNL     1      42.378 -14.857   6.784  1.00  0.00     0.066 A 
HETATM    2  N   UNL     1      43.123 -14.316   7.762  1.00  0.00    -0.177 NA
HETATM    3  N   UNL     1      43.605 -13.178   7.230  1.00  0.00    -0.256 N 
HETATM    4  H   UNL     1      44.201 -12.584   7.797  1.00  0.00     0.191 HD
HETATM    5  C   UNL     1      43.200 -12.988   5.949  1.00  0.00     0.175 A 
HETATM    6  C   UNL     1      42.403 -14.054   5.614  1.00  0.00     0.035 A 
HETATM    7  C   UNL     1      41.774 -14.105   4.262  1.00  0.00     0.104 A 
HETATM    8  C   UNL     1      42.252 -12.928   3.411  1.00  0.00     0.067 A 
HETATM    9  C   UNL     1      41.833 -12.927   1.950  1.00  0.00     0.020 C 
HETATM   10  N   UNL     1      41.486 -12.926   0.737  1.00  0.00    -0.096 N 
HETATM   11  C   UNL     1      43.062 -11.942   3.880  1.00  0.00     0.139 A 
HETATM   12  O   UNL     1      43.538 -11.943   5.202  1.00  0.00    -0.279 OA
ENDROOT
BRANCH   7  13
HETATM   13  C   UNL     1      42.118 -15.461   3.663  1.00  0.00    -0.043 A 
HETATM   14  C   UNL     1      43.239 -16.161   4.146  1.00  0.00     0.033 A 
HETATM   15  C   UNL     1      43.579 -17.421   3.637  1.00  0.00     0.056 A 
HETATM   16 CL   UNL     1      44.982 -18.194   4.284  1.00  0.00    -0.083 Cl
HETATM   17  C   UNL     1      42.792 -18.005   2.642  1.00  0.00     0.055 A 
HETATM   18 CL   UNL     1      43.149 -19.553   1.964  1.00  0.00    -0.083 Cl
HETATM   19  C   UNL     1      41.671 -17.326   2.160  1.00  0.00     0.026 A 
HETATM   20  C   UNL     1      41.334 -16.067   2.666  1.00  0.00     0.010 A 
ENDBRANCH   7  13
BRANCH  11  21
HETATM   21  N   UNL     1      43.521 -10.870   3.150  1.00  0.00    -0.282 NA
HETATM   22  H   UNL     1      43.230 -10.830   2.177  1.00  0.00     0.126 HD
HETATM   23  H   UNL     1      44.519 -10.714   3.276  1.00  0.00     0.126 HD
ENDBRANCH  11  21
BRANCH   1  24
HETATM   24  C   UNL     1      41.667 -16.147   7.036  1.00  0.00     0.057 C 
HETATM   25  C   UNL     1      40.196 -16.082   6.661  1.00  0.00     0.011 C 
ENDBRANCH   1  24
TORSDOF 3
ENDMDL
MODEL 8
REMARK VINA RESULT:      -6.4      1.847      2.593
REMARK  3 active torsions:
REMARK  status: ('A' for Active; 'I' for Inactive)
REMARK    1  A    between atoms: C_2  and  C_3 
REMARK    2  A    between atoms: C_9  and  C_10 
REMARK    3  A    between atoms: C_21  and  N_22 
ROOT
HETATM    1  C   UNL     1      43.515 -12.159   5.094  1.00  0.00     0.066 A 
HETATM    2  N   UNL     1      43.253 -11.380   6.158  1.00  0.00    -0.177 NA
HETATM    3  N   UNL     1      43.123 -12.241   7.183  1.00  0.00    -0.256 N 
HETATM    4  H   UNL     1      42.927 -11.875   8.109  1.00  0.00     0.191 HD
HETATM    5  C   UNL     1      43.283 -13.533   6.804  1.00  0.00     0.175 A 
HETATM    6  C   UNL     1      43.536 -13.531   5.455  1.00  0.00     0.035 A 
HETATM    7  C   UNL     1      43.794 -14.822   4.754  1.00  0.00     0.104 A 
HETATM    8  C   UNL     1      43.613 -15.994   5.719  1.00  0.00     0.067 A 
HETATM    9  C   UNL     1      43.677 -17.389   5.119  1.00  0.00     0.020 C 
HETATM   10  N   UNL     1      43.729 -18.547   4.621  1.00  0.00    -0.096 N 
HETATM   11  C   UNL     1      43.347 -15.843   7.044  1.00  0.00     0.139 A 
HETATM   12  O   UNL     1      43.202 -14.573   7.627  1.00  0.00    -0.279 OA
ENDROOT
BRANCH   7  13
HETATM   13  C   UNL     1      42.853 -14.874   3.559  1.00  0.00    -0.043 A 
HETATM   14  C   UNL     1      41.547 -14.364   3.690  1.00  0.00     0.033 A 
HETATM   15  C   UNL     1      40.655 -14.374   2.610  1.00  0.00     0.056 A 
HETATM   16 CL   UNL     1      39.070 -13.741   2.875  1.00  0.00    -0.083 Cl
HETATM   17  C   UNL     1      41.063 -14.886   1.376  1.00  0.00     0.055 A 
HETATM   18 CL   UNL     1      40.020 -14.932   0.000  1.00  0.00    -0.083 Cl
HETATM   19  C   UNL     1      42.359 -15.386   1.228  1.00  0.00     0.026 A 
HETATM   20  C   UNL     1      43.247 -15.379   2.308  1.00  0.00     0.010 A 
ENDBRANCH   7  13
BRANCH  11  21
HETATM   21  N   UNL     1      43.171 -16.866   7.946  1.00  0.00    -0.282 NA
HETATM   22  H   UNL     1      42.292 -17.374   7.883  1.00  0.00     0.126 HD
HETATM   23  H   UNL     1      43.406 -16.589   8.896  1.00  0.00     0.126 HD
ENDBRANCH  11  21
BRANCH   1  24
HETATM   24  C   UNL     1      43.735 -11.523   3.760  1.00  0.00     0.057 C 
HETATM   25  C   UNL     1      42.457 -10.946   3.175  1.00  0.00     0.011 C 
ENDBRANCH   1  24
TORSDOF 3
ENDMDL
MODEL 9
REMARK VINA RESULT:      -6.3     13.474     15.118
REMARK  3 active torsions:
REMARK  status: ('A' for Active; 'I' for Inactive)
REMARK    1  A    between atoms: C_2  and  C_3 
REMARK    2  A    between atoms: C_9  and  C_10 
REMARK    3  A    between atoms: C_21  and  N_22 
ROOT
HETATM    1  C   UNL     1      45.495 -29.586  -2.256  1.00  0.00     0.066 A 
HETATM    2  N   UNL     1      45.837 -28.550  -3.041  1.00  0.00    -0.177 NA
HETATM    3  N   UNL     1      46.589 -27.762  -2.252  1.00  0.00    -0.256 N 
HETATM    4  H   UNL     1      46.975 -26.906  -2.638  1.00  0.00     0.191 HD
HETATM    5  C   UNL     1      46.724 -28.256  -0.997  1.00  0.00     0.175 A 
HETATM    6  C   UNL     1      46.028 -29.438  -0.949  1.00  0.00     0.035 A 
HETATM    7  C   UNL     1      46.025 -30.239   0.309  1.00  0.00     0.104 A 
HETATM    8  C   UNL     1      46.763 -29.488   1.417  1.00  0.00     0.067 A 
HETATM    9  C   UNL     1      46.706 -30.094   2.810  1.00  0.00     0.020 C 
HETATM   10  N   UNL     1      46.658 -30.597   3.966  1.00  0.00    -0.096 N 
HETATM   11  C   UNL     1      47.403 -28.303   1.225  1.00  0.00     0.139 A 
HETATM   12  O   UNL     1      47.417 -27.667  -0.028  1.00  0.00    -0.279 OA
ENDROOT
BRANCH   7  13
HETATM   13  C   UNL     1      44.569 -30.531   0.646  1.00  0.00    -0.043 A 
HETATM   14  C   UNL     1      44.112 -31.862   0.626  1.00  0.00     0.033 A 
HETATM   15  C   UNL     1      42.786 -32.176   0.949  1.00  0.00     0.056 A 
HETATM   16 CL   UNL     1      42.317 -33.837   0.880  1.00  0.00    -0.083 Cl
HETATM   17  C   UNL     1      41.898 -31.159   1.308  1.00  0.00     0.055 A 
HETATM   18 CL   UNL     1      40.249 -31.468   1.718  1.00  0.00    -0.083 Cl
HETATM   19  C   UNL     1      42.340 -29.834   1.342  1.00  0.00     0.026 A 
HETATM   20  C   UNL     1      43.663 -29.522   1.016  1.00  0.00     0.010 A 
ENDBRANCH   7  13
BRANCH  11  21
HETATM   21  N   UNL     1      48.074 -27.591   2.191  1.00  0.00    -0.282 NA
HETATM   22  H   UNL     1      47.846 -27.816   3.156  1.00  0.00     0.126 HD
HETATM   23  H   UNL     1      48.076 -26.591   2.003  1.00  0.00     0.126 HD
ENDBRANCH  11  21
BRANCH   1  24
HETATM   24  C   UNL     1      44.654 -30.683  -2.821  1.00  0.00     0.057 C 
HETATM   25  C   UNL     1      44.021 -30.305  -4.150  1.00  0.00     0.011 C 
ENDBRANCH   1  24
TORSDOF 3
ENDMDL
MODEL 10
REMARK VINA RESULT:      -6.3      3.692      5.463
REMARK  3 active torsions:
REMARK  status: ('A' for Active; 'I' for Inactive)
REMARK    1  A    between atoms: C_2  and  C_3 
REMARK    2  A    between atoms: C_9  and  C_10 
REMARK    3  A    between atoms: C_21  and  N_22 
ROOT
HETATM    1  C   UNL     1      40.084 -13.778   1.743  1.00  0.00     0.066 A 
HETATM    2  N   UNL     1      40.416 -13.873   0.444  1.00  0.00    -0.177 NA
HETATM    3  N   UNL     1      41.323 -14.866   0.399  1.00  0.00    -0.256 N 
HETATM    4  H   UNL     1      41.719 -15.129  -0.497  1.00  0.00     0.191 HD
HETATM    5  C   UNL     1      41.582 -15.393   1.621  1.00  0.00     0.175 A 
HETATM    6  C   UNL     1      40.804 -14.717   2.527  1.00  0.00     0.035 A 
HETATM    7  C   UNL     1      40.846 -15.105   3.967  1.00  0.00     0.104 A 
HETATM    8  C   UNL     1      41.900 -16.190   4.192  1.00  0.00     0.067 A 
HETATM    9  C   UNL     1      42.185 -16.577   5.634  1.00  0.00     0.020 C 
HETATM   10  N   UNL     1      42.422 -16.898   6.830  1.00  0.00    -0.096 N 
HETATM   11  C   UNL     1      42.613 -16.765   3.187  1.00  0.00     0.139 A 
HETATM   12  O   UNL     1      42.438 -16.384   1.846  1.00  0.00    -0.279 OA
ENDROOT
BRANCH   7  13
HETATM   13  C   UNL     1      41.111 -13.834   4.762  1.00  0.00    -0.043 A 
HETATM   14  C   UNL     1      42.363 -13.201   4.649  1.00  0.00     0.033 A 
HETATM   15  C   UNL     1      42.641 -12.019   5.346  1.00  0.00     0.056 A 
HETATM   16 CL   UNL     1      44.212 -11.327   5.154  1.00  0.00    -0.083 Cl
HETATM   17  C   UNL     1      41.663 -11.446   6.161  1.00  0.00     0.055 A 
HETATM   18 CL   UNL     1      41.932  -9.991   7.053  1.00  0.00    -0.083 Cl
HETATM   19  C   UNL     1      40.412 -12.057   6.275  1.00  0.00     0.026 A 
HETATM   20  C   UNL     1      40.136 -13.239   5.581  1.00  0.00     0.010 A 
ENDBRANCH   7  13
BRANCH  11  21
HETATM   21  N   UNL     1      43.573 -17.738   3.343  1.00  0.00    -0.282 NA
HETATM   22  H   UNL     1      43.727 -18.349   2.545  1.00  0.00     0.126 HD
HETATM   23  H   UNL     1      43.474 -18.243   4.220  1.00  0.00     0.126 HD
ENDBRANCH  11  21
BRANCH   1  24
HETATM   24  C   UNL     1      39.070 -12.766   2.165  1.00  0.00     0.057 C 
HETATM   25  C   UNL     1      39.673 -11.383   2.348  1.00  0.00     0.011 C 
ENDBRANCH   1  24
TORSDOF 3
ENDMDL
