MODEL 1
REMARK VINA RESULT:      -9.4      0.000      0.000
REMARK  3 active torsions:
REMARK  status: ('A' for Active; 'I' for Inactive)
REMARK    1  A    between atoms: O_2  and  C_3 
REMARK    2  A    between atoms: C_4  and  N_5 
REMARK       I    between atoms: N_5  and  C_6 
REMARK       I    between atoms: C_6  and  N_7 
REMARK    3  A    between atoms: C_10  and  C_11 
ROOT
HETATM    1  N   UNL     1      39.143 -13.185   0.249  1.00  0.00    -0.306 N 
HETATM    2  C   UNL     1      40.433 -12.941   0.652  1.00  0.00     0.323 C 
HETATM    3  N   UNL     1      41.004 -13.934   1.455  1.00  0.00    -0.330 N 
HETATM    4  C   UNL     1      42.461 -13.878   1.538  1.00  0.00     0.155 C 
HETATM    5  C   UNL     1      43.074 -14.962   2.366  1.00  0.00     0.001 C 
HETATM    6  C   UNL     1      42.394 -15.841   3.122  1.00  0.00    -0.046 C 
HETATM    7  C   UNL     1      40.896 -15.765   3.161  1.00  0.00     0.059 C 
HETATM    8  C   UNL     1      40.334 -15.171   1.868  1.00  0.00     0.132 C 
HETATM    9  O   UNL     1      41.081 -11.949   0.324  1.00  0.00    -0.247 OA
HETATM   10  H   UNL     1      38.779 -14.119   0.356  1.00  0.00     0.171 HD
ENDROOT
BRANCH   1  11
HETATM   11  C   UNL     1      38.303 -12.364  -0.540  1.00  0.00     0.072 A 
HETATM   12  C   UNL     1      38.042 -12.808  -1.859  1.00  0.00     0.095 A 
HETATM   13  C   UNL     1      37.224 -12.046  -2.703  1.00  0.00     0.042 A 
HETATM   14  C   UNL     1      36.671 -10.851  -2.242  1.00  0.00     0.045 A 
HETATM   15  C   UNL     1      36.931 -10.428  -0.944  1.00  0.00     0.118 A 
HETATM   16  C   UNL     1      37.736 -11.172  -0.089  1.00  0.00     0.074 A 
HETATM   17  F   UNL     1      36.390  -9.281  -0.512  1.00  0.00    -0.206 F 
BRANCH  12  18
HETATM   18  O   UNL     1      38.641 -13.996  -2.210  1.00  0.00    -0.354 OA
HETATM   19  C   UNL     1      38.214 -14.601  -3.425  1.00  0.00     0.210 C 
ENDBRANCH  12  18
ENDBRANCH   1  11
BRANCH   6  20
HETATM   20  C   UNL     1      43.001 -16.915   3.854  1.00  0.00    -0.002 A 
HETATM   21  C   UNL     1      43.264 -18.263   3.445  1.00  0.00     0.003 A 
HETATM   22  C   UNL     1      43.900 -18.899   4.516  1.00  0.00     0.043 A 
HETATM   23  C   UNL     1      43.026 -19.021   2.277  1.00  0.00     0.014 A 
HETATM   24  C   UNL     1      44.321 -20.234   4.472  1.00  0.00     0.030 A 
HETATM   25  N   UNL     1      44.000 -17.981   5.535  1.00  0.00    -0.364 N 
HETATM   26  C   UNL     1      44.082 -20.953   3.298  1.00  0.00     0.002 A 
HETATM   27  C   UNL     1      43.441 -20.358   2.215  1.00  0.00     0.001 A 
HETATM   28  H   UNL     1      44.414 -18.170   6.437  1.00  0.00     0.165 HD
HETATM   29  C   UNL     1      43.463 -16.784   5.149  1.00  0.00     0.101 A 
ENDBRANCH   6  20
TORSDOF 3
ENDMDL
MODEL 2
REMARK VINA RESULT:      -8.8      5.496      7.399
REMARK  3 active torsions:
REMARK  status: ('A' for Active; 'I' for Inactive)
REMARK    1  A    between atoms: O_2  and  C_3 
REMARK    2  A    between atoms: C_4  and  N_5 
REMARK       I    between atoms: N_5  and  C_6 
REMARK       I    between atoms: C_6  and  N_7 
REMARK    3  A    between atoms: C_10  and  C_11 
ROOT
HETATM    1  N   UNL     1      42.883 -11.360   7.176  1.00  0.00    -0.306 N 
HETATM    2  C   UNL     1      42.908 -11.858   5.897  1.00  0.00     0.323 C 
HETATM    3  N   UNL     1      43.101 -13.240   5.799  1.00  0.00    -0.330 N 
HETATM    4  C   UNL     1      42.728 -13.810   4.507  1.00  0.00     0.155 C 
HETATM    5  C   UNL     1      42.897 -15.293   4.416  1.00  0.00     0.001 C 
HETATM    6  C   UNL     1      43.487 -16.067   5.343  1.00  0.00    -0.046 C 
HETATM    7  C   UNL     1      44.027 -15.429   6.589  1.00  0.00     0.059 C 
HETATM    8  C   UNL     1      43.263 -14.150   6.937  1.00  0.00     0.132 C 
HETATM    9  O   UNL     1      42.747 -11.173   4.888  1.00  0.00    -0.247 OA
HETATM   10  H   UNL     1      42.778 -12.012   7.938  1.00  0.00     0.171 HD
ENDROOT
BRANCH   1  11
HETATM   11  C   UNL     1      42.730 -10.015   7.589  1.00  0.00     0.072 A 
HETATM   12  C   UNL     1      43.876  -9.384   8.129  1.00  0.00     0.095 A 
HETATM   13  C   UNL     1      43.801  -8.056   8.564  1.00  0.00     0.042 A 
HETATM   14  C   UNL     1      42.597  -7.358   8.466  1.00  0.00     0.045 A 
HETATM   15  C   UNL     1      41.479  -7.987   7.930  1.00  0.00     0.118 A 
HETATM   16  C   UNL     1      41.534  -9.304   7.488  1.00  0.00     0.074 A 
HETATM   17  F   UNL     1      40.329  -7.305   7.837  1.00  0.00    -0.206 F 
BRANCH  12  18
HETATM   18  O   UNL     1      45.008 -10.165   8.183  1.00  0.00    -0.354 OA
HETATM   19  C   UNL     1      46.254  -9.513   7.965  1.00  0.00     0.210 C 
ENDBRANCH  12  18
ENDBRANCH   1  11
BRANCH   6  20
HETATM   20  C   UNL     1      43.578 -17.496   5.264  1.00  0.00    -0.002 A 
HETATM   21  C   UNL     1      43.599 -18.346   4.109  1.00  0.00     0.003 A 
HETATM   22  C   UNL     1      43.734 -19.659   4.571  1.00  0.00     0.043 A 
HETATM   23  C   UNL     1      43.512 -18.144   2.714  1.00  0.00     0.014 A 
HETATM   24  C   UNL     1      43.802 -20.767   3.715  1.00  0.00     0.030 A 
HETATM   25  N   UNL     1      43.773 -19.608   5.944  1.00  0.00    -0.364 N 
HETATM   26  C   UNL     1      43.727 -20.531   2.340  1.00  0.00     0.002 A 
HETATM   27  C   UNL     1      43.581 -19.240   1.844  1.00  0.00     0.001 A 
HETATM   28  H   UNL     1      43.860 -20.415   6.545  1.00  0.00     0.165 HD
HETATM   29  C   UNL     1      43.681 -18.312   6.372  1.00  0.00     0.101 A 
ENDBRANCH   6  20
TORSDOF 3
ENDMDL
MODEL 3
REMARK VINA RESULT:      -8.8      2.079      2.810
REMARK  3 active torsions:
REMARK  status: ('A' for Active; 'I' for Inactive)
REMARK    1  A    between atoms: O_2  and  C_3 
REMARK    2  A    between atoms: C_4  and  N_5 
REMARK       I    between atoms: N_5  and  C_6 
REMARK       I    between atoms: C_6  and  N_7 
REMARK    3  A    between atoms: C_10  and  C_11 
ROOT
HETATM    1  N   UNL     1      40.897 -11.893  -0.177  1.00  0.00    -0.306 N 
HETATM    2  C   UNL     1      40.386 -13.167  -0.136  1.00  0.00     0.323 C 
HETATM    3  N   UNL     1      41.060 -14.053   0.712  1.00  0.00    -0.330 N 
HETATM    4  C   UNL     1      40.298 -15.249   1.063  1.00  0.00     0.155 C 
HETATM    5  C   UNL     1      41.004 -16.176   2.000  1.00  0.00     0.001 C 
HETATM    6  C   UNL     1      42.284 -16.060   2.391  1.00  0.00    -0.046 C 
HETATM    7  C   UNL     1      43.105 -14.916   1.872  1.00  0.00     0.059 C 
HETATM    8  C   UNL     1      42.227 -13.711   1.531  1.00  0.00     0.132 C 
HETATM    9  O   UNL     1      39.392 -13.531  -0.761  1.00  0.00    -0.247 OA
HETATM   10  H   UNL     1      41.550 -11.619   0.541  1.00  0.00     0.171 HD
ENDROOT
BRANCH   1  11
HETATM   11  C   UNL     1      40.450 -10.795  -0.950  1.00  0.00     0.072 A 
HETATM   12  C   UNL     1      39.482  -9.953  -0.352  1.00  0.00     0.095 A 
HETATM   13  C   UNL     1      38.987  -8.849  -1.057  1.00  0.00     0.042 A 
HETATM   14  C   UNL     1      39.447  -8.585  -2.347  1.00  0.00     0.045 A 
HETATM   15  C   UNL     1      40.400  -9.417  -2.922  1.00  0.00     0.118 A 
HETATM   16  C   UNL     1      40.908 -10.515  -2.237  1.00  0.00     0.074 A 
HETATM   17  F   UNL     1      40.838  -9.150  -4.160  1.00  0.00    -0.206 F 
BRANCH  12  18
HETATM   18  O   UNL     1      39.096 -10.309   0.921  1.00  0.00    -0.354 OA
HETATM   19  C   UNL     1      37.761 -10.773   1.085  1.00  0.00     0.210 C 
ENDBRANCH  12  18
ENDBRANCH   1  11
BRANCH   6  20
HETATM   20  C   UNL     1      42.920 -16.924   3.343  1.00  0.00    -0.002 A 
HETATM   21  C   UNL     1      43.258 -18.313   3.231  1.00  0.00     0.003 A 
HETATM   22  C   UNL     1      43.893 -18.677   4.423  1.00  0.00     0.043 A 
HETATM   23  C   UNL     1      43.089 -19.309   2.244  1.00  0.00     0.014 A 
HETATM   24  C   UNL     1      44.377 -19.969   4.667  1.00  0.00     0.030 A 
HETATM   25  N   UNL     1      43.920 -17.563   5.228  1.00  0.00    -0.364 N 
HETATM   26  C   UNL     1      44.206 -20.927   3.665  1.00  0.00     0.002 A 
HETATM   27  C   UNL     1      43.569 -20.606   2.471  1.00  0.00     0.001 A 
HETATM   28  H   UNL     1      44.316 -17.538   6.156  1.00  0.00     0.165 HD
HETATM   29  C   UNL     1      43.338 -16.503   4.590  1.00  0.00     0.101 A 
ENDBRANCH   6  20
TORSDOF 3
ENDMDL
MODEL 4
REMARK VINA RESULT:      -8.5      5.743      7.153
REMARK  3 active torsions:
REMARK  status: ('A' for Active; 'I' for Inactive)
REMARK    1  A    between atoms: O_2  and  C_3 
REMARK    2  A    between atoms: C_4  and  N_5 
REMARK       I    between atoms: N_5  and  C_6 
REMARK       I    between atoms: C_6  and  N_7 
REMARK    3  A    between atoms: C_10  and  C_11 
ROOT
HETATM    1  N   UNL     1      42.915 -11.411   7.178  1.00  0.00    -0.306 N 
HETATM    2  C   UNL     1      43.007 -11.901   5.898  1.00  0.00     0.323 C 
HETATM    3  N   UNL     1      43.177 -13.287   5.801  1.00  0.00    -0.330 N 
HETATM    4  C   UNL     1      42.870 -13.840   4.485  1.00  0.00     0.155 C 
HETATM    5  C   UNL     1      43.014 -15.326   4.392  1.00  0.00     0.001 C 
HETATM    6  C   UNL     1      43.531 -16.117   5.347  1.00  0.00    -0.046 C 
HETATM    7  C   UNL     1      44.008 -15.499   6.628  1.00  0.00     0.059 C 
HETATM    8  C   UNL     1      43.251 -14.207   6.939  1.00  0.00     0.132 C 
HETATM    9  O   UNL     1      42.921 -11.206   4.887  1.00  0.00    -0.247 OA
HETATM   10  H   UNL     1      42.751 -12.066   7.927  1.00  0.00     0.171 HD
ENDROOT
BRANCH   1  11
HETATM   11  C   UNL     1      42.765 -10.066   7.591  1.00  0.00     0.072 A 
HETATM   12  C   UNL     1      41.459  -9.525   7.525  1.00  0.00     0.095 A 
HETATM   13  C   UNL     1      41.233  -8.199   7.912  1.00  0.00     0.042 A 
HETATM   14  C   UNL     1      42.296  -7.414   8.360  1.00  0.00     0.045 A 
HETATM   15  C   UNL     1      43.573  -7.958   8.424  1.00  0.00     0.118 A 
HETATM   16  C   UNL     1      43.818  -9.274   8.050  1.00  0.00     0.074 A 
HETATM   17  F   UNL     1      44.586  -7.195   8.861  1.00  0.00    -0.206 F 
BRANCH  12  18
HETATM   18  O   UNL     1      40.488 -10.385   7.065  1.00  0.00    -0.354 OA
HETATM   19  C   UNL     1      39.159  -9.881   6.997  1.00  0.00     0.210 C 
ENDBRANCH  12  18
ENDBRANCH   1  11
BRANCH   6  20
HETATM   20  C   UNL     1      43.597 -17.548   5.261  1.00  0.00    -0.002 A 
HETATM   21  C   UNL     1      43.626 -18.392   4.103  1.00  0.00     0.003 A 
HETATM   22  C   UNL     1      43.727 -19.710   4.560  1.00  0.00     0.043 A 
HETATM   23  C   UNL     1      43.572 -18.182   2.708  1.00  0.00     0.014 A 
HETATM   24  C   UNL     1      43.793 -20.814   3.701  1.00  0.00     0.030 A 
HETATM   25  N   UNL     1      43.738 -19.666   5.934  1.00  0.00    -0.364 N 
HETATM   26  C   UNL     1      43.750 -20.571   2.325  1.00  0.00     0.002 A 
HETATM   27  C   UNL     1      43.639 -19.274   1.833  1.00  0.00     0.001 A 
HETATM   28  H   UNL     1      43.798 -20.478   6.532  1.00  0.00     0.165 HD
HETATM   29  C   UNL     1      43.661 -18.371   6.368  1.00  0.00     0.101 A 
ENDBRANCH   6  20
TORSDOF 3
ENDMDL
MODEL 5
REMARK VINA RESULT:      -8.5      5.682      9.448
REMARK  3 active torsions:
REMARK  status: ('A' for Active; 'I' for Inactive)
REMARK    1  A    between atoms: O_2  and  C_3 
REMARK    2  A    between atoms: C_4  and  N_5 
REMARK       I    between atoms: N_5  and  C_6 
REMARK       I    between atoms: C_6  and  N_7 
REMARK    3  A    between atoms: C_10  and  C_11 
ROOT
HETATM    1  N   UNL     1      43.449 -17.088   4.330  1.00  0.00    -0.306 N 
HETATM    2  C   UNL     1      42.995 -15.994   3.637  1.00  0.00     0.323 C 
HETATM    3  N   UNL     1      42.931 -14.806   4.373  1.00  0.00    -0.330 N 
HETATM    4  C   UNL     1      42.846 -13.597   3.559  1.00  0.00     0.155 C 
HETATM    5  C   UNL     1      42.817 -12.325   4.346  1.00  0.00     0.001 C 
HETATM    6  C   UNL     1      42.711 -12.240   5.682  1.00  0.00    -0.046 C 
HETATM    7  C   UNL     1      42.618 -13.503   6.489  1.00  0.00     0.059 C 
HETATM    8  C   UNL     1      43.313 -14.667   5.782  1.00  0.00     0.132 C 
HETATM    9  O   UNL     1      42.686 -16.012   2.447  1.00  0.00    -0.247 OA
HETATM   10  H   UNL     1      43.906 -16.934   5.216  1.00  0.00     0.171 HD
ENDROOT
BRANCH   1  11
HETATM   11  C   UNL     1      43.600 -18.417   3.867  1.00  0.00     0.072 A 
HETATM   12  C   UNL     1      43.880 -19.401   4.845  1.00  0.00     0.095 A 
HETATM   13  C   UNL     1      44.048 -20.737   4.463  1.00  0.00     0.042 A 
HETATM   14  C   UNL     1      43.941 -21.095   3.119  1.00  0.00     0.045 A 
HETATM   15  C   UNL     1      43.662 -20.121   2.168  1.00  0.00     0.118 A 
HETATM   16  C   UNL     1      43.487 -18.789   2.527  1.00  0.00     0.074 A 
HETATM   17  F   UNL     1      43.557 -20.478   0.881  1.00  0.00    -0.206 F 
BRANCH  12  18
HETATM   18  O   UNL     1      43.969 -18.937   6.139  1.00  0.00    -0.354 OA
HETATM   19  C   UNL     1      43.227 -19.641   7.129  1.00  0.00     0.210 C 
ENDBRANCH  12  18
ENDBRANCH   1  11
BRANCH   6  20
HETATM   20  C   UNL     1      42.752 -11.011   6.420  1.00  0.00    -0.002 A 
HETATM   21  C   UNL     1      43.827 -10.435   7.174  1.00  0.00     0.003 A 
HETATM   22  C   UNL     1      43.368  -9.211   7.672  1.00  0.00     0.043 A 
HETATM   23  C   UNL     1      45.146 -10.824   7.497  1.00  0.00     0.014 A 
HETATM   24  C   UNL     1      44.159  -8.359   8.453  1.00  0.00     0.030 A 
HETATM   25  N   UNL     1      42.067  -9.062   7.253  1.00  0.00    -0.364 N 
HETATM   26  C   UNL     1      45.464  -8.767   8.743  1.00  0.00     0.002 A 
HETATM   27  C   UNL     1      45.952  -9.983   8.275  1.00  0.00     0.001 A 
HETATM   28  H   UNL     1      41.483  -8.268   7.473  1.00  0.00     0.165 HD
HETATM   29  C   UNL     1      41.685 -10.138   6.499  1.00  0.00     0.101 A 
ENDBRANCH   6  20
TORSDOF 3
ENDMDL
MODEL 6
REMARK VINA RESULT:      -8.2      3.437      9.561
REMARK  3 active torsions:
REMARK  status: ('A' for Active; 'I' for Inactive)
REMARK    1  A    between atoms: O_2  and  C_3 
REMARK    2  A    between atoms: C_4  and  N_5 
REMARK       I    between atoms: N_5  and  C_6 
REMARK       I    between atoms: C_6  and  N_7 
REMARK    3  A    between atoms: C_10  and  C_11 
ROOT
HETATM    1  N   UNL     1      41.936 -16.485   2.074  1.00  0.00    -0.306 N 
HETATM    2  C   UNL     1      42.347 -15.247   1.644  1.00  0.00     0.323 C 
HETATM    3  N   UNL     1      41.408 -14.536   0.889  1.00  0.00    -0.330 N 
HETATM    4  C   UNL     1      41.678 -13.104   0.786  1.00  0.00     0.155 C 
HETATM    5  C   UNL     1      40.653 -12.339   0.011  1.00  0.00     0.001 C 
HETATM    6  C   UNL     1      39.642 -12.881  -0.687  1.00  0.00    -0.046 C 
HETATM    7  C   UNL     1      39.490 -14.374  -0.713  1.00  0.00     0.059 C 
HETATM    8  C   UNL     1      40.064 -15.014   0.552  1.00  0.00     0.132 C 
HETATM    9  O   UNL     1      43.443 -14.755   1.909  1.00  0.00    -0.247 OA
HETATM   10  H   UNL     1      40.953 -16.704   2.022  1.00  0.00     0.171 HD
ENDROOT
BRANCH   1  11
HETATM   11  C   UNL     1      42.665 -17.435   2.828  1.00  0.00     0.072 A 
HETATM   12  C   UNL     1      42.874 -17.134   4.195  1.00  0.00     0.095 A 
HETATM   13  C   UNL     1      43.590 -18.024   5.004  1.00  0.00     0.042 A 
HETATM   14  C   UNL     1      44.098 -19.204   4.460  1.00  0.00     0.045 A 
HETATM   15  C   UNL     1      43.883 -19.491   3.117  1.00  0.00     0.118 A 
HETATM   16  C   UNL     1      43.170 -18.623   2.298  1.00  0.00     0.074 A 
HETATM   17  F   UNL     1      44.372 -20.630   2.607  1.00  0.00    -0.206 F 
BRANCH  12  18
HETATM   18  O   UNL     1      42.333 -15.943   4.625  1.00  0.00    -0.354 OA
HETATM   19  C   UNL     1      43.131 -15.150   5.496  1.00  0.00     0.210 C 
ENDBRANCH  12  18
ENDBRANCH   1  11
BRANCH   6  20
HETATM   20  C   UNL     1      38.632 -12.123  -1.368  1.00  0.00    -0.002 A 
HETATM   21  C   UNL     1      37.599 -11.288  -0.827  1.00  0.00     0.003 A 
HETATM   22  C   UNL     1      36.900 -10.748  -1.911  1.00  0.00     0.043 A 
HETATM   23  C   UNL     1      37.175 -10.933   0.472  1.00  0.00     0.014 A 
HETATM   24  C   UNL     1      35.820  -9.868  -1.763  1.00  0.00     0.030 A 
HETATM   25  N   UNL     1      37.471 -11.250  -3.057  1.00  0.00    -0.364 N 
HETATM   26  C   UNL     1      35.434  -9.526  -0.464  1.00  0.00     0.002 A 
HETATM   27  C   UNL     1      36.098 -10.052   0.640  1.00  0.00     0.001 A 
HETATM   28  H   UNL     1      37.162 -11.033  -3.993  1.00  0.00     0.165 HD
HETATM   29  C   UNL     1      38.514 -12.078  -2.742  1.00  0.00     0.101 A 
ENDBRANCH   6  20
TORSDOF 3
ENDMDL
MODEL 7
REMARK VINA RESULT:      -8.2      6.733      8.654
REMARK  3 active torsions:
REMARK  status: ('A' for Active; 'I' for Inactive)
REMARK    1  A    between atoms: O_2  and  C_3 
REMARK    2  A    between atoms: C_4  and  N_5 
REMARK       I    between atoms: N_5  and  C_6 
REMARK       I    between atoms: C_6  and  N_7 
REMARK    3  A    between atoms: C_10  and  C_11 
ROOT
HETATM    1  N   UNL     1      42.255 -10.086   8.085  1.00  0.00    -0.306 N 
HETATM    2  C   UNL     1      41.496 -10.135   6.942  1.00  0.00     0.323 C 
HETATM    3  N   UNL     1      41.834 -11.155   6.045  1.00  0.00    -0.330 N 
HETATM    4  C   UNL     1      40.800 -11.457   5.060  1.00  0.00     0.155 C 
HETATM    5  C   UNL     1      41.146 -12.573   4.126  1.00  0.00     0.001 C 
HETATM    6  C   UNL     1      42.345 -13.173   4.043  1.00  0.00    -0.046 C 
HETATM    7  C   UNL     1      43.453 -12.720   4.949  1.00  0.00     0.059 C 
HETATM    8  C   UNL     1      42.903 -12.136   6.251  1.00  0.00     0.132 C 
HETATM    9  O   UNL     1      40.560  -9.374   6.704  1.00  0.00    -0.247 OA
HETATM   10  H   UNL     1      42.830 -10.884   8.309  1.00  0.00     0.171 HD
ENDROOT
BRANCH   1  11
HETATM   11  C   UNL     1      42.168  -9.163   9.155  1.00  0.00     0.072 A 
HETATM   12  C   UNL     1      43.145  -8.140   9.190  1.00  0.00     0.095 A 
HETATM   13  C   UNL     1      43.127  -7.193  10.221  1.00  0.00     0.042 A 
HETATM   14  C   UNL     1      42.147  -7.263  11.212  1.00  0.00     0.045 A 
HETATM   15  C   UNL     1      41.190  -8.269  11.164  1.00  0.00     0.118 A 
HETATM   16  C   UNL     1      41.188  -9.216  10.146  1.00  0.00     0.074 A 
HETATM   17  F   UNL     1      40.251  -8.323  12.119  1.00  0.00    -0.206 F 
BRANCH  12  18
HETATM   18  O   UNL     1      44.065  -8.169   8.167  1.00  0.00    -0.354 OA
HETATM   19  C   UNL     1      45.377  -8.617   8.491  1.00  0.00     0.210 C 
ENDBRANCH  12  18
ENDBRANCH   1  11
BRANCH   6  20
HETATM   20  C   UNL     1      42.634 -14.286   3.186  1.00  0.00    -0.002 A 
HETATM   21  C   UNL     1      43.015 -15.626   3.527  1.00  0.00     0.003 A 
HETATM   22  C   UNL     1      43.146 -16.332   2.327  1.00  0.00     0.043 A 
HETATM   23  C   UNL     1      43.271 -16.319   4.731  1.00  0.00     0.014 A 
HETATM   24  C   UNL     1      43.499 -17.687   2.272  1.00  0.00     0.030 A 
HETATM   25  N   UNL     1      42.875 -15.454   1.304  1.00  0.00    -0.364 N 
HETATM   26  C   UNL     1      43.732 -18.347   3.481  1.00  0.00     0.002 A 
HETATM   27  C   UNL     1      43.623 -17.675   4.695  1.00  0.00     0.001 A 
HETATM   28  H   UNL     1      42.901 -15.693   0.324  1.00  0.00     0.165 HD
HETATM   29  C   UNL     1      42.565 -14.221   1.808  1.00  0.00     0.101 A 
ENDBRANCH   6  20
TORSDOF 3
ENDMDL
MODEL 8
REMARK VINA RESULT:      -8.2      5.200      9.594
REMARK  3 active torsions:
REMARK  status: ('A' for Active; 'I' for Inactive)
REMARK    1  A    between atoms: O_2  and  C_3 
REMARK    2  A    between atoms: C_4  and  N_5 
REMARK       I    between atoms: N_5  and  C_6 
REMARK       I    between atoms: C_6  and  N_7 
REMARK    3  A    between atoms: C_10  and  C_11 
ROOT
HETATM    1  N   UNL     1      42.901 -16.321   3.497  1.00  0.00    -0.306 N 
HETATM    2  C   UNL     1      41.694 -15.774   3.857  1.00  0.00     0.323 C 
HETATM    3  N   UNL     1      41.652 -14.376   3.865  1.00  0.00    -0.330 N 
HETATM    4  C   UNL     1      40.304 -13.814   3.845  1.00  0.00     0.155 C 
HETATM    5  C   UNL     1      40.260 -12.319   3.815  1.00  0.00     0.001 C 
HETATM    6  C   UNL     1      41.321 -11.507   3.956  1.00  0.00    -0.046 C 
HETATM    7  C   UNL     1      42.680 -12.111   4.157  1.00  0.00     0.059 C 
HETATM    8  C   UNL     1      42.773 -13.498   3.518  1.00  0.00     0.132 C 
HETATM    9  O   UNL     1      40.693 -16.434   4.129  1.00  0.00    -0.247 OA
HETATM   10  H   UNL     1      43.583 -15.721   3.058  1.00  0.00     0.171 HD
ENDROOT
BRANCH   1  11
HETATM   11  C   UNL     1      43.254 -17.689   3.419  1.00  0.00     0.072 A 
HETATM   12  C   UNL     1      43.888 -18.245   4.556  1.00  0.00     0.095 A 
HETATM   13  C   UNL     1      44.271 -19.591   4.553  1.00  0.00     0.042 A 
HETATM   14  C   UNL     1      44.030 -20.380   3.428  1.00  0.00     0.045 A 
HETATM   15  C   UNL     1      43.403 -19.824   2.319  1.00  0.00     0.118 A 
HETATM   16  C   UNL     1      43.010 -18.491   2.304  1.00  0.00     0.074 A 
HETATM   17  F   UNL     1      43.173 -20.594   1.246  1.00  0.00    -0.206 F 
BRANCH  12  18
HETATM   18  O   UNL     1      44.080 -17.377   5.607  1.00  0.00    -0.354 OA
HETATM   19  C   UNL     1      43.336 -17.624   6.794  1.00  0.00     0.210 C 
ENDBRANCH  12  18
ENDBRANCH   1  11
BRANCH   6  20
HETATM   20  C   UNL     1      41.263 -10.077   3.857  1.00  0.00    -0.002 A 
HETATM   21  C   UNL     1      41.467  -9.084   4.870  1.00  0.00     0.003 A 
HETATM   22  C   UNL     1      41.332  -7.836   4.252  1.00  0.00     0.043 A 
HETATM   23  C   UNL     1      41.749  -9.106   6.254  1.00  0.00     0.014 A 
HETATM   24  C   UNL     1      41.480  -6.624   4.938  1.00  0.00     0.030 A 
HETATM   25  N   UNL     1      41.039  -8.065   2.928  1.00  0.00    -0.364 N 
HETATM   26  C   UNL     1      41.771  -6.681   6.303  1.00  0.00     0.002 A 
HETATM   27  C   UNL     1      41.902  -7.903   6.955  1.00  0.00     0.001 A 
HETATM   28  H   UNL     1      40.883  -7.340   2.243  1.00  0.00     0.165 HD
HETATM   29  C   UNL     1      40.995  -9.409   2.679  1.00  0.00     0.101 A 
ENDBRANCH   6  20
TORSDOF 3
ENDMDL
MODEL 9
REMARK VINA RESULT:      -8.1      4.908      6.578
REMARK  3 active torsions:
REMARK  status: ('A' for Active; 'I' for Inactive)
REMARK    1  A    between atoms: O_2  and  C_3 
REMARK    2  A    between atoms: C_4  and  N_5 
REMARK       I    between atoms: N_5  and  C_6 
REMARK       I    between atoms: C_6  and  N_7 
REMARK    3  A    between atoms: C_10  and  C_11 
ROOT
HETATM    1  N   UNL     1      40.662 -12.700   1.093  1.00  0.00    -0.306 N 
HETATM    2  C   UNL     1      40.713 -13.302   2.325  1.00  0.00     0.323 C 
HETATM    3  N   UNL     1      41.680 -12.793   3.199  1.00  0.00    -0.330 N 
HETATM    4  C   UNL     1      41.467 -13.139   4.601  1.00  0.00     0.155 C 
HETATM    5  C   UNL     1      42.479 -12.562   5.539  1.00  0.00     0.001 C 
HETATM    6  C   UNL     1      43.597 -11.913   5.173  1.00  0.00    -0.046 C 
HETATM    7  C   UNL     1      43.887 -11.725   3.712  1.00  0.00     0.059 C 
HETATM    8  C   UNL     1      42.598 -11.693   2.888  1.00  0.00     0.132 C 
HETATM    9  O   UNL     1      39.959 -14.207   2.681  1.00  0.00    -0.247 OA
HETATM   10  H   UNL     1      41.140 -11.820   0.973  1.00  0.00     0.171 HD
ENDROOT
BRANCH   1  11
HETATM   11  C   UNL     1      39.815 -13.008   0.002  1.00  0.00     0.072 A 
HETATM   12  C   UNL     1      38.833 -12.044  -0.331  1.00  0.00     0.095 A 
HETATM   13  C   UNL     1      37.955 -12.281  -1.394  1.00  0.00     0.042 A 
HETATM   14  C   UNL     1      38.048 -13.467  -2.122  1.00  0.00     0.045 A 
HETATM   15  C   UNL     1      39.019 -14.404  -1.790  1.00  0.00     0.118 A 
HETATM   16  C   UNL     1      39.904 -14.187  -0.740  1.00  0.00     0.074 A 
HETATM   17  F   UNL     1      39.101 -15.538  -2.500  1.00  0.00    -0.206 F 
BRANCH  12  18
HETATM   18  O   UNL     1      38.828 -10.914   0.456  1.00  0.00    -0.354 OA
HETATM   19  C   UNL     1      38.573  -9.675  -0.196  1.00  0.00     0.210 C 
ENDBRANCH  12  18
ENDBRANCH   1  11
BRANCH   6  20
HETATM   20  C   UNL     1      44.519 -11.310   6.091  1.00  0.00    -0.002 A 
HETATM   21  C   UNL     1      44.258 -10.559   7.284  1.00  0.00     0.003 A 
HETATM   22  C   UNL     1      45.498 -10.223   7.836  1.00  0.00     0.043 A 
HETATM   23  C   UNL     1      43.097 -10.120   7.959  1.00  0.00     0.014 A 
HETATM   24  C   UNL     1      45.634  -9.492   9.023  1.00  0.00     0.030 A 
HETATM   25  N   UNL     1      46.467 -10.731   7.002  1.00  0.00    -0.364 N 
HETATM   26  C   UNL     1      44.466  -9.084   9.673  1.00  0.00     0.002 A 
HETATM   27  C   UNL     1      43.214  -9.390   9.149  1.00  0.00     0.001 A 
HETATM   28  H   UNL     1      47.461 -10.632   7.153  1.00  0.00     0.165 HD
HETATM   29  C   UNL     1      45.890 -11.387   5.950  1.00  0.00     0.101 A 
ENDBRANCH   6  20
TORSDOF 3
ENDMDL
MODEL 10
REMARK VINA RESULT:      -8.1      6.220      9.583
REMARK  3 active torsions:
REMARK  status: ('A' for Active; 'I' for Inactive)
REMARK    1  A    between atoms: O_2  and  C_3 
REMARK    2  A    between atoms: C_4  and  N_5 
REMARK       I    between atoms: N_5  and  C_6 
REMARK       I    between atoms: C_6  and  N_7 
REMARK    3  A    between atoms: C_10  and  C_11 
ROOT
HETATM    1  N   UNL     1      43.110 -16.083   4.590  1.00  0.00    -0.306 N 
HETATM    2  C   UNL     1      41.955 -15.571   5.126  1.00  0.00     0.323 C 
HETATM    3  N   UNL     1      42.008 -14.217   5.474  1.00  0.00    -0.330 N 
HETATM    4  C   UNL     1      40.702 -13.589   5.652  1.00  0.00     0.155 C 
HETATM    5  C   UNL     1      40.759 -12.132   5.987  1.00  0.00     0.001 C 
HETATM    6  C   UNL     1      41.876 -11.444   6.273  1.00  0.00    -0.046 C 
HETATM    7  C   UNL     1      43.197 -12.157   6.259  1.00  0.00     0.059 C 
HETATM    8  C   UNL     1      43.176 -13.349   5.301  1.00  0.00     0.132 C 
HETATM    9  O   UNL     1      40.919 -16.218   5.275  1.00  0.00    -0.247 OA
HETATM   10  H   UNL     1      43.819 -15.436   4.280  1.00  0.00     0.171 HD
ENDROOT
BRANCH   1  11
HETATM   11  C   UNL     1      43.367 -17.409   4.168  1.00  0.00     0.072 A 
HETATM   12  C   UNL     1      43.015 -17.729   2.834  1.00  0.00     0.095 A 
HETATM   13  C   UNL     1      43.233 -19.022   2.346  1.00  0.00     0.042 A 
HETATM   14  C   UNL     1      43.794 -19.993   3.175  1.00  0.00     0.045 A 
HETATM   15  C   UNL     1      44.139 -19.667   4.481  1.00  0.00     0.118 A 
HETATM   16  C   UNL     1      43.936 -18.387   4.984  1.00  0.00     0.074 A 
HETATM   17  F   UNL     1      44.682 -20.608   5.266  1.00  0.00    -0.206 F 
BRANCH  12  18
HETATM   18  O   UNL     1      42.465 -16.697   2.107  1.00  0.00    -0.354 OA
HETATM   19  C   UNL     1      43.366 -15.855   1.398  1.00  0.00     0.210 C 
ENDBRANCH  12  18
ENDBRANCH   1  11
BRANCH   6  20
HETATM   20  C   UNL     1      41.913 -10.032   6.525  1.00  0.00    -0.002 A 
HETATM   21  C   UNL     1      42.470  -9.319   7.637  1.00  0.00     0.003 A 
HETATM   22  C   UNL     1      42.276  -7.957   7.388  1.00  0.00     0.043 A 
HETATM   23  C   UNL     1      43.118  -9.682   8.839  1.00  0.00     0.014 A 
HETATM   24  C   UNL     1      42.707  -6.950   8.262  1.00  0.00     0.030 A 
HETATM   25  N   UNL     1      41.613  -7.851   6.188  1.00  0.00    -0.364 N 
HETATM   26  C   UNL     1      43.355  -7.343   9.436  1.00  0.00     0.002 A 
HETATM   27  C   UNL     1      43.557  -8.689   9.724  1.00  0.00     0.001 A 
HETATM   28  H   UNL     1      41.336  -6.979   5.762  1.00  0.00     0.165 HD
HETATM   29  C   UNL     1      41.390  -9.093   5.660  1.00  0.00     0.101 A 
ENDBRANCH   6  20
TORSDOF 3
ENDMDL
