MODEL 1
REMARK VINA RESULT:      -7.4      0.000      0.000
REMARK  4 active torsions:
REMARK  status: ('A' for Active; 'I' for Inactive)
REMARK    1  A    between atoms: C_6  and  C_7 
REMARK    2  A    between atoms: C_7  and  N_8 
REMARK    3  A    between atoms: N_8  and  C_9 
REMARK    4  A    between atoms: C_9  and  C_10 
ROOT
HETATM    1  C   UNL     1      43.081 -15.018   2.092  1.00  0.00     0.327 C 
ENDROOT
BRANCH   1   2
HETATM    2  N   UNL     1      42.088 -15.331   1.052  1.00  0.00     0.097 N 
HETATM    3  H   UNL     1      42.404 -14.910   0.171  1.00  0.00     0.317 HD
BRANCH   2   4
HETATM    4  C   UNL     1      40.771 -14.718   1.327  1.00  0.00     0.252 C 
HETATM    5  C   UNL     1      39.808 -15.656   2.056  1.00  0.00     0.048 C 
BRANCH   4   6
HETATM    6  C   UNL     1      40.232 -14.270  -0.003  1.00  0.00     0.006 A 
HETATM    7  C   UNL     1      40.322 -13.026  -0.610  1.00  0.00     0.058 A 
HETATM    8  O   UNL     1      39.682 -13.034  -1.812  1.00  0.00    -0.320 OA
HETATM    9  C   UNL     1      40.954 -11.744  -0.238  1.00  0.00     0.077 C 
HETATM   10  C   UNL     1      39.182 -14.284  -1.999  1.00  0.00     0.050 A 
HETATM   11  C   UNL     1      38.451 -14.522  -3.260  1.00  0.00     0.076 C 
HETATM   12  C   UNL     1      39.488 -15.079  -0.919  1.00  0.00     0.044 A 
ENDBRANCH   4   6
ENDBRANCH   2   4
ENDBRANCH   1   2
BRANCH   1  13
HETATM   13  C   UNL     1      43.332 -16.259   2.931  1.00  0.00     0.044 A 
HETATM   14  N   UNL     1      43.306 -17.452   2.232  1.00  0.00    -0.338 N 
HETATM   15  H   UNL     1      43.140 -17.429   1.225  1.00  0.00     0.168 HD
HETATM   16  C   UNL     1      43.529 -18.587   2.844  1.00  0.00     0.158 A 
HETATM   17  N   UNL     1      43.779 -18.637   4.135  1.00  0.00    -0.269 N 
HETATM   18  S   UNL     1      43.531 -20.135   2.060  1.00  0.00    -0.064 SA
HETATM   19  C   UNL     1      43.838 -17.496   4.962  1.00  0.00     0.255 A 
HETATM   20  C   UNL     1      43.989 -19.923   4.590  1.00  0.00     0.109 A 
HETATM   21  O   UNL     1      44.074 -17.577   6.152  1.00  0.00    -0.268 OA
HETATM   22  C   UNL     1      43.594 -16.233   4.245  1.00  0.00     0.101 A 
HETATM   23  C   UNL     1      43.895 -20.846   3.620  1.00  0.00     0.071 A 
ENDBRANCH   1  13
TORSDOF 4
ENDMDL
MODEL 2
REMARK VINA RESULT:      -7.4      2.796      7.615
REMARK  4 active torsions:
REMARK  status: ('A' for Active; 'I' for Inactive)
REMARK    1  A    between atoms: C_6  and  C_7 
REMARK    2  A    between atoms: C_7  and  N_8 
REMARK    3  A    between atoms: N_8  and  C_9 
REMARK    4  A    between atoms: C_9  and  C_10 
ROOT
HETATM    1  C   UNL     1      40.639 -14.302   2.348  1.00  0.00     0.327 C 
ENDROOT
BRANCH   1   2
HETATM    2  N   UNL     1      41.272 -15.626   2.466  1.00  0.00     0.097 N 
HETATM    3  H   UNL     1      40.794 -16.143   3.212  1.00  0.00     0.317 HD
BRANCH   2   4
HETATM    4  C   UNL     1      42.685 -15.538   2.896  1.00  0.00     0.252 C 
HETATM    5  C   UNL     1      43.567 -14.761   1.918  1.00  0.00     0.048 C 
BRANCH   4   6
HETATM    6  C   UNL     1      43.154 -16.954   3.082  1.00  0.00     0.006 A 
HETATM    7  C   UNL     1      43.824 -17.519   4.157  1.00  0.00     0.058 A 
HETATM    8  O   UNL     1      44.081 -18.835   3.921  1.00  0.00    -0.320 OA
HETATM    9  C   UNL     1      44.292 -17.007   5.462  1.00  0.00     0.077 C 
HETATM   10  C   UNL     1      43.570 -19.137   2.699  1.00  0.00     0.050 A 
HETATM   11  C   UNL     1      43.728 -20.533   2.242  1.00  0.00     0.076 C 
HETATM   12  C   UNL     1      42.995 -18.019   2.141  1.00  0.00     0.044 A 
ENDBRANCH   4   6
ENDBRANCH   2   4
ENDBRANCH   1   2
BRANCH   1  13
HETATM   13  C   UNL     1      40.363 -14.011   0.883  1.00  0.00     0.044 A 
HETATM   14  N   UNL     1      40.829 -12.789   0.433  1.00  0.00    -0.338 N 
HETATM   15  H   UNL     1      41.327 -12.182   1.084  1.00  0.00     0.168 HD
HETATM   16  C   UNL     1      40.669 -12.435  -0.817  1.00  0.00     0.158 A 
HETATM   17  N   UNL     1      40.060 -13.217  -1.682  1.00  0.00    -0.269 N 
HETATM   18  S   UNL     1      41.226 -10.933  -1.486  1.00  0.00    -0.064 SA
HETATM   19  C   UNL     1      39.541 -14.487  -1.355  1.00  0.00     0.255 A 
HETATM   20  C   UNL     1      39.994 -12.667  -2.947  1.00  0.00     0.109 A 
HETATM   21  O   UNL     1      38.986 -15.186  -2.181  1.00  0.00    -0.268 OA
HETATM   22  C   UNL     1      39.746 -14.863   0.054  1.00  0.00     0.101 A 
HETATM   23  C   UNL     1      40.564 -11.455  -3.023  1.00  0.00     0.071 A 
ENDBRANCH   1  13
TORSDOF 4
ENDMDL
MODEL 3
REMARK VINA RESULT:      -7.3      2.721      7.050
REMARK  4 active torsions:
REMARK  status: ('A' for Active; 'I' for Inactive)
REMARK    1  A    between atoms: C_6  and  C_7 
REMARK    2  A    between atoms: C_7  and  N_8 
REMARK    3  A    between atoms: N_8  and  C_9 
REMARK    4  A    between atoms: C_9  and  C_10 
ROOT
HETATM    1  C   UNL     1      43.128 -14.413   2.037  1.00  0.00     0.327 C 
ENDROOT
BRANCH   1   2
HETATM    2  N   UNL     1      42.837 -14.837   3.416  1.00  0.00     0.097 N 
HETATM    3  H   UNL     1      43.703 -15.199   3.829  1.00  0.00     0.317 HD
BRANCH   2   4
HETATM    4  C   UNL     1      41.878 -15.961   3.470  1.00  0.00     0.252 C 
HETATM    5  C   UNL     1      41.025 -15.969   4.740  1.00  0.00     0.048 C 
BRANCH   4   6
HETATM    6  C   UNL     1      42.695 -17.215   3.326  1.00  0.00     0.006 A 
HETATM    7  C   UNL     1      43.732 -17.680   4.122  1.00  0.00     0.058 A 
HETATM    8  O   UNL     1      44.217 -18.855   3.635  1.00  0.00    -0.320 OA
HETATM    9  C   UNL     1      44.388 -17.184   5.349  1.00  0.00     0.077 C 
HETATM   10  C   UNL     1      43.493 -19.167   2.529  1.00  0.00     0.050 A 
HETATM   11  C   UNL     1      43.847 -20.425   1.840  1.00  0.00     0.076 C 
HETATM   12  C   UNL     1      42.550 -18.194   2.294  1.00  0.00     0.044 A 
ENDBRANCH   4   6
ENDBRANCH   2   4
ENDBRANCH   1   2
BRANCH   1  13
HETATM   13  C   UNL     1      41.938 -13.644   1.489  1.00  0.00     0.044 A 
HETATM   14  N   UNL     1      41.341 -14.207   0.376  1.00  0.00    -0.338 N 
HETATM   15  H   UNL     1      41.713 -15.083   0.008  1.00  0.00     0.168 HD
HETATM   16  C   UNL     1      40.295 -13.645  -0.173  1.00  0.00     0.158 A 
HETATM   17  N   UNL     1      39.778 -12.534   0.305  1.00  0.00    -0.269 N 
HETATM   18  S   UNL     1      39.465 -14.275  -1.562  1.00  0.00    -0.064 SA
HETATM   19  C   UNL     1      40.287 -11.860   1.434  1.00  0.00     0.255 A 
HETATM   20  C   UNL     1      38.678 -12.104  -0.411  1.00  0.00     0.109 A 
HETATM   21  O   UNL     1      39.783 -10.835   1.852  1.00  0.00    -0.268 OA
HETATM   22  C   UNL     1      41.458 -12.521   2.038  1.00  0.00     0.101 A 
HETATM   23  C   UNL     1      38.371 -12.911  -1.438  1.00  0.00     0.071 A 
ENDBRANCH   1  13
TORSDOF 4
ENDMDL
MODEL 4
REMARK VINA RESULT:      -7.2      2.394      7.507
REMARK  4 active torsions:
REMARK  status: ('A' for Active; 'I' for Inactive)
REMARK    1  A    between atoms: C_6  and  C_7 
REMARK    2  A    between atoms: C_7  and  N_8 
REMARK    3  A    between atoms: N_8  and  C_9 
REMARK    4  A    between atoms: C_9  and  C_10 
ROOT
HETATM    1  C   UNL     1      40.250 -15.535   2.462  1.00  0.00     0.327 C 
ENDROOT
BRANCH   1   2
HETATM    2  N   UNL     1      41.334 -16.509   2.257  1.00  0.00     0.097 N 
HETATM    3  H   UNL     1      41.158 -17.316   2.865  1.00  0.00     0.317 HD
BRANCH   2   4
HETATM    4  C   UNL     1      42.651 -15.984   2.676  1.00  0.00     0.252 C 
HETATM    5  C   UNL     1      43.598 -15.719   1.504  1.00  0.00     0.048 C 
BRANCH   4   6
HETATM    6  C   UNL     1      43.213 -16.987   3.644  1.00  0.00     0.006 A 
HETATM    7  C   UNL     1      43.604 -16.806   4.963  1.00  0.00     0.058 A 
HETATM    8  O   UNL     1      44.075 -17.972   5.485  1.00  0.00    -0.320 OA
HETATM    9  C   UNL     1      43.606 -15.652   5.886  1.00  0.00     0.077 C 
HETATM   10  C   UNL     1      43.983 -18.919   4.516  1.00  0.00     0.050 A 
HETATM   11  C   UNL     1      44.435 -20.279   4.874  1.00  0.00     0.076 C 
HETATM   12  C   UNL     1      43.465 -18.367   3.367  1.00  0.00     0.044 A 
ENDBRANCH   4   6
ENDBRANCH   2   4
ENDBRANCH   1   2
BRANCH   1  13
HETATM   13  C   UNL     1      40.235 -14.554   1.303  1.00  0.00     0.044 A 
HETATM   14  N   UNL     1      39.693 -15.044   0.129  1.00  0.00    -0.338 N 
HETATM   15  H   UNL     1      39.333 -16.000   0.114  1.00  0.00     0.168 HD
HETATM   16  C   UNL     1      39.607 -14.285  -0.933  1.00  0.00     0.158 A 
HETATM   17  N   UNL     1      40.032 -13.040  -0.927  1.00  0.00    -0.269 N 
HETATM   18  S   UNL     1      38.934 -14.797  -2.449  1.00  0.00    -0.064 SA
HETATM   19  C   UNL     1      40.602 -12.417   0.203  1.00  0.00     0.255 A 
HETATM   20  C   UNL     1      39.851 -12.406  -2.140  1.00  0.00     0.109 A 
HETATM   21  O   UNL     1      40.983 -11.262   0.176  1.00  0.00    -0.268 OA
HETATM   22  C   UNL     1      40.676 -13.292   1.386  1.00  0.00     0.101 A 
HETATM   23  C   UNL     1      39.280 -13.193  -3.064  1.00  0.00     0.071 A 
ENDBRANCH   1  13
TORSDOF 4
ENDMDL
MODEL 5
REMARK VINA RESULT:      -6.9      2.811      4.144
REMARK  4 active torsions:
REMARK  status: ('A' for Active; 'I' for Inactive)
REMARK    1  A    between atoms: C_6  and  C_7 
REMARK    2  A    between atoms: C_7  and  N_8 
REMARK    3  A    between atoms: N_8  and  C_9 
REMARK    4  A    between atoms: C_9  and  C_10 
ROOT
HETATM    1  C   UNL     1      39.873 -15.788   2.107  1.00  0.00     0.327 C 
ENDROOT
BRANCH   1   2
HETATM    2  N   UNL     1      39.589 -14.395   2.489  1.00  0.00     0.097 N 
HETATM    3  H   UNL     1      38.585 -14.316   2.686  1.00  0.00     0.317 HD
BRANCH   2   4
HETATM    4  C   UNL     1      39.848 -13.444   1.388  1.00  0.00     0.252 C 
HETATM    5  C   UNL     1      40.142 -14.130   0.052  1.00  0.00     0.048 C 
BRANCH   4   6
HETATM    6  C   UNL     1      40.988 -12.576   1.844  1.00  0.00     0.006 A 
HETATM    7  C   UNL     1      41.387 -11.335   1.369  1.00  0.00     0.058 A 
HETATM    8  O   UNL     1      42.482 -10.895   2.048  1.00  0.00    -0.320 OA
HETATM    9  C   UNL     1      40.881 -10.423   0.323  1.00  0.00     0.077 C 
HETATM   10  C   UNL     1      42.795 -11.838   2.974  1.00  0.00     0.050 A 
HETATM   11  C   UNL     1      43.958 -11.556   3.840  1.00  0.00     0.076 C 
HETATM   12  C   UNL     1      41.913 -12.891   2.888  1.00  0.00     0.044 A 
ENDBRANCH   4   6
ENDBRANCH   2   4
ENDBRANCH   1   2
BRANCH   1  13
HETATM   13  C   UNL     1      41.012 -16.317   2.960  1.00  0.00     0.044 A 
HETATM   14  N   UNL     1      40.940 -15.987   4.301  1.00  0.00    -0.338 N 
HETATM   15  H   UNL     1      40.145 -15.438   4.631  1.00  0.00     0.168 HD
HETATM   16  C   UNL     1      41.855 -16.404   5.139  1.00  0.00     0.158 A 
HETATM   17  N   UNL     1      42.869 -17.141   4.742  1.00  0.00    -0.269 N 
HETATM   18  S   UNL     1      41.851 -16.058   6.840  1.00  0.00    -0.064 SA
HETATM   19  C   UNL     1      43.060 -17.550   3.406  1.00  0.00     0.255 A 
HETATM   20  C   UNL     1      43.721 -17.481   5.775  1.00  0.00     0.109 A 
HETATM   21  O   UNL     1      44.008 -18.234   3.073  1.00  0.00    -0.268 OA
HETATM   22  C   UNL     1      42.010 -17.076   2.488  1.00  0.00     0.101 A 
HETATM   23  C   UNL     1      43.331 -16.988   6.960  1.00  0.00     0.071 A 
ENDBRANCH   1  13
TORSDOF 4
ENDMDL
MODEL 6
REMARK VINA RESULT:      -6.8      2.299      2.911
REMARK  4 active torsions:
REMARK  status: ('A' for Active; 'I' for Inactive)
REMARK    1  A    between atoms: C_6  and  C_7 
REMARK    2  A    between atoms: C_7  and  N_8 
REMARK    3  A    between atoms: N_8  and  C_9 
REMARK    4  A    between atoms: C_9  and  C_10 
ROOT
HETATM    1  C   UNL     1      39.794 -15.611   2.282  1.00  0.00     0.327 C 
ENDROOT
BRANCH   1   2
HETATM    2  N   UNL     1      39.911 -14.144   2.249  1.00  0.00     0.097 N 
HETATM    3  H   UNL     1      38.978 -13.752   2.085  1.00  0.00     0.317 HD
BRANCH   2   4
HETATM    4  C   UNL     1      40.738 -13.669   1.119  1.00  0.00     0.252 C 
HETATM    5  C   UNL     1      41.454 -12.348   1.407  1.00  0.00     0.048 C 
BRANCH   4   6
HETATM    6  C   UNL     1      39.815 -13.569  -0.063  1.00  0.00     0.006 A 
HETATM    7  C   UNL     1      38.808 -12.648  -0.311  1.00  0.00     0.058 A 
HETATM    8  O   UNL     1      38.194 -12.921  -1.496  1.00  0.00    -0.320 OA
HETATM    9  C   UNL     1      38.289 -11.471   0.415  1.00  0.00     0.077 C 
HETATM   10  C   UNL     1      38.804 -14.011  -2.029  1.00  0.00     0.050 A 
HETATM   11  C   UNL     1      38.298 -14.478  -3.337  1.00  0.00     0.076 C 
HETATM   12  C   UNL     1      39.801 -14.449  -1.190  1.00  0.00     0.044 A 
ENDBRANCH   4   6
ENDBRANCH   2   4
ENDBRANCH   1   2
BRANCH   1  13
HETATM   13  C   UNL     1      40.965 -16.188   3.057  1.00  0.00     0.044 A 
HETATM   14  N   UNL     1      40.970 -15.897   4.409  1.00  0.00    -0.338 N 
HETATM   15  H   UNL     1      40.206 -15.343   4.797  1.00  0.00     0.168 HD
HETATM   16  C   UNL     1      41.918 -16.357   5.185  1.00  0.00     0.158 A 
HETATM   17  N   UNL     1      42.895 -17.102   4.714  1.00  0.00    -0.269 N 
HETATM   18  S   UNL     1      42.011 -16.062   6.893  1.00  0.00    -0.064 SA
HETATM   19  C   UNL     1      43.006 -17.473   3.357  1.00  0.00     0.255 A 
HETATM   20  C   UNL     1      43.792 -17.489   5.689  1.00  0.00     0.109 A 
HETATM   21  O   UNL     1      43.921 -18.166   2.955  1.00  0.00    -0.268 OA
HETATM   22  C   UNL     1      41.920 -16.951   2.511  1.00  0.00     0.101 A 
HETATM   23  C   UNL     1      43.476 -17.024   6.908  1.00  0.00     0.071 A 
ENDBRANCH   1  13
TORSDOF 4
ENDMDL
MODEL 7
REMARK VINA RESULT:      -6.7      1.506      2.060
REMARK  4 active torsions:
REMARK  status: ('A' for Active; 'I' for Inactive)
REMARK    1  A    between atoms: C_6  and  C_7 
REMARK    2  A    between atoms: C_7  and  N_8 
REMARK    3  A    between atoms: N_8  and  C_9 
REMARK    4  A    between atoms: C_9  and  C_10 
ROOT
HETATM    1  C   UNL     1      42.810 -13.830   3.769  1.00  0.00     0.327 C 
ENDROOT
BRANCH   1   2
HETATM    2  N   UNL     1      42.684 -13.913   2.305  1.00  0.00     0.097 N 
HETATM    3  H   UNL     1      43.586 -13.653   1.891  1.00  0.00     0.317 HD
BRANCH   2   4
HETATM    4  C   UNL     1      41.711 -12.939   1.766  1.00  0.00     0.252 C 
HETATM    5  C   UNL     1      40.850 -12.283   2.847  1.00  0.00     0.048 C 
BRANCH   4   6
HETATM    6  C   UNL     1      40.884 -13.687   0.758  1.00  0.00     0.006 A 
HETATM    7  C   UNL     1      40.177 -14.871   0.911  1.00  0.00     0.058 A 
HETATM    8  O   UNL     1      39.571 -15.220  -0.257  1.00  0.00    -0.320 OA
HETATM    9  C   UNL     1      39.948 -15.792   2.043  1.00  0.00     0.077 C 
HETATM   10  C   UNL     1      39.870 -14.262  -1.173  1.00  0.00     0.050 A 
HETATM   11  C   UNL     1      39.299 -14.437  -2.524  1.00  0.00     0.076 C 
HETATM   12  C   UNL     1      40.674 -13.302  -0.603  1.00  0.00     0.044 A 
ENDBRANCH   4   6
ENDBRANCH   2   4
ENDBRANCH   1   2
BRANCH   1  13
HETATM   13  C   UNL     1      43.124 -15.208   4.322  1.00  0.00     0.044 A 
HETATM   14  N   UNL     1      43.222 -16.210   3.374  1.00  0.00    -0.338 N 
HETATM   15  H   UNL     1      43.096 -15.970   2.390  1.00  0.00     0.168 HD
HETATM   16  C   UNL     1      43.509 -17.437   3.729  1.00  0.00     0.158 A 
HETATM   17  N   UNL     1      43.710 -17.761   4.988  1.00  0.00    -0.269 N 
HETATM   18  S   UNL     1      43.668 -18.762   2.619  1.00  0.00    -0.064 SA
HETATM   19  C   UNL     1      43.642 -16.837   6.051  1.00  0.00     0.255 A 
HETATM   20  C   UNL     1      44.003 -19.100   5.155  1.00  0.00     0.109 A 
HETATM   21  O   UNL     1      43.836 -17.171   7.204  1.00  0.00    -0.268 OA
HETATM   22  C   UNL     1      43.329 -15.464   5.621  1.00  0.00     0.101 A 
HETATM   23  C   UNL     1      44.022 -19.782   4.000  1.00  0.00     0.071 A 
ENDBRANCH   1  13
TORSDOF 4
ENDMDL
MODEL 8
REMARK VINA RESULT:      -6.6      4.573      7.848
REMARK  4 active torsions:
REMARK  status: ('A' for Active; 'I' for Inactive)
REMARK    1  A    between atoms: C_6  and  C_7 
REMARK    2  A    between atoms: C_7  and  N_8 
REMARK    3  A    between atoms: N_8  and  C_9 
REMARK    4  A    between atoms: C_9  and  C_10 
ROOT
HETATM    1  C   UNL     1      42.005 -14.371   5.401  1.00  0.00     0.327 C 
ENDROOT
BRANCH   1   2
HETATM    2  N   UNL     1      41.877 -15.376   4.334  1.00  0.00     0.097 N 
HETATM    3  H   UNL     1      41.693 -16.286   4.772  1.00  0.00     0.317 HD
BRANCH   2   4
HETATM    4  C   UNL     1      43.132 -15.555   3.573  1.00  0.00     0.252 C 
HETATM    5  C   UNL     1      43.109 -14.879   2.201  1.00  0.00     0.048 C 
BRANCH   4   6
HETATM    6  C   UNL     1      43.352 -17.039   3.471  1.00  0.00     0.006 A 
HETATM    7  C   UNL     1      43.671 -17.947   4.471  1.00  0.00     0.058 A 
HETATM    8  O   UNL     1      43.799 -19.200   3.954  1.00  0.00    -0.320 OA
HETATM    9  C   UNL     1      43.884 -17.838   5.929  1.00  0.00     0.077 C 
HETATM   10  C   UNL     1      43.554 -19.117   2.621  1.00  0.00     0.050 A 
HETATM   11  C   UNL     1      43.628 -20.379   1.855  1.00  0.00     0.076 C 
HETATM   12  C   UNL     1      43.279 -17.815   2.273  1.00  0.00     0.044 A 
ENDBRANCH   4   6
ENDBRANCH   2   4
ENDBRANCH   1   2
BRANCH   1  13
HETATM   13  C   UNL     1      41.042 -13.229   5.129  1.00  0.00     0.044 A 
HETATM   14  N   UNL     1      40.988 -12.262   6.117  1.00  0.00    -0.338 N 
HETATM   15  H   UNL     1      41.588 -12.362   6.936  1.00  0.00     0.168 HD
HETATM   16  C   UNL     1      40.209 -11.219   5.985  1.00  0.00     0.158 A 
HETATM   17  N   UNL     1      39.453 -11.053   4.922  1.00  0.00    -0.269 N 
HETATM   18  S   UNL     1      40.077  -9.945   7.157  1.00  0.00    -0.064 SA
HETATM   19  C   UNL     1      39.415 -11.960   3.843  1.00  0.00     0.255 A 
HETATM   20  C   UNL     1      38.708  -9.891   4.971  1.00  0.00     0.109 A 
HETATM   21  O   UNL     1      38.706 -11.775   2.873  1.00  0.00    -0.268 OA
HETATM   22  C   UNL     1      40.310 -13.118   4.013  1.00  0.00     0.101 A 
HETATM   23  C   UNL     1      38.916  -9.181   6.090  1.00  0.00     0.071 A 
ENDBRANCH   1  13
TORSDOF 4
ENDMDL
MODEL 9
REMARK VINA RESULT:      -6.6      3.091      7.363
REMARK  4 active torsions:
REMARK  status: ('A' for Active; 'I' for Inactive)
REMARK    1  A    between atoms: C_6  and  C_7 
REMARK    2  A    between atoms: C_7  and  N_8 
REMARK    3  A    between atoms: N_8  and  C_9 
REMARK    4  A    between atoms: C_9  and  C_10 
ROOT
HETATM    1  C   UNL     1      40.640 -12.936   2.899  1.00  0.00     0.327 C 
ENDROOT
BRANCH   1   2
HETATM    2  N   UNL     1      40.938 -14.227   3.539  1.00  0.00     0.097 N 
HETATM    3  H   UNL     1      40.244 -14.386   4.277  1.00  0.00     0.317 HD
BRANCH   2   4
HETATM    4  C   UNL     1      42.247 -14.227   4.226  1.00  0.00     0.252 C 
HETATM    5  C   UNL     1      43.190 -13.128   3.733  1.00  0.00     0.048 C 
BRANCH   4   6
HETATM    6  C   UNL     1      42.824 -15.601   4.028  1.00  0.00     0.006 A 
HETATM    7  C   UNL     1      43.204 -16.230   2.851  1.00  0.00     0.058 A 
HETATM    8  O   UNL     1      43.666 -17.484   3.108  1.00  0.00    -0.320 OA
HETATM    9  C   UNL     1      43.217 -15.828   1.429  1.00  0.00     0.077 C 
HETATM   10  C   UNL     1      43.601 -17.676   4.451  1.00  0.00     0.050 A 
HETATM   11  C   UNL     1      44.070 -18.982   4.957  1.00  0.00     0.076 C 
HETATM   12  C   UNL     1      43.089 -16.554   5.061  1.00  0.00     0.044 A 
ENDBRANCH   4   6
ENDBRANCH   2   4
ENDBRANCH   1   2
BRANCH   1  13
HETATM   13  C   UNL     1      40.446 -13.150   1.408  1.00  0.00     0.044 A 
HETATM   14  N   UNL     1      40.895 -12.117   0.606  1.00  0.00    -0.338 N 
HETATM   15  H   UNL     1      41.329 -11.305   1.047  1.00  0.00     0.168 HD
HETATM   16  C   UNL     1      40.800 -12.196  -0.697  1.00  0.00     0.158 A 
HETATM   17  N   UNL     1      40.276 -13.249  -1.287  1.00  0.00    -0.269 N 
HETATM   18  S   UNL     1      41.343 -10.964  -1.792  1.00  0.00    -0.064 SA
HETATM   19  C   UNL     1      39.784 -14.370  -0.587  1.00  0.00     0.255 A 
HETATM   20  C   UNL     1      40.270 -13.142  -2.664  1.00  0.00     0.109 A 
HETATM   21  O   UNL     1      39.308 -15.329  -1.165  1.00  0.00    -0.268 OA
HETATM   22  C   UNL     1      39.914 -14.258   0.875  1.00  0.00     0.101 A 
HETATM   23  C   UNL     1      40.799 -11.991  -3.104  1.00  0.00     0.071 A 
ENDBRANCH   1  13
TORSDOF 4
ENDMDL
MODEL 10
REMARK VINA RESULT:      -6.5      2.867      4.068
REMARK  4 active torsions:
REMARK  status: ('A' for Active; 'I' for Inactive)
REMARK    1  A    between atoms: C_6  and  C_7 
REMARK    2  A    between atoms: C_7  and  N_8 
REMARK    3  A    between atoms: N_8  and  C_9 
REMARK    4  A    between atoms: C_9  and  C_10 
ROOT
HETATM    1  C   UNL     1      40.032 -15.650   1.945  1.00  0.00     0.327 C 
ENDROOT
BRANCH   1   2
HETATM    2  N   UNL     1      39.235 -14.532   2.477  1.00  0.00     0.097 N 
HETATM    3  H   UNL     1      38.253 -14.695   2.232  1.00  0.00     0.317 HD
BRANCH   2   4
HETATM    4  C   UNL     1      39.587 -13.240   1.851  1.00  0.00     0.252 C 
HETATM    5  C   UNL     1      40.027 -13.375   0.392  1.00  0.00     0.048 C 
BRANCH   4   6
HETATM    6  C   UNL     1      40.658 -12.634   2.714  1.00  0.00     0.006 A 
HETATM    7  C   UNL     1      40.540 -12.021   3.953  1.00  0.00     0.058 A 
HETATM    8  O   UNL     1      41.756 -11.591   4.390  1.00  0.00    -0.320 OA
HETATM    9  C   UNL     1      39.409 -11.758   4.867  1.00  0.00     0.077 C 
HETATM   10  C   UNL     1      42.671 -11.930   3.445  1.00  0.00     0.050 A 
HETATM   11  C   UNL     1      44.075 -11.565   3.724  1.00  0.00     0.076 C 
HETATM   12  C   UNL     1      42.050 -12.567   2.397  1.00  0.00     0.044 A 
ENDBRANCH   4   6
ENDBRANCH   2   4
ENDBRANCH   1   2
BRANCH   1  13
HETATM   13  C   UNL     1      40.910 -16.208   3.050  1.00  0.00     0.044 A 
HETATM   14  N   UNL     1      41.910 -17.064   2.626  1.00  0.00    -0.338 N 
HETATM   15  H   UNL     1      42.005 -17.254   1.628  1.00  0.00     0.168 HD
HETATM   16  C   UNL     1      42.743 -17.592   3.486  1.00  0.00     0.158 A 
HETATM   17  N   UNL     1      42.661 -17.335   4.774  1.00  0.00    -0.269 N 
HETATM   18  S   UNL     1      44.038 -18.667   3.058  1.00  0.00    -0.064 SA
HETATM   19  C   UNL     1      41.692 -16.478   5.337  1.00  0.00     0.255 A 
HETATM   20  C   UNL     1      43.630 -17.984   5.512  1.00  0.00     0.109 A 
HETATM   21  O   UNL     1      41.645 -16.260   6.532  1.00  0.00    -0.268 OA
HETATM   22  C   UNL     1      40.776 -15.890   4.345  1.00  0.00     0.101 A 
HETATM   23  C   UNL     1      44.448 -18.736   4.761  1.00  0.00     0.071 A 
ENDBRANCH   1  13
TORSDOF 4
ENDMDL
