MODEL 1
REMARK VINA RESULT:     -10.1      0.000      0.000
REMARK  9 active torsions:
REMARK  status: ('A' for Active; 'I' for Inactive)
REMARK    1  A    between atoms: C_8  and  C_9 
REMARK    2  A    between atoms: C_9  and  C_10 
REMARK    3  A    between atoms: N_14  and  C_15 
REMARK    4  A    between atoms: C_15  and  C_16 
REMARK    5  A    between atoms: C_27  and  N_28 
REMARK    6  A    between atoms: N_28  and  C_29 
REMARK    7  A    between atoms: C_29  and  C_30 
REMARK    8  A    between atoms: C_30  and  O_31 
REMARK    9  A    between atoms: C_30  and  C_32 
ROOT
HETATM    1  C   UNL     1      39.814 -16.107   1.789  1.00  0.00     0.052 C 
HETATM    2  C   UNL     1      40.386 -14.764   1.465  1.00  0.00    -0.015 A 
HETATM    3  C   UNL     1      41.168 -14.059   2.541  1.00  0.00     0.144 A 
HETATM    4  N   UNL     1      41.235 -14.586   3.722  1.00  0.00    -0.217 NA
HETATM    5  N   UNL     1      41.784 -12.867   2.198  1.00  0.00    -0.272 N 
HETATM    6  C   UNL     1      42.560 -12.204   3.133  1.00  0.00     0.266 A 
HETATM    7  O   UNL     1      43.106 -11.115   2.934  1.00  0.00    -0.267 OA
HETATM    8  C   UNL     1      42.719 -12.874   4.456  1.00  0.00     0.074 A 
HETATM    9  C   UNL     1      41.990 -13.988   4.693  1.00  0.00     0.121 A 
HETATM   10  C   UNL     1      41.611 -12.306   0.938  1.00  0.00     0.102 A 
HETATM   11  C   UNL     1      40.878 -12.905  -0.006  1.00  0.00     0.018 A 
HETATM   12  C   UNL     1      40.267 -14.179   0.262  1.00  0.00     0.012 A 
ENDROOT
BRANCH   8  13
HETATM   13  C   UNL     1      43.657 -12.288   5.408  1.00  0.00     0.045 C 
BRANCH  13  14
HETATM   14  C   UNL     1      43.397 -11.260   6.228  1.00  0.00     0.077 A 
HETATM   15  S   UNL     1      42.070 -10.173   6.159  1.00  0.00    -0.055 SA
HETATM   16  C   UNL     1      42.721  -9.150   7.431  1.00  0.00     0.149 A 
HETATM   17  S   UNL     1      41.993  -7.706   7.843  1.00  0.00    -0.052 SA
HETATM   18  N   UNL     1      43.867  -9.718   7.947  1.00  0.00    -0.294 N 
HETATM   19  C   UNL     1      44.310 -10.880   7.335  1.00  0.00     0.266 A 
HETATM   20  O   UNL     1      45.336 -11.491   7.599  1.00  0.00    -0.266 OA
BRANCH  18  21
HETATM   21  C   UNL     1      44.660  -9.151   9.035  1.00  0.00     0.172 C 
BRANCH  21  22
HETATM   22  C   UNL     1      43.976  -9.284  10.379  1.00  0.00    -0.037 A 
HETATM   23  C   UNL     1      43.565  -8.136  11.079  1.00  0.00     0.048 A 
HETATM   24  C   UNL     1      42.947  -8.304  12.301  1.00  0.00     0.105 A 
HETATM   25  C   UNL     1      42.734  -9.548  12.843  1.00  0.00     0.105 A 
HETATM   26  O   UNL     1      42.479  -7.305  13.098  1.00  0.00    -0.323 OA
HETATM   27  O   UNL     1      42.110  -9.492  14.049  1.00  0.00    -0.323 OA
HETATM   28  C   UNL     1      43.126 -10.696  12.193  1.00  0.00     0.040 A 
HETATM   29  C   UNL     1      41.943  -8.066  14.201  1.00  0.00     0.352 A 
HETATM   30  C   UNL     1      43.750 -10.559  10.948  1.00  0.00     0.012 A 
ENDBRANCH  21  22
ENDBRANCH  18  21
ENDBRANCH  13  14
ENDBRANCH   8  13
BRANCH   9  31
HETATM   31  N   UNL     1      41.986 -14.646   5.917  1.00  0.00    -0.274 NA
HETATM   32  H   UNL     1      42.460 -14.038   6.592  1.00  0.00     0.129 HD
BRANCH  31  33
HETATM   33  C   UNL     1      42.385 -16.050   6.085  1.00  0.00     0.130 C 
BRANCH  33  34
HETATM   34  C   UNL     1      43.669 -16.371   5.279  1.00  0.00     0.164 C 
BRANCH  34  35
HETATM   35  O   UNL     1      44.779 -16.550   6.172  1.00  0.00    -0.390 OA
HETATM   36  H   UNL     1      44.963 -17.503   6.231  1.00  0.00     0.210 HD
ENDBRANCH  34  35
BRANCH  34  37
HETATM   37  C   UNL     1      43.629 -17.563   4.342  1.00  0.00    -0.029 A 
HETATM   38  C   UNL     1      43.146 -17.504   3.027  1.00  0.00     0.010 A 
HETATM   39  C   UNL     1      43.142 -18.639   2.211  1.00  0.00     0.001 A 
HETATM   40  C   UNL     1      43.618 -19.854   2.698  1.00  0.00     0.000 A 
HETATM   41  C   UNL     1      44.094 -19.937   4.004  1.00  0.00     0.001 A 
HETATM   42  C   UNL     1      44.097 -18.802   4.818  1.00  0.00     0.010 A 
ENDBRANCH  34  37
ENDBRANCH  33  34
ENDBRANCH  31  33
ENDBRANCH   9  31
TORSDOF 9
ENDMDL
MODEL 2
REMARK VINA RESULT:      -9.8      4.002      5.248
REMARK  9 active torsions:
REMARK  status: ('A' for Active; 'I' for Inactive)
REMARK    1  A    between atoms: C_8  and  C_9 
REMARK    2  A    between atoms: C_9  and  C_10 
REMARK    3  A    between atoms: N_14  and  C_15 
REMARK    4  A    between atoms: C_15  and  C_16 
REMARK    5  A    between atoms: C_27  and  N_28 
REMARK    6  A    between atoms: N_28  and  C_29 
REMARK    7  A    between atoms: C_29  and  C_30 
REMARK    8  A    between atoms: C_30  and  O_31 
REMARK    9  A    between atoms: C_30  and  C_32 
ROOT
HETATM    1  C   UNL     1      38.885 -15.445  -2.180  1.00  0.00     0.052 C 
HETATM    2  C   UNL     1      38.488 -14.006  -2.072  1.00  0.00    -0.015 A 
HETATM    3  C   UNL     1      39.290 -13.127  -1.150  1.00  0.00     0.144 A 
HETATM    4  N   UNL     1      40.219 -13.658  -0.419  1.00  0.00    -0.217 NA
HETATM    5  N   UNL     1      38.983 -11.777  -1.138  1.00  0.00    -0.272 N 
HETATM    6  C   UNL     1      39.725 -10.914  -0.349  1.00  0.00     0.266 A 
HETATM    7  O   UNL     1      39.494  -9.706  -0.238  1.00  0.00    -0.267 OA
HETATM    8  C   UNL     1      40.861 -11.518   0.405  1.00  0.00     0.074 A 
HETATM    9  C   UNL     1      40.994 -12.863   0.379  1.00  0.00     0.121 A 
HETATM   10  C   UNL     1      37.922 -11.274  -1.882  1.00  0.00     0.102 A 
HETATM   11  C   UNL     1      37.177 -12.060  -2.666  1.00  0.00     0.018 A 
HETATM   12  C   UNL     1      37.484 -13.460  -2.777  1.00  0.00     0.012 A 
ENDROOT
BRANCH   8  13
HETATM   13  C   UNL     1      41.760 -10.617   1.118  1.00  0.00     0.045 C 
BRANCH  13  14
HETATM   14  C   UNL     1      41.689 -10.314   2.422  1.00  0.00     0.077 A 
HETATM   15  S   UNL     1      40.722  -9.107   3.167  1.00  0.00    -0.055 SA
HETATM   16  C   UNL     1      41.466  -9.350   4.741  1.00  0.00     0.149 A 
HETATM   17  S   UNL     1      41.108  -8.356   6.033  1.00  0.00    -0.052 SA
HETATM   18  N   UNL     1      42.345 -10.411   4.684  1.00  0.00    -0.294 N 
HETATM   19  C   UNL     1      42.530 -10.993   3.440  1.00  0.00     0.266 A 
HETATM   20  O   UNL     1      43.314 -11.893   3.172  1.00  0.00    -0.266 OA
BRANCH  18  21
HETATM   21  C   UNL     1      43.123 -10.908   5.815  1.00  0.00     0.172 C 
BRANCH  21  22
HETATM   22  C   UNL     1      42.732 -12.316   6.211  1.00  0.00    -0.037 A 
HETATM   23  C   UNL     1      41.407 -12.756   6.043  1.00  0.00     0.048 A 
HETATM   24  C   UNL     1      41.095 -14.046   6.418  1.00  0.00     0.105 A 
HETATM   25  C   UNL     1      42.035 -14.895   6.950  1.00  0.00     0.105 A 
HETATM   26  O   UNL     1      39.871 -14.630   6.312  1.00  0.00    -0.323 OA
HETATM   27  O   UNL     1      41.522 -16.118   7.250  1.00  0.00    -0.323 OA
HETATM   28  C   UNL     1      43.341 -14.503   7.136  1.00  0.00     0.040 A 
HETATM   29  C   UNL     1      40.152 -15.946   6.834  1.00  0.00     0.352 A 
HETATM   30  C   UNL     1      43.690 -13.202   6.759  1.00  0.00     0.012 A 
ENDBRANCH  21  22
ENDBRANCH  18  21
ENDBRANCH  13  14
ENDBRANCH   8  13
BRANCH   9  31
HETATM   31  N   UNL     1      41.957 -13.545   1.114  1.00  0.00    -0.274 NA
HETATM   32  H   UNL     1      42.710 -13.801   0.467  1.00  0.00     0.129 HD
BRANCH  31  33
HETATM   33  C   UNL     1      41.645 -14.644   2.038  1.00  0.00     0.130 C 
BRANCH  33  34
HETATM   34  C   UNL     1      42.266 -15.980   1.554  1.00  0.00     0.164 C 
BRANCH  34  35
HETATM   35  O   UNL     1      43.226 -15.728   0.517  1.00  0.00    -0.390 OA
HETATM   36  H   UNL     1      42.781 -15.222  -0.184  1.00  0.00     0.210 HD
ENDBRANCH  34  35
BRANCH  34  37
HETATM   37  C   UNL     1      42.925 -16.864   2.594  1.00  0.00    -0.029 A 
HETATM   38  C   UNL     1      43.153 -18.237   2.417  1.00  0.00     0.010 A 
HETATM   39  C   UNL     1      43.772 -18.996   3.415  1.00  0.00     0.001 A 
HETATM   40  C   UNL     1      44.170 -18.397   4.607  1.00  0.00     0.000 A 
HETATM   41  C   UNL     1      43.944 -17.038   4.807  1.00  0.00     0.001 A 
HETATM   42  C   UNL     1      43.325 -16.281   3.810  1.00  0.00     0.010 A 
ENDBRANCH  34  37
ENDBRANCH  33  34
ENDBRANCH  31  33
ENDBRANCH   9  31
TORSDOF 9
ENDMDL
MODEL 3
REMARK VINA RESULT:      -9.7      2.117      2.621
REMARK  9 active torsions:
REMARK  status: ('A' for Active; 'I' for Inactive)
REMARK    1  A    between atoms: C_8  and  C_9 
REMARK    2  A    between atoms: C_9  and  C_10 
REMARK    3  A    between atoms: N_14  and  C_15 
REMARK    4  A    between atoms: C_15  and  C_16 
REMARK    5  A    between atoms: C_27  and  N_28 
REMARK    6  A    between atoms: N_28  and  C_29 
REMARK    7  A    between atoms: C_29  and  C_30 
REMARK    8  A    between atoms: C_30  and  O_31 
REMARK    9  A    between atoms: C_30  and  C_32 
ROOT
HETATM    1  C   UNL     1      39.962 -14.208  -1.075  1.00  0.00     0.052 C 
HETATM    2  C   UNL     1      39.296 -13.132  -0.275  1.00  0.00    -0.015 A 
HETATM    3  C   UNL     1      39.562 -13.097   1.206  1.00  0.00     0.144 A 
HETATM    4  N   UNL     1      40.267 -14.041   1.745  1.00  0.00    -0.217 NA
HETATM    5  N   UNL     1      39.028 -12.037   1.919  1.00  0.00    -0.272 N 
HETATM    6  C   UNL     1      39.286 -11.925   3.275  1.00  0.00     0.266 A 
HETATM    7  O   UNL     1      38.816 -11.043   3.999  1.00  0.00    -0.267 OA
HETATM    8  C   UNL     1      40.189 -12.956   3.864  1.00  0.00     0.074 A 
HETATM    9  C   UNL     1      40.566 -13.990   3.078  1.00  0.00     0.121 A 
HETATM   10  C   UNL     1      38.211 -11.096   1.304  1.00  0.00     0.102 A 
HETATM   11  C   UNL     1      37.933 -11.151  -0.003  1.00  0.00     0.018 A 
HETATM   12  C   UNL     1      38.510 -12.188  -0.815  1.00  0.00     0.012 A 
ENDROOT
BRANCH   8  13
HETATM   13  C   UNL     1      40.611 -12.780   5.249  1.00  0.00     0.045 C 
BRANCH  13  14
HETATM   14  C   UNL     1      41.708 -12.124   5.653  1.00  0.00     0.077 A 
HETATM   15  S   UNL     1      43.345 -12.608   5.475  1.00  0.00    -0.055 SA
HETATM   16  C   UNL     1      43.944 -11.277   6.453  1.00  0.00     0.149 A 
HETATM   17  S   UNL     1      45.555 -11.163   6.873  1.00  0.00    -0.052 SA
HETATM   18  N   UNL     1      42.901 -10.442   6.795  1.00  0.00    -0.294 N 
HETATM   19  C   UNL     1      41.635 -10.841   6.398  1.00  0.00     0.266 A 
HETATM   20  O   UNL     1      40.582 -10.278   6.663  1.00  0.00    -0.266 OA
BRANCH  18  21
HETATM   21  C   UNL     1      43.036  -9.222   7.586  1.00  0.00     0.172 C 
BRANCH  21  22
HETATM   22  C   UNL     1      42.873  -9.473   9.070  1.00  0.00    -0.037 A 
HETATM   23  C   UNL     1      41.619  -9.296   9.683  1.00  0.00     0.048 A 
HETATM   24  C   UNL     1      41.517  -9.536  11.038  1.00  0.00     0.105 A 
HETATM   25  C   UNL     1      42.596  -9.931  11.789  1.00  0.00     0.105 A 
HETATM   26  O   UNL     1      40.382  -9.425  11.780  1.00  0.00    -0.323 OA
HETATM   27  O   UNL     1      42.280 -10.115  13.099  1.00  0.00    -0.323 OA
HETATM   28  C   UNL     1      43.841 -10.110  11.230  1.00  0.00     0.040 A 
HETATM   29  C   UNL     1      40.872  -9.801  13.084  1.00  0.00     0.352 A 
HETATM   30  C   UNL     1      43.976  -9.882   9.856  1.00  0.00     0.012 A 
ENDBRANCH  21  22
ENDBRANCH  18  21
ENDBRANCH  13  14
ENDBRANCH   8  13
BRANCH   9  31
HETATM   31  N   UNL     1      41.329 -15.056   3.541  1.00  0.00    -0.274 NA
HETATM   32  H   UNL     1      41.648 -14.815   4.485  1.00  0.00     0.129 HD
BRANCH  31  33
HETATM   33  C   UNL     1      42.397 -15.690   2.757  1.00  0.00     0.130 C 
BRANCH  33  34
HETATM   34  C   UNL     1      43.385 -16.461   3.671  1.00  0.00     0.164 C 
BRANCH  34  35
HETATM   35  O   UNL     1      43.063 -16.225   5.050  1.00  0.00    -0.390 OA
HETATM   36  H   UNL     1      43.874 -16.361   5.571  1.00  0.00     0.210 HD
ENDBRANCH  34  35
BRANCH  34  37
HETATM   37  C   UNL     1      43.502 -17.959   3.469  1.00  0.00    -0.029 A 
HETATM   38  C   UNL     1      43.111 -18.620   2.296  1.00  0.00     0.010 A 
HETATM   39  C   UNL     1      43.251 -20.005   2.171  1.00  0.00     0.001 A 
HETATM   40  C   UNL     1      43.783 -20.754   3.218  1.00  0.00     0.000 A 
HETATM   41  C   UNL     1      44.168 -20.118   4.395  1.00  0.00     0.001 A 
HETATM   42  C   UNL     1      44.027 -18.734   4.519  1.00  0.00     0.010 A 
ENDBRANCH  34  37
ENDBRANCH  33  34
ENDBRANCH  31  33
ENDBRANCH   9  31
TORSDOF 9
ENDMDL
MODEL 4
REMARK VINA RESULT:      -9.7      2.279      3.553
REMARK  9 active torsions:
REMARK  status: ('A' for Active; 'I' for Inactive)
REMARK    1  A    between atoms: C_8  and  C_9 
REMARK    2  A    between atoms: C_9  and  C_10 
REMARK    3  A    between atoms: N_14  and  C_15 
REMARK    4  A    between atoms: C_15  and  C_16 
REMARK    5  A    between atoms: C_27  and  N_28 
REMARK    6  A    between atoms: N_28  and  C_29 
REMARK    7  A    between atoms: C_29  and  C_30 
REMARK    8  A    between atoms: C_30  and  O_31 
REMARK    9  A    between atoms: C_30  and  C_32 
ROOT
HETATM    1  C   UNL     1      38.749 -15.894  -2.410  1.00  0.00     0.052 C 
HETATM    2  C   UNL     1      38.737 -14.435  -2.082  1.00  0.00    -0.015 A 
HETATM    3  C   UNL     1      39.454 -13.994  -0.833  1.00  0.00     0.144 A 
HETATM    4  N   UNL     1      39.963 -14.888  -0.047  1.00  0.00    -0.217 NA
HETATM    5  N   UNL     1      39.528 -12.632  -0.595  1.00  0.00    -0.272 N 
HETATM    6  C   UNL     1      40.222 -12.167   0.510  1.00  0.00     0.266 A 
HETATM    7  O   UNL     1      40.301 -10.977   0.828  1.00  0.00    -0.267 OA
HETATM    8  C   UNL     1      40.897 -13.199   1.349  1.00  0.00     0.074 A 
HETATM    9  C   UNL     1      40.667 -14.500   1.058  1.00  0.00     0.121 A 
HETATM   10  C   UNL     1      38.892 -11.720  -1.430  1.00  0.00     0.102 A 
HETATM   11  C   UNL     1      38.214 -12.111  -2.514  1.00  0.00     0.018 A 
HETATM   12  C   UNL     1      38.154 -13.506  -2.857  1.00  0.00     0.012 A 
ENDROOT
BRANCH   8  13
HETATM   13  C   UNL     1      41.767 -12.738   2.425  1.00  0.00     0.045 C 
BRANCH  13  14
HETATM   14  C   UNL     1      41.361 -12.170   3.569  1.00  0.00     0.077 A 
HETATM   15  S   UNL     1      39.970 -12.559   4.497  1.00  0.00    -0.055 SA
HETATM   16  C   UNL     1      40.205 -11.203   5.590  1.00  0.00     0.149 A 
HETATM   17  S   UNL     1      39.076 -10.823   6.758  1.00  0.00    -0.052 SA
HETATM   18  N   UNL     1      41.388 -10.560   5.290  1.00  0.00    -0.294 N 
HETATM   19  C   UNL     1      42.082 -11.028   4.186  1.00  0.00     0.266 A 
HETATM   20  O   UNL     1      43.107 -10.550   3.719  1.00  0.00    -0.266 OA
BRANCH  18  21
HETATM   21  C   UNL     1      41.912  -9.403   6.010  1.00  0.00     0.172 C 
BRANCH  21  22
HETATM   22  C   UNL     1      42.635  -9.791   7.282  1.00  0.00    -0.037 A 
HETATM   23  C   UNL     1      42.122  -9.406   8.533  1.00  0.00     0.048 A 
HETATM   24  C   UNL     1      42.813  -9.782   9.666  1.00  0.00     0.105 A 
HETATM   25  C   UNL     1      43.978 -10.506   9.598  1.00  0.00     0.105 A 
HETATM   26  O   UNL     1      42.450  -9.503  10.947  1.00  0.00    -0.323 OA
HETATM   27  O   UNL     1      44.498 -10.773  10.826  1.00  0.00    -0.323 OA
HETATM   28  C   UNL     1      44.518 -10.898   8.395  1.00  0.00     0.040 A 
HETATM   29  C   UNL     1      43.518 -10.141  11.677  1.00  0.00     0.352 A 
HETATM   30  C   UNL     1      43.835 -10.538   7.227  1.00  0.00     0.012 A 
ENDBRANCH  21  22
ENDBRANCH  18  21
ENDBRANCH  13  14
ENDBRANCH   8  13
BRANCH   9  31
HETATM   31  N   UNL     1      41.167 -15.547   1.823  1.00  0.00    -0.274 NA
HETATM   32  H   UNL     1      40.966 -15.331   2.805  1.00  0.00     0.129 HD
BRANCH  31  33
HETATM   33  C   UNL     1      42.520 -16.097   1.660  1.00  0.00     0.130 C 
BRANCH  33  34
HETATM   34  C   UNL     1      43.116 -16.539   3.021  1.00  0.00     0.164 C 
BRANCH  34  35
HETATM   35  O   UNL     1      42.264 -16.109   4.094  1.00  0.00    -0.390 OA
HETATM   36  H   UNL     1      42.533 -15.208   4.344  1.00  0.00     0.210 HD
ENDBRANCH  34  35
BRANCH  34  37
HETATM   37  C   UNL     1      43.401 -18.015   3.216  1.00  0.00    -0.029 A 
HETATM   38  C   UNL     1      43.956 -18.553   4.387  1.00  0.00     0.010 A 
HETATM   39  C   UNL     1      44.189 -19.926   4.506  1.00  0.00     0.001 A 
HETATM   40  C   UNL     1      43.874 -20.785   3.456  1.00  0.00     0.000 A 
HETATM   41  C   UNL     1      43.331 -20.270   2.281  1.00  0.00     0.001 A 
HETATM   42  C   UNL     1      43.100 -18.898   2.163  1.00  0.00     0.010 A 
ENDBRANCH  34  37
ENDBRANCH  33  34
ENDBRANCH  31  33
ENDBRANCH   9  31
TORSDOF 9
ENDMDL
MODEL 5
REMARK VINA RESULT:      -9.3      3.088      4.643
REMARK  9 active torsions:
REMARK  status: ('A' for Active; 'I' for Inactive)
REMARK    1  A    between atoms: C_8  and  C_9 
REMARK    2  A    between atoms: C_9  and  C_10 
REMARK    3  A    between atoms: N_14  and  C_15 
REMARK    4  A    between atoms: C_15  and  C_16 
REMARK    5  A    between atoms: C_27  and  N_28 
REMARK    6  A    between atoms: N_28  and  C_29 
REMARK    7  A    between atoms: C_29  and  C_30 
REMARK    8  A    between atoms: C_30  and  O_31 
REMARK    9  A    between atoms: C_30  and  C_32 
ROOT
HETATM    1  C   UNL     1      38.702 -15.621  -2.406  1.00  0.00     0.052 C 
HETATM    2  C   UNL     1      38.309 -14.182  -2.290  1.00  0.00    -0.015 A 
HETATM    3  C   UNL     1      39.009 -13.349  -1.250  1.00  0.00     0.144 A 
HETATM    4  N   UNL     1      39.841 -13.918  -0.438  1.00  0.00    -0.217 NA
HETATM    5  N   UNL     1      38.715 -11.996  -1.222  1.00  0.00    -0.272 N 
HETATM    6  C   UNL     1      39.369 -11.172  -0.321  1.00  0.00     0.266 A 
HETATM    7  O   UNL     1      39.140  -9.966  -0.192  1.00  0.00    -0.267 OA
HETATM    8  C   UNL     1      40.406 -11.819   0.535  1.00  0.00     0.074 A 
HETATM    9  C   UNL     1      40.527 -13.164   0.473  1.00  0.00     0.121 A 
HETATM   10  C   UNL     1      37.752 -11.451  -2.063  1.00  0.00     0.102 A 
HETATM   11  C   UNL     1      37.094 -12.198  -2.957  1.00  0.00     0.018 A 
HETATM   12  C   UNL     1      37.398 -13.597  -3.084  1.00  0.00     0.012 A 
ENDROOT
BRANCH   8  13
HETATM   13  C   UNL     1      41.226 -10.957   1.379  1.00  0.00     0.045 C 
BRANCH  13  14
HETATM   14  C   UNL     1      40.920 -10.565   2.624  1.00  0.00     0.077 A 
HETATM   15  S   UNL     1      40.192  -9.088   3.109  1.00  0.00    -0.055 SA
HETATM   16  C   UNL     1      40.411  -9.433   4.818  1.00  0.00     0.149 A 
HETATM   17  S   UNL     1      40.045  -8.299   5.987  1.00  0.00    -0.052 SA
HETATM   18  N   UNL     1      40.927 -10.702   4.977  1.00  0.00    -0.294 N 
HETATM   19  C   UNL     1      41.241 -11.390   3.816  1.00  0.00     0.266 A 
HETATM   20  O   UNL     1      41.770 -12.491   3.748  1.00  0.00    -0.266 OA
BRANCH  18  21
HETATM   21  C   UNL     1      41.215 -11.328   6.264  1.00  0.00     0.172 C 
BRANCH  21  22
HETATM   22  C   UNL     1      42.664 -11.170   6.673  1.00  0.00    -0.037 A 
HETATM   23  C   UNL     1      43.107  -9.970   7.258  1.00  0.00     0.048 A 
HETATM   24  C   UNL     1      44.435  -9.869   7.614  1.00  0.00     0.105 A 
HETATM   25  C   UNL     1      45.322 -10.897   7.407  1.00  0.00     0.105 A 
HETATM   26  O   UNL     1      45.021  -8.789   8.198  1.00  0.00    -0.323 OA
HETATM   27  O   UNL     1      46.579 -10.594   7.831  1.00  0.00    -0.323 OA
HETATM   28  C   UNL     1      44.932 -12.085   6.834  1.00  0.00     0.040 A 
HETATM   29  C   UNL     1      46.378  -9.259   8.339  1.00  0.00     0.352 A 
HETATM   30  C   UNL     1      43.588 -12.221   6.468  1.00  0.00     0.012 A 
ENDBRANCH  21  22
ENDBRANCH  18  21
ENDBRANCH  13  14
ENDBRANCH   8  13
BRANCH   9  31
HETATM   31  N   UNL     1      41.393 -13.885   1.287  1.00  0.00    -0.274 NA
HETATM   32  H   UNL     1      42.325 -13.470   1.185  1.00  0.00     0.129 HD
BRANCH  31  33
HETATM   33  C   UNL     1      41.458 -15.353   1.304  1.00  0.00     0.130 C 
BRANCH  33  34
HETATM   34  C   UNL     1      42.921 -15.852   1.414  1.00  0.00     0.164 C 
BRANCH  34  35
HETATM   35  O   UNL     1      43.825 -14.738   1.351  1.00  0.00    -0.390 OA
HETATM   36  H   UNL     1      43.314 -13.954   1.086  1.00  0.00     0.210 HD
ENDBRANCH  34  35
BRANCH  34  37
HETATM   37  C   UNL     1      43.290 -16.683   2.627  1.00  0.00    -0.029 A 
HETATM   38  C   UNL     1      43.551 -18.060   2.576  1.00  0.00     0.010 A 
HETATM   39  C   UNL     1      43.892 -18.770   3.731  1.00  0.00     0.001 A 
HETATM   40  C   UNL     1      43.976 -18.115   4.957  1.00  0.00     0.000 A 
HETATM   41  C   UNL     1      43.711 -16.750   5.031  1.00  0.00     0.001 A 
HETATM   42  C   UNL     1      43.369 -16.042   3.876  1.00  0.00     0.010 A 
ENDBRANCH  34  37
ENDBRANCH  33  34
ENDBRANCH  31  33
ENDBRANCH   9  31
TORSDOF 9
ENDMDL
MODEL 6
REMARK VINA RESULT:      -9.3      3.733      8.805
REMARK  9 active torsions:
REMARK  status: ('A' for Active; 'I' for Inactive)
REMARK    1  A    between atoms: C_8  and  C_9 
REMARK    2  A    between atoms: C_9  and  C_10 
REMARK    3  A    between atoms: N_14  and  C_15 
REMARK    4  A    between atoms: C_15  and  C_16 
REMARK    5  A    between atoms: C_27  and  N_28 
REMARK    6  A    between atoms: N_28  and  C_29 
REMARK    7  A    between atoms: C_29  and  C_30 
REMARK    8  A    between atoms: C_30  and  O_31 
REMARK    9  A    between atoms: C_30  and  C_32 
ROOT
HETATM    1  C   UNL     1      45.089 -11.648   7.236  1.00  0.00     0.052 C 
HETATM    2  C   UNL     1      43.763 -10.958   7.161  1.00  0.00    -0.015 A 
HETATM    3  C   UNL     1      42.802 -11.406   6.093  1.00  0.00     0.144 A 
HETATM    4  N   UNL     1      43.184 -12.291   5.228  1.00  0.00    -0.217 NA
HETATM    5  N   UNL     1      41.540 -10.836   6.099  1.00  0.00    -0.272 N 
HETATM    6  C   UNL     1      40.597 -11.250   5.174  1.00  0.00     0.266 A 
HETATM    7  O   UNL     1      39.466 -10.766   5.073  1.00  0.00    -0.267 OA
HETATM    8  C   UNL     1      41.012 -12.346   4.252  1.00  0.00     0.074 A 
HETATM    9  C   UNL     1      42.302 -12.750   4.289  1.00  0.00     0.121 A 
HETATM   10  C   UNL     1      41.209  -9.830   7.001  1.00  0.00     0.102 A 
HETATM   11  C   UNL     1      42.078  -9.396   7.921  1.00  0.00     0.018 A 
HETATM   12  C   UNL     1      43.383  -9.992   8.013  1.00  0.00     0.012 A 
ENDROOT
BRANCH   8  13
HETATM   13  C   UNL     1      39.998 -12.918   3.373  1.00  0.00     0.045 C 
BRANCH  13  14
HETATM   14  C   UNL     1      39.608 -12.409   2.196  1.00  0.00     0.077 A 
HETATM   15  S   UNL     1      38.154 -11.566   1.847  1.00  0.00    -0.055 SA
HETATM   16  C   UNL     1      38.480 -11.526   0.121  1.00  0.00     0.149 A 
HETATM   17  S   UNL     1      37.353 -10.945  -0.963  1.00  0.00    -0.052 SA
HETATM   18  N   UNL     1      39.729 -12.052  -0.131  1.00  0.00    -0.294 N 
HETATM   19  C   UNL     1      40.414 -12.566   0.959  1.00  0.00     0.266 A 
HETATM   20  O   UNL     1      41.497 -13.135   0.931  1.00  0.00    -0.266 OA
BRANCH  18  21
HETATM   21  C   UNL     1      40.338 -12.156  -1.454  1.00  0.00     0.172 C 
BRANCH  21  22
HETATM   22  C   UNL     1      40.885 -10.832  -1.945  1.00  0.00    -0.037 A 
HETATM   23  C   UNL     1      41.780 -10.098  -1.147  1.00  0.00     0.048 A 
HETATM   24  C   UNL     1      42.253  -8.897  -1.633  1.00  0.00     0.105 A 
HETATM   25  C   UNL     1      41.869  -8.407  -2.857  1.00  0.00     0.105 A 
HETATM   26  O   UNL     1      43.130  -8.073  -0.998  1.00  0.00    -0.323 OA
HETATM   27  O   UNL     1      42.451  -7.212  -3.147  1.00  0.00    -0.323 OA
HETATM   28  C   UNL     1      40.991  -9.091  -3.667  1.00  0.00     0.040 A 
HETATM   29  C   UNL     1      43.256  -7.011  -1.967  1.00  0.00     0.352 A 
HETATM   30  C   UNL     1      40.499 -10.317  -3.204  1.00  0.00     0.012 A 
ENDBRANCH  21  22
ENDBRANCH  18  21
ENDBRANCH  13  14
ENDBRANCH   8  13
BRANCH   9  31
HETATM   31  N   UNL     1      42.826 -13.698   3.418  1.00  0.00    -0.274 NA
HETATM   32  H   UNL     1      42.279 -13.652   2.552  1.00  0.00     0.129 HD
BRANCH  31  33
HETATM   33  C   UNL     1      43.106 -15.088   3.804  1.00  0.00     0.130 C 
BRANCH  33  34
HETATM   34  C   UNL     1      42.813 -16.066   2.637  1.00  0.00     0.164 C 
BRANCH  34  35
HETATM   35  O   UNL     1      43.466 -15.613   1.441  1.00  0.00    -0.390 OA
HETATM   36  H   UNL     1      43.732 -14.687   1.580  1.00  0.00     0.210 HD
ENDBRANCH  34  35
BRANCH  34  37
HETATM   37  C   UNL     1      43.171 -17.525   2.839  1.00  0.00    -0.029 A 
HETATM   38  C   UNL     1      42.826 -18.543   1.938  1.00  0.00     0.010 A 
HETATM   39  C   UNL     1      43.192 -19.871   2.180  1.00  0.00     0.001 A 
HETATM   40  C   UNL     1      43.908 -20.203   3.328  1.00  0.00     0.000 A 
HETATM   41  C   UNL     1      44.252 -19.209   4.239  1.00  0.00     0.001 A 
HETATM   42  C   UNL     1      43.885 -17.883   3.997  1.00  0.00     0.010 A 
ENDBRANCH  34  37
ENDBRANCH  33  34
ENDBRANCH  31  33
ENDBRANCH   9  31
TORSDOF 9
ENDMDL
MODEL 7
REMARK VINA RESULT:      -9.1      2.546      9.836
REMARK  9 active torsions:
REMARK  status: ('A' for Active; 'I' for Inactive)
REMARK    1  A    between atoms: C_8  and  C_9 
REMARK    2  A    between atoms: C_9  and  C_10 
REMARK    3  A    between atoms: N_14  and  C_15 
REMARK    4  A    between atoms: C_15  and  C_16 
REMARK    5  A    between atoms: C_27  and  N_28 
REMARK    6  A    between atoms: N_28  and  C_29 
REMARK    7  A    between atoms: C_29  and  C_30 
REMARK    8  A    between atoms: C_30  and  O_31 
REMARK    9  A    between atoms: C_30  and  C_32 
ROOT
HETATM    1  C   UNL     1      40.290  -7.134  11.038  1.00  0.00     0.052 C 
HETATM    2  C   UNL     1      40.275  -6.721   9.600  1.00  0.00    -0.015 A 
HETATM    3  C   UNL     1      41.004  -7.596   8.614  1.00  0.00     0.144 A 
HETATM    4  N   UNL     1      41.689  -8.605   9.050  1.00  0.00    -0.217 NA
HETATM    5  N   UNL     1      40.895  -7.265   7.274  1.00  0.00    -0.272 N 
HETATM    6  C   UNL     1      41.500  -8.065   6.320  1.00  0.00     0.266 A 
HETATM    7  O   UNL     1      41.497  -7.824   5.110  1.00  0.00    -0.267 OA
HETATM    8  C   UNL     1      42.195  -9.285   6.824  1.00  0.00     0.074 A 
HETATM    9  C   UNL     1      42.307  -9.441   8.163  1.00  0.00     0.121 A 
HETATM   10  C   UNL     1      40.213  -6.123   6.869  1.00  0.00     0.102 A 
HETATM   11  C   UNL     1      39.605  -5.317   7.746  1.00  0.00     0.018 A 
HETATM   12  C   UNL     1      39.622  -5.640   9.147  1.00  0.00     0.012 A 
ENDROOT
BRANCH   8  13
HETATM   13  C   UNL     1      42.704 -10.234   5.841  1.00  0.00     0.045 C 
BRANCH  13  14
HETATM   14  C   UNL     1      41.974 -11.152   5.191  1.00  0.00     0.077 A 
HETATM   15  S   UNL     1      41.097 -10.952   3.728  1.00  0.00    -0.055 SA
HETATM   16  C   UNL     1      40.369 -12.547   3.837  1.00  0.00     0.149 A 
HETATM   17  S   UNL     1      39.198 -13.043   2.756  1.00  0.00    -0.052 SA
HETATM   18  N   UNL     1      40.894 -13.229   4.915  1.00  0.00    -0.294 N 
HETATM   19  C   UNL     1      41.781 -12.528   5.716  1.00  0.00     0.266 A 
HETATM   20  O   UNL     1      42.295 -12.930   6.750  1.00  0.00    -0.266 OA
BRANCH  18  21
HETATM   21  C   UNL     1      40.534 -14.592   5.293  1.00  0.00     0.172 C 
BRANCH  21  22
HETATM   22  C   UNL     1      41.417 -15.629   4.632  1.00  0.00    -0.037 A 
HETATM   23  C   UNL     1      42.448 -16.248   5.360  1.00  0.00     0.048 A 
HETATM   24  C   UNL     1      43.229 -17.186   4.717  1.00  0.00     0.105 A 
HETATM   25  C   UNL     1      43.027 -17.518   3.399  1.00  0.00     0.105 A 
HETATM   26  O   UNL     1      44.254 -17.883   5.276  1.00  0.00    -0.323 OA
HETATM   27  O   UNL     1      43.902 -18.462   2.960  1.00  0.00    -0.323 OA
HETATM   28  C   UNL     1      42.033 -16.932   2.649  1.00  0.00     0.040 A 
HETATM   29  C   UNL     1      44.671 -18.696   4.158  1.00  0.00     0.352 A 
HETATM   30  C   UNL     1      41.220 -15.981   3.276  1.00  0.00     0.012 A 
ENDBRANCH  21  22
ENDBRANCH  18  21
ENDBRANCH  13  14
ENDBRANCH   8  13
BRANCH   9  31
HETATM   31  N   UNL     1      43.010 -10.488   8.748  1.00  0.00    -0.274 NA
HETATM   32  H   UNL     1      42.345 -11.253   8.904  1.00  0.00     0.129 HD
BRANCH  31  33
HETATM   33  C   UNL     1      43.914 -10.319   9.894  1.00  0.00     0.130 C 
BRANCH  33  34
HETATM   34  C   UNL     1      43.247 -10.790  11.212  1.00  0.00     0.164 C 
BRANCH  34  35
HETATM   35  O   UNL     1      44.061 -11.789  11.844  1.00  0.00    -0.390 OA
HETATM   36  H   UNL     1      44.131 -11.562  12.788  1.00  0.00     0.210 HD
ENDBRANCH  34  35
BRANCH  34  37
HETATM   37  C   UNL     1      42.917  -9.733  12.248  1.00  0.00    -0.029 A 
HETATM   38  C   UNL     1      41.912  -9.877  13.215  1.00  0.00     0.010 A 
HETATM   39  C   UNL     1      41.662  -8.866  14.147  1.00  0.00     0.001 A 
HETATM   40  C   UNL     1      42.411  -7.692  14.127  1.00  0.00     0.000 A 
HETATM   41  C   UNL     1      43.407  -7.525  13.169  1.00  0.00     0.001 A 
HETATM   42  C   UNL     1      43.656  -8.535  12.237  1.00  0.00     0.010 A 
ENDBRANCH  34  37
ENDBRANCH  33  34
ENDBRANCH  31  33
ENDBRANCH   9  31
TORSDOF 9
ENDMDL
MODEL 8
REMARK VINA RESULT:      -9.0      2.687      9.869
REMARK  9 active torsions:
REMARK  status: ('A' for Active; 'I' for Inactive)
REMARK    1  A    between atoms: C_8  and  C_9 
REMARK    2  A    between atoms: C_9  and  C_10 
REMARK    3  A    between atoms: N_14  and  C_15 
REMARK    4  A    between atoms: C_15  and  C_16 
REMARK    5  A    between atoms: C_27  and  N_28 
REMARK    6  A    between atoms: N_28  and  C_29 
REMARK    7  A    between atoms: C_29  and  C_30 
REMARK    8  A    between atoms: C_30  and  O_31 
REMARK    9  A    between atoms: C_30  and  C_32 
ROOT
HETATM    1  C   UNL     1      43.477  -8.896  10.909  1.00  0.00     0.052 C 
HETATM    2  C   UNL     1      44.192  -9.502   9.743  1.00  0.00    -0.015 A 
HETATM    3  C   UNL     1      43.392  -9.771   8.497  1.00  0.00     0.144 A 
HETATM    4  N   UNL     1      42.113  -9.565   8.509  1.00  0.00    -0.217 NA
HETATM    5  N   UNL     1      44.083 -10.232   7.389  1.00  0.00    -0.272 N 
HETATM    6  C   UNL     1      43.406 -10.446   6.200  1.00  0.00     0.266 A 
HETATM    7  O   UNL     1      43.928 -10.899   5.177  1.00  0.00    -0.267 OA
HETATM    8  C   UNL     1      41.955 -10.101   6.193  1.00  0.00     0.074 A 
HETATM    9  C   UNL     1      41.384  -9.749   7.368  1.00  0.00     0.121 A 
HETATM   10  C   UNL     1      45.443 -10.515   7.456  1.00  0.00     0.102 A 
HETATM   11  C   UNL     1      46.148 -10.322   8.576  1.00  0.00     0.018 A 
HETATM   12  C   UNL     1      45.505  -9.782   9.743  1.00  0.00     0.012 A 
ENDROOT
BRANCH   8  13
HETATM   13  C   UNL     1      41.247 -10.160   4.920  1.00  0.00     0.045 C 
BRANCH  13  14
HETATM   14  C   UNL     1      41.206 -11.217   4.097  1.00  0.00     0.077 A 
HETATM   15  S   UNL     1      41.601 -11.263   2.427  1.00  0.00    -0.055 SA
HETATM   16  C   UNL     1      41.048 -12.921   2.246  1.00  0.00     0.149 A 
HETATM   17  S   UNL     1      40.983 -13.657   0.749  1.00  0.00    -0.052 SA
HETATM   18  N   UNL     1      40.683 -13.430   3.474  1.00  0.00    -0.294 N 
HETATM   19  C   UNL     1      40.736 -12.553   4.546  1.00  0.00     0.266 A 
HETATM   20  O   UNL     1      40.389 -12.791   5.694  1.00  0.00    -0.266 OA
BRANCH  18  21
HETATM   21  C   UNL     1      40.197 -14.787   3.703  1.00  0.00     0.172 C 
BRANCH  21  22
HETATM   22  C   UNL     1      41.323 -15.781   3.896  1.00  0.00    -0.037 A 
HETATM   23  C   UNL     1      41.710 -16.625   2.840  1.00  0.00     0.048 A 
HETATM   24  C   UNL     1      42.740 -17.516   3.061  1.00  0.00     0.105 A 
HETATM   25  C   UNL     1      43.382 -17.598   4.273  1.00  0.00     0.105 A 
HETATM   26  O   UNL     1      43.243 -18.390   2.148  1.00  0.00    -0.323 OA
HETATM   27  O   UNL     1      44.366 -18.536   4.278  1.00  0.00    -0.323 OA
HETATM   28  C   UNL     1      43.031 -16.794   5.333  1.00  0.00     0.040 A 
HETATM   29  C   UNL     1      44.279 -19.028   2.925  1.00  0.00     0.352 A 
HETATM   30  C   UNL     1      41.993 -15.875   5.138  1.00  0.00     0.012 A 
ENDBRANCH  21  22
ENDBRANCH  18  21
ENDBRANCH  13  14
ENDBRANCH   8  13
BRANCH   9  31
HETATM   31  N   UNL     1      40.024  -9.495   7.503  1.00  0.00    -0.274 NA
HETATM   32  H   UNL     1      39.645  -9.352   6.560  1.00  0.00     0.129 HD
BRANCH  31  33
HETATM   33  C   UNL     1      39.470  -8.524   8.456  1.00  0.00     0.130 C 
BRANCH  33  34
HETATM   34  C   UNL     1      38.854  -9.233   9.689  1.00  0.00     0.164 C 
BRANCH  34  35
HETATM   35  O   UNL     1      38.770 -10.647   9.451  1.00  0.00    -0.390 OA
HETATM   36  H   UNL     1      38.583 -10.778   8.505  1.00  0.00     0.210 HD
ENDBRANCH  34  35
BRANCH  34  37
HETATM   37  C   UNL     1      39.532  -9.027  11.029  1.00  0.00    -0.029 A 
HETATM   38  C   UNL     1      39.876  -7.767  11.542  1.00  0.00     0.010 A 
HETATM   39  C   UNL     1      40.495  -7.644  12.789  1.00  0.00     0.001 A 
HETATM   40  C   UNL     1      40.783  -8.778  13.544  1.00  0.00     0.000 A 
HETATM   41  C   UNL     1      40.459 -10.039  13.049  1.00  0.00     0.001 A 
HETATM   42  C   UNL     1      39.841 -10.160  11.803  1.00  0.00     0.010 A 
ENDBRANCH  34  37
ENDBRANCH  33  34
ENDBRANCH  31  33
ENDBRANCH   9  31
TORSDOF 9
ENDMDL
MODEL 9
REMARK VINA RESULT:      -8.9     18.292     20.372
REMARK  9 active torsions:
REMARK  status: ('A' for Active; 'I' for Inactive)
REMARK    1  A    between atoms: C_8  and  C_9 
REMARK    2  A    between atoms: C_9  and  C_10 
REMARK    3  A    between atoms: N_14  and  C_15 
REMARK    4  A    between atoms: C_15  and  C_16 
REMARK    5  A    between atoms: C_27  and  N_28 
REMARK    6  A    between atoms: N_28  and  C_29 
REMARK    7  A    between atoms: C_29  and  C_30 
REMARK    8  A    between atoms: C_30  and  O_31 
REMARK    9  A    between atoms: C_30  and  C_32 
ROOT
HETATM    1  C   UNL     1      51.886 -30.331  -2.505  1.00  0.00     0.052 C 
HETATM    2  C   UNL     1      51.683 -31.243  -1.336  1.00  0.00    -0.015 A 
HETATM    3  C   UNL     1      50.553 -30.926  -0.393  1.00  0.00     0.144 A 
HETATM    4  N   UNL     1      49.870 -29.840  -0.565  1.00  0.00    -0.217 NA
HETATM    5  N   UNL     1      50.306 -31.834   0.624  1.00  0.00    -0.272 N 
HETATM    6  C   UNL     1      49.246 -31.621   1.489  1.00  0.00     0.266 A 
HETATM    7  O   UNL     1      48.979 -32.347   2.450  1.00  0.00    -0.267 OA
HETATM    8  C   UNL     1      48.398 -30.424   1.214  1.00  0.00     0.074 A 
HETATM    9  C   UNL     1      48.805 -29.570   0.248  1.00  0.00     0.121 A 
HETATM   10  C   UNL     1      51.123 -32.942   0.813  1.00  0.00     0.102 A 
HETATM   11  C   UNL     1      52.157 -33.201   0.005  1.00  0.00     0.018 A 
HETATM   12  C   UNL     1      52.428 -32.336  -1.111  1.00  0.00     0.012 A 
ENDROOT
BRANCH   8  13
HETATM   13  C   UNL     1      47.182 -30.256   2.002  1.00  0.00     0.045 C 
BRANCH  13  14
HETATM   14  C   UNL     1      45.978 -30.758   1.696  1.00  0.00     0.077 A 
HETATM   15  S   UNL     1      45.628 -32.260   0.944  1.00  0.00    -0.055 SA
HETATM   16  C   UNL     1      43.914 -31.897   0.802  1.00  0.00     0.149 A 
HETATM   17  S   UNL     1      42.876 -32.911  -0.022  1.00  0.00    -0.052 SA
HETATM   18  N   UNL     1      43.637 -30.699   1.425  1.00  0.00    -0.294 N 
HETATM   19  C   UNL     1      44.721 -30.005   1.939  1.00  0.00     0.266 A 
HETATM   20  O   UNL     1      44.691 -28.899   2.462  1.00  0.00    -0.266 OA
BRANCH  18  21
HETATM   21  C   UNL     1      42.310 -30.098   1.522  1.00  0.00     0.172 C 
BRANCH  21  22
HETATM   22  C   UNL     1      41.492 -30.682   2.654  1.00  0.00    -0.037 A 
HETATM   23  C   UNL     1      40.520 -31.664   2.391  1.00  0.00     0.048 A 
HETATM   24  C   UNL     1      39.798 -32.168   3.453  1.00  0.00     0.105 A 
HETATM   25  C   UNL     1      39.999 -31.732   4.740  1.00  0.00     0.105 A 
HETATM   26  O   UNL     1      38.835 -33.126   3.375  1.00  0.00    -0.323 OA
HETATM   27  O   UNL     1      39.187 -32.357   5.635  1.00  0.00    -0.323 OA
HETATM   28  C   UNL     1      40.935 -30.769   5.040  1.00  0.00     0.040 A 
HETATM   29  C   UNL     1      38.458 -33.246   4.762  1.00  0.00     0.352 A 
HETATM   30  C   UNL     1      41.689 -30.244   3.985  1.00  0.00     0.012 A 
ENDBRANCH  21  22
ENDBRANCH  18  21
ENDBRANCH  13  14
ENDBRANCH   8  13
BRANCH   9  31
HETATM   31  N   UNL     1      48.148 -28.378  -0.035  1.00  0.00    -0.274 NA
HETATM   32  H   UNL     1      47.576 -28.142   0.783  1.00  0.00     0.129 HD
BRANCH  31  33
HETATM   33  C   UNL     1      47.422 -28.128  -1.288  1.00  0.00     0.130 C 
BRANCH  33  34
HETATM   34  C   UNL     1      45.981 -28.697  -1.227  1.00  0.00     0.164 C 
BRANCH  34  35
HETATM   35  O   UNL     1      45.076 -27.692  -0.747  1.00  0.00    -0.390 OA
HETATM   36  H   UNL     1      44.486 -28.110  -0.096  1.00  0.00     0.210 HD
ENDBRANCH  34  35
BRANCH  34  37
HETATM   37  C   UNL     1      45.401 -29.275  -2.504  1.00  0.00    -0.029 A 
HETATM   38  C   UNL     1      44.102 -29.007  -2.959  1.00  0.00     0.010 A 
HETATM   39  C   UNL     1      43.628 -29.567  -4.149  1.00  0.00     0.001 A 
HETATM   40  C   UNL     1      44.445 -30.406  -4.903  1.00  0.00     0.000 A 
HETATM   41  C   UNL     1      45.735 -30.692  -4.464  1.00  0.00     0.001 A 
HETATM   42  C   UNL     1      46.206 -30.133  -3.275  1.00  0.00     0.010 A 
ENDBRANCH  34  37
ENDBRANCH  33  34
ENDBRANCH  31  33
ENDBRANCH   9  31
TORSDOF 9
ENDMDL
MODEL 10
REMARK VINA RESULT:      -8.5     18.154     20.246
REMARK  9 active torsions:
REMARK  status: ('A' for Active; 'I' for Inactive)
REMARK    1  A    between atoms: C_8  and  C_9 
REMARK    2  A    between atoms: C_9  and  C_10 
REMARK    3  A    between atoms: N_14  and  C_15 
REMARK    4  A    between atoms: C_15  and  C_16 
REMARK    5  A    between atoms: C_27  and  N_28 
REMARK    6  A    between atoms: N_28  and  C_29 
REMARK    7  A    between atoms: C_29  and  C_30 
REMARK    8  A    between atoms: C_30  and  O_31 
REMARK    9  A    between atoms: C_30  and  C_32 
ROOT
HETATM    1  C   UNL     1      49.315 -29.519  -2.116  1.00  0.00     0.052 C 
HETATM    2  C   UNL     1      49.500 -29.855  -0.670  1.00  0.00    -0.015 A 
HETATM    3  C   UNL     1      48.316 -29.683   0.244  1.00  0.00     0.144 A 
HETATM    4  N   UNL     1      47.225 -29.165  -0.224  1.00  0.00    -0.217 NA
HETATM    5  N   UNL     1      48.466 -30.097   1.557  1.00  0.00    -0.272 N 
HETATM    6  C   UNL     1      47.393 -30.012   2.428  1.00  0.00     0.266 A 
HETATM    7  O   UNL     1      47.445 -30.311   3.624  1.00  0.00    -0.267 OA
HETATM    8  C   UNL     1      46.109 -29.516   1.851  1.00  0.00     0.074 A 
HETATM    9  C   UNL     1      46.124 -29.057   0.579  1.00  0.00     0.121 A 
HETATM   10  C   UNL     1      49.685 -30.570   2.027  1.00  0.00     0.102 A 
HETATM   11  C   UNL     1      50.753 -30.680   1.230  1.00  0.00     0.018 A 
HETATM   12  C   UNL     1      50.648 -30.330  -0.161  1.00  0.00     0.012 A 
ENDROOT
BRANCH   8  13
HETATM   13  C   UNL     1      44.920 -29.564   2.694  1.00  0.00     0.045 C 
BRANCH  13  14
HETATM   14  C   UNL     1      44.076 -30.600   2.795  1.00  0.00     0.077 A 
HETATM   15  S   UNL     1      44.459 -32.235   3.154  1.00  0.00    -0.055 SA
HETATM   16  C   UNL     1      42.818 -32.784   2.853  1.00  0.00     0.149 A 
HETATM   17  S   UNL     1      42.428 -34.407   2.867  1.00  0.00    -0.052 SA
HETATM   18  N   UNL     1      42.002 -31.702   2.598  1.00  0.00    -0.294 N 
HETATM   19  C   UNL     1      42.619 -30.463   2.542  1.00  0.00     0.266 A 
HETATM   20  O   UNL     1      42.084 -29.400   2.260  1.00  0.00    -0.266 OA
BRANCH  18  21
HETATM   21  C   UNL     1      40.569 -31.785   2.327  1.00  0.00     0.172 C 
BRANCH  21  22
HETATM   22  C   UNL     1      39.773 -32.205   3.545  1.00  0.00    -0.037 A 
HETATM   23  C   UNL     1      38.603 -32.971   3.396  1.00  0.00     0.048 A 
HETATM   24  C   UNL     1      37.909 -33.330   4.533  1.00  0.00     0.105 A 
HETATM   25  C   UNL     1      38.327 -32.955   5.786  1.00  0.00     0.105 A 
HETATM   26  O   UNL     1      36.772 -34.075   4.566  1.00  0.00    -0.323 OA
HETATM   27  O   UNL     1      37.504 -33.413   6.768  1.00  0.00    -0.323 OA
HETATM   28  C   UNL     1      39.462 -32.201   5.977  1.00  0.00     0.040 A 
HETATM   29  C   UNL     1      36.525 -34.130   5.987  1.00  0.00     0.352 A 
HETATM   30  C   UNL     1      40.192 -31.827   4.842  1.00  0.00     0.012 A 
ENDBRANCH  21  22
ENDBRANCH  18  21
ENDBRANCH  13  14
ENDBRANCH   8  13
BRANCH   9  31
HETATM   31  N   UNL     1      45.014 -28.488  -0.035  1.00  0.00    -0.274 NA
HETATM   32  H   UNL     1      44.491 -27.982   0.688  1.00  0.00     0.129 HD
BRANCH  31  33
HETATM   33  C   UNL     1      44.114 -29.228  -0.930  1.00  0.00     0.130 C 
BRANCH  33  34
HETATM   34  C   UNL     1      44.325 -28.814  -2.409  1.00  0.00     0.164 C 
BRANCH  34  35
HETATM   35  O   UNL     1      45.554 -28.084  -2.544  1.00  0.00    -0.390 OA
HETATM   36  H   UNL     1      45.352 -27.139  -2.430  1.00  0.00     0.210 HD
ENDBRANCH  34  35
BRANCH  34  37
HETATM   37  C   UNL     1      44.320 -29.914  -3.452  1.00  0.00    -0.029 A 
HETATM   38  C   UNL     1      44.306 -29.676  -4.834  1.00  0.00     0.010 A 
HETATM   39  C   UNL     1      44.309 -30.737  -5.746  1.00  0.00     0.001 A 
HETATM   40  C   UNL     1      44.323 -32.053  -5.290  1.00  0.00     0.000 A 
HETATM   41  C   UNL     1      44.327 -32.311  -3.922  1.00  0.00     0.001 A 
HETATM   42  C   UNL     1      44.324 -31.251  -3.013  1.00  0.00     0.010 A 
ENDBRANCH  34  37
ENDBRANCH  33  34
ENDBRANCH  31  33
ENDBRANCH   9  31
TORSDOF 9
ENDMDL
