MODEL 1
REMARK VINA RESULT:      -8.6      0.000      0.000
REMARK  6 active torsions:
REMARK  status: ('A' for Active; 'I' for Inactive)
REMARK    1  A    between atoms: C_4  and  C_5 
REMARK    2  A    between atoms: C_7  and  S_8 
REMARK    3  A    between atoms: S_8  and  C_9 
REMARK    4  A    between atoms: C_9  and  C_10 
REMARK       I    between atoms: C_10  and  N_11 
REMARK    5  A    between atoms: N_11  and  C_12 
REMARK    6  A    between atoms: C_26  and  C_27 
ROOT
HETATM    1  C   UNL     1      42.547 -16.429   2.907  1.00  0.00     0.076 A 
HETATM    2  N   UNL     1      43.095 -16.260   4.135  1.00  0.00    -0.239 NA
HETATM    3  C   UNL     1      43.670 -17.312   4.762  1.00  0.00     0.116 A 
HETATM    4  C   UNL     1      43.738 -18.580   4.184  1.00  0.00     0.095 A 
HETATM    5  C   UNL     1      44.327 -19.684   4.884  1.00  0.00     0.103 C 
HETATM    6  N   UNL     1      44.786 -20.597   5.431  1.00  0.00    -0.191 NA
HETATM    7  C   UNL     1      43.188 -18.755   2.904  1.00  0.00     0.073 A 
HETATM    8  C   UNL     1      42.585 -17.658   2.266  1.00  0.00     0.050 A 
ENDROOT
BRANCH   3   9
HETATM    9  S   UNL     1      44.215 -17.008   6.446  1.00  0.00    -0.100 SA
BRANCH   9  10
HETATM   10  C   UNL     1      42.780 -16.134   7.167  1.00  0.00     0.184 C 
BRANCH  10  11
HETATM   11  C   UNL     1      42.740 -14.624   6.950  1.00  0.00     0.231 C 
HETATM   12  N   UNL     1      41.907 -14.185   5.938  1.00  0.00    -0.326 N 
HETATM   13  H   UNL     1      41.399 -14.918   5.458  1.00  0.00     0.169 HD
HETATM   14  O   UNL     1      43.427 -13.896   7.667  1.00  0.00    -0.272 OA
BRANCH  12  15
HETATM   15  C   UNL     1      41.852 -12.903   5.359  1.00  0.00     0.037 A 
HETATM   16  C   UNL     1      40.720 -12.081   5.404  1.00  0.00     0.061 A 
HETATM   17  C   UNL     1      40.837 -10.825   4.853  1.00  0.00     0.065 A 
HETATM   18  C   UNL     1      42.017 -10.371   4.269  1.00  0.00     0.063 A 
HETATM   19  N   UNL     1      39.897  -9.804   4.765  1.00  0.00    -0.306 N 
HETATM   20  N   UNL     1      41.806  -9.071   3.828  1.00  0.00    -0.307 N 
HETATM   21  C   UNL     1      43.141 -11.152   4.195  1.00  0.00     0.034 A 
HETATM   22  C   UNL     1      40.486  -8.702   4.131  1.00  0.00     0.325 A 
HETATM   23  H   UNL     1      42.463  -8.463   3.369  1.00  0.00     0.170 HD
HETATM   24  O   UNL     1      39.958  -7.631   3.890  1.00  0.00    -0.247 OA
HETATM   25  C   UNL     1      43.047 -12.437   4.746  1.00  0.00     0.032 A 
HETATM   26  H   UNL     1      38.946  -9.824   5.095  1.00  0.00     0.170 HD
ENDBRANCH  12  15
ENDBRANCH  10  11
ENDBRANCH   9  10
ENDBRANCH   3   9
BRANCH   7  27
HETATM   27  C   UNL     1      43.196 -20.104   2.232  1.00  0.00     0.419 C 
HETATM   28  F   UNL     1      43.234 -21.129   3.122  1.00  0.00    -0.166 F 
HETATM   29  F   UNL     1      42.095 -20.295   1.459  1.00  0.00    -0.166 F 
HETATM   30  F   UNL     1      44.265 -20.286   1.409  1.00  0.00    -0.166 F 
ENDBRANCH   7  27
BRANCH   1  31
HETATM   31  C   UNL     1      41.892 -15.224   2.367  1.00  0.00     0.033 A 
HETATM   32  S   UNL     1      40.207 -14.934   2.577  1.00  0.00    -0.100 SA
HETATM   33  C   UNL     1      40.274 -13.437   1.760  1.00  0.00     0.050 A 
HETATM   34  C   UNL     1      41.544 -13.146   1.324  1.00  0.00     0.008 A 
HETATM   35  C   UNL     1      42.469 -14.174   1.667  1.00  0.00     0.021 A 
ENDBRANCH   1  31
TORSDOF 6
ENDMDL
MODEL 2
REMARK VINA RESULT:      -8.6      7.420     10.194
REMARK  6 active torsions:
REMARK  status: ('A' for Active; 'I' for Inactive)
REMARK    1  A    between atoms: C_4  and  C_5 
REMARK    2  A    between atoms: C_7  and  S_8 
REMARK    3  A    between atoms: S_8  and  C_9 
REMARK    4  A    between atoms: C_9  and  C_10 
REMARK       I    between atoms: C_10  and  N_11 
REMARK    5  A    between atoms: N_11  and  C_12 
REMARK    6  A    between atoms: C_26  and  C_27 
ROOT
HETATM    1  C   UNL     1      43.290  -9.165   9.988  1.00  0.00     0.076 A 
HETATM    2  N   UNL     1      42.033  -9.347   9.516  1.00  0.00    -0.239 NA
HETATM    3  C   UNL     1      40.973  -9.036  10.297  1.00  0.00     0.116 A 
HETATM    4  C   UNL     1      41.120  -8.514  11.582  1.00  0.00     0.095 A 
HETATM    5  C   UNL     1      39.979  -8.223  12.400  1.00  0.00     0.103 C 
HETATM    6  N   UNL     1      39.075  -7.988  13.087  1.00  0.00    -0.191 NA
HETATM    7  C   UNL     1      42.421  -8.308  12.069  1.00  0.00     0.073 A 
HETATM    8  C   UNL     1      43.514  -8.642  11.253  1.00  0.00     0.050 A 
ENDROOT
BRANCH   3   9
HETATM    9  S   UNL     1      39.364  -9.469   9.628  1.00  0.00    -0.100 SA
BRANCH   9  10
HETATM   10  C   UNL     1      39.674  -9.455   7.826  1.00  0.00     0.184 C 
BRANCH  10  11
HETATM   11  C   UNL     1      39.419 -10.771   7.095  1.00  0.00     0.231 C 
HETATM   12  N   UNL     1      40.546 -11.468   6.704  1.00  0.00    -0.326 N 
HETATM   13  H   UNL     1      41.425 -11.034   6.959  1.00  0.00     0.169 HD
HETATM   14  O   UNL     1      38.259 -11.135   6.902  1.00  0.00    -0.272 OA
BRANCH  12  15
HETATM   15  C   UNL     1      40.623 -12.561   5.819  1.00  0.00     0.037 A 
HETATM   16  C   UNL     1      39.779 -12.724   4.715  1.00  0.00     0.061 A 
HETATM   17  C   UNL     1      40.018 -13.808   3.900  1.00  0.00     0.065 A 
HETATM   18  C   UNL     1      41.046 -14.715   4.144  1.00  0.00     0.063 A 
HETATM   19  N   UNL     1      39.359 -14.210   2.744  1.00  0.00    -0.306 N 
HETATM   20  N   UNL     1      41.024 -15.671   3.137  1.00  0.00    -0.307 N 
HETATM   21  C   UNL     1      41.884 -14.595   5.223  1.00  0.00     0.034 A 
HETATM   22  C   UNL     1      39.976 -15.370   2.254  1.00  0.00     0.325 A 
HETATM   23  H   UNL     1      41.640 -16.459   3.023  1.00  0.00     0.170 HD
HETATM   24  O   UNL     1      39.665 -15.994   1.255  1.00  0.00    -0.247 OA
HETATM   25  C   UNL     1      41.659 -13.502   6.070  1.00  0.00     0.032 A 
HETATM   26  H   UNL     1      38.571 -13.762   2.307  1.00  0.00     0.170 HD
ENDBRANCH  12  15
ENDBRANCH  10  11
ENDBRANCH   9  10
ENDBRANCH   3   9
BRANCH   7  27
HETATM   27  C   UNL     1      42.656  -7.779  13.461  1.00  0.00     0.419 C 
HETATM   28  F   UNL     1      43.966  -7.527  13.708  1.00  0.00    -0.166 F 
HETATM   29  F   UNL     1      41.983  -6.621  13.686  1.00  0.00    -0.166 F 
HETATM   30  F   UNL     1      42.252  -8.639  14.435  1.00  0.00    -0.166 F 
ENDBRANCH   7  27
BRANCH   1  31
HETATM   31  C   UNL     1      44.352  -9.608   9.066  1.00  0.00     0.033 A 
HETATM   32  S   UNL     1      44.155 -10.983   8.047  1.00  0.00    -0.100 SA
HETATM   33  C   UNL     1      45.694 -10.785   7.336  1.00  0.00     0.050 A 
HETATM   34  C   UNL     1      46.363  -9.702   7.852  1.00  0.00     0.008 A 
HETATM   35  C   UNL     1      45.595  -9.032   8.849  1.00  0.00     0.021 A 
ENDBRANCH   1  31
TORSDOF 6
ENDMDL
MODEL 3
REMARK VINA RESULT:      -8.6      4.852      7.237
REMARK  6 active torsions:
REMARK  status: ('A' for Active; 'I' for Inactive)
REMARK    1  A    between atoms: C_4  and  C_5 
REMARK    2  A    between atoms: C_7  and  S_8 
REMARK    3  A    between atoms: S_8  and  C_9 
REMARK    4  A    between atoms: C_9  and  C_10 
REMARK       I    between atoms: C_10  and  N_11 
REMARK    5  A    between atoms: N_11  and  C_12 
REMARK    6  A    between atoms: C_26  and  C_27 
ROOT
HETATM    1  C   UNL     1      43.904 -12.172   6.682  1.00  0.00     0.076 A 
HETATM    2  N   UNL     1      43.724 -12.078   5.342  1.00  0.00    -0.239 NA
HETATM    3  C   UNL     1      43.236 -13.137   4.656  1.00  0.00     0.116 A 
HETATM    4  C   UNL     1      42.890 -14.336   5.281  1.00  0.00     0.095 A 
HETATM    5  C   UNL     1      42.404 -15.453   4.525  1.00  0.00     0.103 C 
HETATM    6  N   UNL     1      42.019 -16.376   3.938  1.00  0.00    -0.191 NA
HETATM    7  C   UNL     1      43.057 -14.431   6.672  1.00  0.00     0.073 A 
HETATM    8  C   UNL     1      43.573 -13.328   7.373  1.00  0.00     0.050 A 
ENDROOT
BRANCH   3   9
HETATM    9  S   UNL     1      43.195 -12.953   2.871  1.00  0.00    -0.100 SA
BRANCH   9  10
HETATM   10  C   UNL     1      42.330 -11.355   2.665  1.00  0.00     0.184 C 
BRANCH  10  11
HETATM   11  C   UNL     1      41.439 -11.233   1.431  1.00  0.00     0.231 C 
HETATM   12  N   UNL     1      40.523 -12.251   1.248  1.00  0.00    -0.326 N 
HETATM   13  H   UNL     1      40.533 -12.965   1.966  1.00  0.00     0.169 HD
HETATM   14  O   UNL     1      41.575 -10.261   0.688  1.00  0.00    -0.272 OA
BRANCH  12  15
HETATM   15  C   UNL     1      39.757 -12.529   0.100  1.00  0.00     0.037 A 
HETATM   16  C   UNL     1      40.096 -13.511  -0.838  1.00  0.00     0.061 A 
HETATM   17  C   UNL     1      39.214 -13.717  -1.874  1.00  0.00     0.065 A 
HETATM   18  C   UNL     1      38.032 -12.992  -2.005  1.00  0.00     0.063 A 
HETATM   19  N   UNL     1      39.281 -14.619  -2.930  1.00  0.00    -0.306 N 
HETATM   20  N   UNL     1      37.369 -13.451  -3.137  1.00  0.00    -0.307 N 
HETATM   21  C   UNL     1      37.673 -12.014  -1.114  1.00  0.00     0.034 A 
HETATM   22  C   UNL     1      38.137 -14.467  -3.726  1.00  0.00     0.325 A 
HETATM   23  H   UNL     1      36.487 -13.135  -3.503  1.00  0.00     0.170 HD
HETATM   24  O   UNL     1      37.860 -15.096  -4.732  1.00  0.00    -0.247 OA
HETATM   25  C   UNL     1      38.557 -11.782  -0.051  1.00  0.00     0.032 A 
HETATM   26  H   UNL     1      40.014 -15.283  -3.116  1.00  0.00     0.170 HD
ENDBRANCH  12  15
ENDBRANCH  10  11
ENDBRANCH   9  10
ENDBRANCH   3   9
BRANCH   7  27
HETATM   27  C   UNL     1      42.735 -15.706   7.408  1.00  0.00     0.419 C 
HETATM   28  F   UNL     1      43.030 -15.632   8.731  1.00  0.00    -0.166 F 
HETATM   29  F   UNL     1      41.419 -16.029   7.316  1.00  0.00    -0.166 F 
HETATM   30  F   UNL     1      43.417 -16.784   6.935  1.00  0.00    -0.166 F 
ENDBRANCH   7  27
BRANCH   1  31
HETATM   31  C   UNL     1      44.506 -10.975   7.296  1.00  0.00     0.033 A 
HETATM   32  S   UNL     1      43.545  -9.663   7.865  1.00  0.00    -0.100 SA
HETATM   33  C   UNL     1      44.904  -8.793   8.419  1.00  0.00     0.050 A 
HETATM   34  C   UNL     1      46.077  -9.467   8.183  1.00  0.00     0.008 A 
HETATM   35  C   UNL     1      45.849 -10.715   7.533  1.00  0.00     0.021 A 
ENDBRANCH   1  31
TORSDOF 6
ENDMDL
MODEL 4
REMARK VINA RESULT:      -8.4      3.739      6.892
REMARK  6 active torsions:
REMARK  status: ('A' for Active; 'I' for Inactive)
REMARK    1  A    between atoms: C_4  and  C_5 
REMARK    2  A    between atoms: C_7  and  S_8 
REMARK    3  A    between atoms: S_8  and  C_9 
REMARK    4  A    between atoms: C_9  and  C_10 
REMARK       I    between atoms: C_10  and  N_11 
REMARK    5  A    between atoms: N_11  and  C_12 
REMARK    6  A    between atoms: C_26  and  C_27 
ROOT
HETATM    1  C   UNL     1      40.864 -14.308   0.543  1.00  0.00     0.076 A 
HETATM    2  N   UNL     1      41.166 -12.994   0.678  1.00  0.00    -0.239 NA
HETATM    3  C   UNL     1      40.645 -12.095  -0.188  1.00  0.00     0.116 A 
HETATM    4  C   UNL     1      39.784 -12.465  -1.222  1.00  0.00     0.095 A 
HETATM    5  C   UNL     1      39.271 -11.495  -2.144  1.00  0.00     0.103 C 
HETATM    6  N   UNL     1      38.850 -10.734  -2.911  1.00  0.00    -0.191 NA
HETATM    7  C   UNL     1      39.453 -13.824  -1.354  1.00  0.00     0.073 A 
HETATM    8  C   UNL     1      40.007 -14.750  -0.455  1.00  0.00     0.050 A 
ENDROOT
BRANCH   3   9
HETATM    9  S   UNL     1      41.243 -10.411  -0.011  1.00  0.00    -0.100 SA
BRANCH   9  10
HETATM   10  C   UNL     1      40.101  -9.722   1.239  1.00  0.00     0.184 C 
BRANCH  10  11
HETATM   11  C   UNL     1      40.333 -10.177   2.678  1.00  0.00     0.231 C 
HETATM   12  N   UNL     1      41.566 -10.744   2.936  1.00  0.00    -0.326 N 
HETATM   13  H   UNL     1      42.191 -10.783   2.140  1.00  0.00     0.169 HD
HETATM   14  O   UNL     1      39.440 -10.016   3.509  1.00  0.00    -0.272 OA
BRANCH  12  15
HETATM   15  C   UNL     1      41.965 -11.461   4.080  1.00  0.00     0.037 A 
HETATM   16  C   UNL     1      41.539 -12.764   4.366  1.00  0.00     0.061 A 
HETATM   17  C   UNL     1      42.068 -13.362   5.487  1.00  0.00     0.065 A 
HETATM   18  C   UNL     1      42.986 -12.722   6.315  1.00  0.00     0.063 A 
HETATM   19  N   UNL     1      41.842 -14.633   6.003  1.00  0.00    -0.306 N 
HETATM   20  N   UNL     1      43.328 -13.598   7.337  1.00  0.00    -0.307 N 
HETATM   21  C   UNL     1      43.416 -11.442   6.074  1.00  0.00     0.034 A 
HETATM   22  C   UNL     1      42.622 -14.797   7.156  1.00  0.00     0.325 A 
HETATM   23  H   UNL     1      43.971 -13.438   8.094  1.00  0.00     0.170 HD
HETATM   24  O   UNL     1      42.679 -15.787   7.864  1.00  0.00    -0.247 OA
HETATM   25  C   UNL     1      42.889 -10.808   4.941  1.00  0.00     0.032 A 
HETATM   26  H   UNL     1      41.228 -15.339   5.632  1.00  0.00     0.170 HD
ENDBRANCH  12  15
ENDBRANCH  10  11
ENDBRANCH   9  10
ENDBRANCH   3   9
BRANCH   7  27
HETATM   27  C   UNL     1      38.557 -14.301  -2.467  1.00  0.00     0.419 C 
HETATM   28  F   UNL     1      38.451 -15.653  -2.508  1.00  0.00    -0.166 F 
HETATM   29  F   UNL     1      37.294 -13.812  -2.350  1.00  0.00    -0.166 F 
HETATM   30  F   UNL     1      38.988 -13.924  -3.701  1.00  0.00    -0.166 F 
ENDBRANCH   7  27
BRANCH   1  31
HETATM   31  C   UNL     1      41.551 -15.188   1.505  1.00  0.00     0.033 A 
HETATM   32  S   UNL     1      43.226 -15.010   1.864  1.00  0.00    -0.100 SA
HETATM   33  C   UNL     1      43.207 -16.280   3.003  1.00  0.00     0.050 A 
HETATM   34  C   UNL     1      41.961 -16.846   3.121  1.00  0.00     0.008 A 
HETATM   35  C   UNL     1      41.014 -16.224   2.257  1.00  0.00     0.021 A 
ENDBRANCH   1  31
TORSDOF 6
ENDMDL
MODEL 5
REMARK VINA RESULT:      -8.2      4.177      4.470
REMARK  6 active torsions:
REMARK  status: ('A' for Active; 'I' for Inactive)
REMARK    1  A    between atoms: C_4  and  C_5 
REMARK    2  A    between atoms: C_7  and  S_8 
REMARK    3  A    between atoms: S_8  and  C_9 
REMARK    4  A    between atoms: C_9  and  C_10 
REMARK       I    between atoms: C_10  and  N_11 
REMARK    5  A    between atoms: N_11  and  C_12 
REMARK    6  A    between atoms: C_26  and  C_27 
ROOT
HETATM    1  C   UNL     1      42.073 -15.158   2.849  1.00  0.00     0.076 A 
HETATM    2  N   UNL     1      42.165 -14.306   3.898  1.00  0.00    -0.239 NA
HETATM    3  C   UNL     1      42.784 -14.706   5.033  1.00  0.00     0.116 A 
HETATM    4  C   UNL     1      43.353 -15.972   5.167  1.00  0.00     0.095 A 
HETATM    5  C   UNL     1      43.976 -16.381   6.392  1.00  0.00     0.103 C 
HETATM    6  N   UNL     1      44.476 -16.742   7.374  1.00  0.00    -0.191 NA
HETATM    7  C   UNL     1      43.276 -16.852   4.075  1.00  0.00     0.073 A 
HETATM    8  C   UNL     1      42.624 -16.430   2.905  1.00  0.00     0.050 A 
ENDROOT
BRANCH   3   9
HETATM    9  S   UNL     1      42.702 -13.554   6.408  1.00  0.00    -0.100 SA
BRANCH   9  10
HETATM   10  C   UNL     1      44.335 -12.735   6.327  1.00  0.00     0.184 C 
BRANCH  10  11
HETATM   11  C   UNL     1      44.588 -11.647   7.368  1.00  0.00     0.231 C 
HETATM   12  N   UNL     1      43.533 -11.370   8.216  1.00  0.00    -0.326 N 
HETATM   13  H   UNL     1      42.705 -11.933   8.062  1.00  0.00     0.169 HD
HETATM   14  O   UNL     1      45.686 -11.093   7.401  1.00  0.00    -0.272 OA
BRANCH  12  15
HETATM   15  C   UNL     1      43.391 -10.277   9.091  1.00  0.00     0.037 A 
HETATM   16  C   UNL     1      42.692  -9.109   8.765  1.00  0.00     0.061 A 
HETATM   17  C   UNL     1      42.580  -8.152   9.748  1.00  0.00     0.065 A 
HETATM   18  C   UNL     1      43.128  -8.315  11.017  1.00  0.00     0.063 A 
HETATM   19  N   UNL     1      41.942  -6.917   9.715  1.00  0.00    -0.306 N 
HETATM   20  N   UNL     1      42.825  -7.185  11.766  1.00  0.00    -0.307 N 
HETATM   21  C   UNL     1      43.831  -9.440  11.369  1.00  0.00     0.034 A 
HETATM   22  C   UNL     1      42.084  -6.303  10.967  1.00  0.00     0.325 A 
HETATM   23  H   UNL     1      43.074  -6.997  12.723  1.00  0.00     0.170 HD
HETATM   24  O   UNL     1      41.647  -5.215  11.298  1.00  0.00    -0.247 OA
HETATM   25  C   UNL     1      43.963 -10.427  10.384  1.00  0.00     0.032 A 
HETATM   26  H   UNL     1      41.451  -6.508   8.937  1.00  0.00     0.170 HD
ENDBRANCH  12  15
ENDBRANCH  10  11
ENDBRANCH   9  10
ENDBRANCH   3   9
BRANCH   7  27
HETATM   27  C   UNL     1      43.840 -18.247   4.160  1.00  0.00     0.419 C 
HETATM   28  F   UNL     1      43.352 -18.943   5.219  1.00  0.00    -0.166 F 
HETATM   29  F   UNL     1      43.561 -18.978   3.048  1.00  0.00    -0.166 F 
HETATM   30  F   UNL     1      45.194 -18.271   4.290  1.00  0.00    -0.166 F 
ENDBRANCH   7  27
BRANCH   1  31
HETATM   31  C   UNL     1      41.315 -14.625   1.702  1.00  0.00     0.033 A 
HETATM   32  S   UNL     1      41.430 -12.974   1.226  1.00  0.00    -0.100 SA
HETATM   33  C   UNL     1      40.368 -13.189  -0.092  1.00  0.00     0.050 A 
HETATM   34  C   UNL     1      39.920 -14.484  -0.185  1.00  0.00     0.008 A 
HETATM   35  C   UNL     1      40.458 -15.305   0.849  1.00  0.00     0.021 A 
ENDBRANCH   1  31
TORSDOF 6
ENDMDL
MODEL 6
REMARK VINA RESULT:      -8.1      4.777      6.530
REMARK  6 active torsions:
REMARK  status: ('A' for Active; 'I' for Inactive)
REMARK    1  A    between atoms: C_4  and  C_5 
REMARK    2  A    between atoms: C_7  and  S_8 
REMARK    3  A    between atoms: S_8  and  C_9 
REMARK    4  A    between atoms: C_9  and  C_10 
REMARK       I    between atoms: C_10  and  N_11 
REMARK    5  A    between atoms: N_11  and  C_12 
REMARK    6  A    between atoms: C_26  and  C_27 
ROOT
HETATM    1  C   UNL     1      43.757 -12.442   6.773  1.00  0.00     0.076 A 
HETATM    2  N   UNL     1      42.635 -12.034   6.133  1.00  0.00    -0.239 NA
HETATM    3  C   UNL     1      41.883 -12.935   5.459  1.00  0.00     0.116 A 
HETATM    4  C   UNL     1      42.211 -14.290   5.407  1.00  0.00     0.095 A 
HETATM    5  C   UNL     1      41.413 -15.219   4.660  1.00  0.00     0.103 C 
HETATM    6  N   UNL     1      40.793 -15.990   4.055  1.00  0.00    -0.191 NA
HETATM    7  C   UNL     1      43.364 -14.720   6.084  1.00  0.00     0.073 A 
HETATM    8  C   UNL     1      44.141 -13.775   6.773  1.00  0.00     0.050 A 
ENDROOT
BRANCH   3   9
HETATM    9  S   UNL     1      40.514 -12.255   4.518  1.00  0.00    -0.100 SA
BRANCH   9  10
HETATM   10  C   UNL     1      39.188 -12.160   5.774  1.00  0.00     0.184 C 
BRANCH  10  11
HETATM   11  C   UNL     1      39.073 -10.835   6.524  1.00  0.00     0.231 C 
HETATM   12  N   UNL     1      40.009 -10.624   7.517  1.00  0.00    -0.326 N 
HETATM   13  H   UNL     1      40.684 -11.370   7.630  1.00  0.00     0.169 HD
HETATM   14  O   UNL     1      38.182 -10.045   6.212  1.00  0.00    -0.272 OA
BRANCH  12  15
HETATM   15  C   UNL     1      40.003  -9.630   8.515  1.00  0.00     0.037 A 
HETATM   16  C   UNL     1      39.297  -9.746   9.718  1.00  0.00     0.061 A 
HETATM   17  C   UNL     1      39.441  -8.723  10.628  1.00  0.00     0.065 A 
HETATM   18  C   UNL     1      40.245  -7.612  10.384  1.00  0.00     0.063 A 
HETATM   19  N   UNL     1      38.880  -8.574  11.891  1.00  0.00    -0.306 N 
HETATM   20  N   UNL     1      40.183  -6.784  11.497  1.00  0.00    -0.307 N 
HETATM   21  C   UNL     1      40.940  -7.458   9.212  1.00  0.00     0.034 A 
HETATM   22  C   UNL     1      39.334  -7.371  12.448  1.00  0.00     0.325 A 
HETATM   23  H   UNL     1      40.654  -5.906  11.637  1.00  0.00     0.170 HD
HETATM   24  O   UNL     1      39.051  -6.922  13.544  1.00  0.00    -0.247 OA
HETATM   25  C   UNL     1      40.807  -8.485   8.267  1.00  0.00     0.032 A 
HETATM   26  H   UNL     1      38.251  -9.209  12.355  1.00  0.00     0.170 HD
ENDBRANCH  12  15
ENDBRANCH  10  11
ENDBRANCH   9  10
ENDBRANCH   3   9
BRANCH   7  27
HETATM   27  C   UNL     1      43.797 -16.163   6.043  1.00  0.00     0.419 C 
HETATM   28  F   UNL     1      42.892 -16.996   6.618  1.00  0.00    -0.166 F 
HETATM   29  F   UNL     1      43.983 -16.603   4.771  1.00  0.00    -0.166 F 
HETATM   30  F   UNL     1      44.973 -16.388   6.690  1.00  0.00    -0.166 F 
ENDBRANCH   7  27
BRANCH   1  31
HETATM   31  C   UNL     1      44.521 -11.352   7.407  1.00  0.00     0.033 A 
HETATM   32  S   UNL     1      43.950 -10.543   8.817  1.00  0.00    -0.100 SA
HETATM   33  C   UNL     1      45.331  -9.546   8.911  1.00  0.00     0.050 A 
HETATM   34  C   UNL     1      46.221  -9.803   7.897  1.00  0.00     0.008 A 
HETATM   35  C   UNL     1      45.752 -10.834   7.031  1.00  0.00     0.021 A 
ENDBRANCH   1  31
TORSDOF 6
ENDMDL
MODEL 7
REMARK VINA RESULT:      -8.0      3.882      6.698
REMARK  6 active torsions:
REMARK  status: ('A' for Active; 'I' for Inactive)
REMARK    1  A    between atoms: C_4  and  C_5 
REMARK    2  A    between atoms: C_7  and  S_8 
REMARK    3  A    between atoms: S_8  and  C_9 
REMARK    4  A    between atoms: C_9  and  C_10 
REMARK       I    between atoms: C_10  and  N_11 
REMARK    5  A    between atoms: N_11  and  C_12 
REMARK    6  A    between atoms: C_26  and  C_27 
ROOT
HETATM    1  C   UNL     1      40.872 -14.119   0.670  1.00  0.00     0.076 A 
HETATM    2  N   UNL     1      41.014 -12.774   0.759  1.00  0.00    -0.239 NA
HETATM    3  C   UNL     1      40.426 -11.976  -0.161  1.00  0.00     0.116 A 
HETATM    4  C   UNL     1      39.654 -12.484  -1.207  1.00  0.00     0.095 A 
HETATM    5  C   UNL     1      39.068 -11.617  -2.186  1.00  0.00     0.103 C 
HETATM    6  N   UNL     1      38.591 -10.941  -2.999  1.00  0.00    -0.191 NA
HETATM    7  C   UNL     1      39.489 -13.877  -1.293  1.00  0.00     0.073 A 
HETATM    8  C   UNL     1      40.112 -14.696  -0.337  1.00  0.00     0.050 A 
ENDROOT
BRANCH   3   9
HETATM    9  S   UNL     1      40.817 -10.228  -0.036  1.00  0.00    -0.100 SA
BRANCH   9  10
HETATM   10  C   UNL     1      39.763  -9.693   1.359  1.00  0.00     0.184 C 
BRANCH  10  11
HETATM   11  C   UNL     1      40.228 -10.121   2.749  1.00  0.00     0.231 C 
HETATM   12  N   UNL     1      41.535  -9.807   3.068  1.00  0.00    -0.326 N 
HETATM   13  H   UNL     1      42.041  -9.310   2.345  1.00  0.00     0.169 HD
HETATM   14  O   UNL     1      39.438 -10.702   3.493  1.00  0.00    -0.272 OA
BRANCH  12  15
HETATM   15  C   UNL     1      42.298 -10.279   4.153  1.00  0.00     0.037 A 
HETATM   16  C   UNL     1      42.109  -9.857   5.474  1.00  0.00     0.061 A 
HETATM   17  C   UNL     1      42.885 -10.458   6.439  1.00  0.00     0.065 A 
HETATM   18  C   UNL     1      43.823 -11.442   6.140  1.00  0.00     0.063 A 
HETATM   19  N   UNL     1      42.907 -10.252   7.814  1.00  0.00    -0.306 N 
HETATM   20  N   UNL     1      44.418 -11.846   7.328  1.00  0.00    -0.307 N 
HETATM   21  C   UNL     1      44.045 -11.871   4.856  1.00  0.00     0.034 A 
HETATM   22  C   UNL     1      43.856 -11.112   8.383  1.00  0.00     0.325 A 
HETATM   23  H   UNL     1      45.131 -12.545   7.452  1.00  0.00     0.170 HD
HETATM   24  O   UNL     1      44.138 -11.207   9.565  1.00  0.00    -0.247 OA
HETATM   25  C   UNL     1      43.270 -11.272   3.854  1.00  0.00     0.032 A 
HETATM   26  H   UNL     1      42.345  -9.604   8.340  1.00  0.00     0.170 HD
ENDBRANCH  12  15
ENDBRANCH  10  11
ENDBRANCH   9  10
ENDBRANCH   3   9
BRANCH   7  27
HETATM   27  C   UNL     1      38.697 -14.498  -2.414  1.00  0.00     0.419 C 
HETATM   28  F   UNL     1      38.657 -15.852  -2.335  1.00  0.00    -0.166 F 
HETATM   29  F   UNL     1      37.409 -14.067  -2.428  1.00  0.00    -0.166 F 
HETATM   30  F   UNL     1      39.199 -14.211  -3.646  1.00  0.00    -0.166 F 
ENDBRANCH   7  27
BRANCH   1  31
HETATM   31  C   UNL     1      41.619 -14.875   1.691  1.00  0.00     0.033 A 
HETATM   32  S   UNL     1      41.193 -14.815   3.359  1.00  0.00    -0.100 SA
HETATM   33  C   UNL     1      42.423 -15.911   3.803  1.00  0.00     0.050 A 
HETATM   34  C   UNL     1      43.158 -16.324   2.719  1.00  0.00     0.008 A 
HETATM   35  C   UNL     1      42.701 -15.724   1.510  1.00  0.00     0.021 A 
ENDBRANCH   1  31
TORSDOF 6
ENDMDL
MODEL 8
REMARK VINA RESULT:      -8.0      6.984      9.033
REMARK  6 active torsions:
REMARK  status: ('A' for Active; 'I' for Inactive)
REMARK    1  A    between atoms: C_4  and  C_5 
REMARK    2  A    between atoms: C_7  and  S_8 
REMARK    3  A    between atoms: S_8  and  C_9 
REMARK    4  A    between atoms: C_9  and  C_10 
REMARK       I    between atoms: C_10  and  N_11 
REMARK    5  A    between atoms: N_11  and  C_12 
REMARK    6  A    between atoms: C_26  and  C_27 
ROOT
HETATM    1  C   UNL     1      43.203 -12.281   6.280  1.00  0.00     0.076 A 
HETATM    2  N   UNL     1      42.123 -11.490   6.068  1.00  0.00    -0.239 NA
HETATM    3  C   UNL     1      42.106 -10.232   6.566  1.00  0.00     0.116 A 
HETATM    4  C   UNL     1      43.176  -9.700   7.288  1.00  0.00     0.095 A 
HETATM    5  C   UNL     1      43.118  -8.375   7.830  1.00  0.00     0.103 C 
HETATM    6  N   UNL     1      43.095  -7.310   8.291  1.00  0.00    -0.191 NA
HETATM    7  C   UNL     1      44.305 -10.510   7.493  1.00  0.00     0.073 A 
HETATM    8  C   UNL     1      44.308 -11.818   6.979  1.00  0.00     0.050 A 
ENDROOT
BRANCH   3   9
HETATM    9  S   UNL     1      40.563  -9.338   6.363  1.00  0.00    -0.100 SA
BRANCH   9  10
HETATM   10  C   UNL     1      39.505 -10.089   7.652  1.00  0.00     0.184 C 
BRANCH  10  11
HETATM   11  C   UNL     1      39.547  -9.418   9.023  1.00  0.00     0.231 C 
HETATM   12  N   UNL     1      40.645  -9.719   9.805  1.00  0.00    -0.326 N 
HETATM   13  H   UNL     1      41.315 -10.344   9.375  1.00  0.00     0.169 HD
HETATM   14  O   UNL     1      38.630  -8.664   9.349  1.00  0.00    -0.272 OA
BRANCH  12  15
HETATM   15  C   UNL     1      40.830  -9.451  11.175  1.00  0.00     0.037 A 
HETATM   16  C   UNL     1      41.680  -8.451  11.661  1.00  0.00     0.061 A 
HETATM   17  C   UNL     1      41.706  -8.261  13.024  1.00  0.00     0.065 A 
HETATM   18  C   UNL     1      40.932  -9.017  13.901  1.00  0.00     0.063 A 
HETATM   19  N   UNL     1      42.435  -7.347  13.778  1.00  0.00    -0.306 N 
HETATM   20  N   UNL     1      41.179  -8.566  15.191  1.00  0.00    -0.307 N 
HETATM   21  C   UNL     1      40.098 -10.013  13.462  1.00  0.00     0.034 A 
HETATM   22  C   UNL     1      42.115  -7.523  15.131  1.00  0.00     0.325 A 
HETATM   23  H   UNL     1      40.773  -8.904  16.048  1.00  0.00     0.170 HD
HETATM   24  O   UNL     1      42.561  -6.893  16.074  1.00  0.00    -0.247 OA
HETATM   25  C   UNL     1      40.057 -10.230  12.078  1.00  0.00     0.032 A 
HETATM   26  H   UNL     1      43.087  -6.661  13.436  1.00  0.00     0.170 HD
ENDBRANCH  12  15
ENDBRANCH  10  11
ENDBRANCH   9  10
ENDBRANCH   3   9
BRANCH   7  27
HETATM   27  C   UNL     1      45.482 -10.014   8.291  1.00  0.00     0.419 C 
HETATM   28  F   UNL     1      45.945  -8.817   7.848  1.00  0.00    -0.166 F 
HETATM   29  F   UNL     1      45.177  -9.854   9.605  1.00  0.00    -0.166 F 
HETATM   30  F   UNL     1      46.547 -10.860   8.258  1.00  0.00    -0.166 F 
ENDBRANCH   7  27
BRANCH   1  31
HETATM   31  C   UNL     1      43.065 -13.648   5.746  1.00  0.00     0.033 A 
HETATM   32  S   UNL     1      43.500 -15.033   6.672  1.00  0.00    -0.100 SA
HETATM   33  C   UNL     1      43.026 -16.115   5.440  1.00  0.00     0.050 A 
HETATM   34  C   UNL     1      42.547 -15.455   4.334  1.00  0.00     0.008 A 
HETATM   35  C   UNL     1      42.576 -14.041   4.508  1.00  0.00     0.021 A 
ENDBRANCH   1  31
TORSDOF 6
ENDMDL
MODEL 9
REMARK VINA RESULT:      -7.8     15.585     18.193
REMARK  6 active torsions:
REMARK  status: ('A' for Active; 'I' for Inactive)
REMARK    1  A    between atoms: C_4  and  C_5 
REMARK    2  A    between atoms: C_7  and  S_8 
REMARK    3  A    between atoms: S_8  and  C_9 
REMARK    4  A    between atoms: C_9  and  C_10 
REMARK       I    between atoms: C_10  and  N_11 
REMARK    5  A    between atoms: N_11  and  C_12 
REMARK    6  A    between atoms: C_26  and  C_27 
ROOT
HETATM    1  C   UNL     1      43.407 -29.966   1.010  1.00  0.00     0.076 A 
HETATM    2  N   UNL     1      44.463 -29.622   1.787  1.00  0.00    -0.239 NA
HETATM    3  C   UNL     1      45.551 -29.051   1.222  1.00  0.00     0.116 A 
HETATM    4  C   UNL     1      45.630 -28.783  -0.145  1.00  0.00     0.095 A 
HETATM    5  C   UNL     1      46.808 -28.205  -0.722  1.00  0.00     0.103 C 
HETATM    6  N   UNL     1      47.752 -27.749  -1.218  1.00  0.00    -0.191 NA
HETATM    7  C   UNL     1      44.530 -29.121  -0.951  1.00  0.00     0.073 A 
HETATM    8  C   UNL     1      43.409 -29.722  -0.355  1.00  0.00     0.050 A 
ENDROOT
BRANCH   3   9
HETATM    9  S   UNL     1      46.948 -28.788   2.320  1.00  0.00    -0.100 SA
BRANCH   9  10
HETATM   10  C   UNL     1      47.551 -30.491   2.597  1.00  0.00     0.184 C 
BRANCH  10  11
HETATM   11  C   UNL     1      48.335 -31.117   1.445  1.00  0.00     0.231 C 
HETATM   12  N   UNL     1      49.606 -30.615   1.242  1.00  0.00    -0.326 N 
HETATM   13  H   UNL     1      49.887 -29.892   1.893  1.00  0.00     0.169 HD
HETATM   14  O   UNL     1      47.812 -32.011   0.780  1.00  0.00    -0.272 OA
BRANCH  12  15
HETATM   15  C   UNL     1      50.448 -30.818   0.132  1.00  0.00     0.037 A 
HETATM   16  C   UNL     1      51.537 -31.698   0.137  1.00  0.00     0.061 A 
HETATM   17  C   UNL     1      52.229 -31.843  -1.044  1.00  0.00     0.065 A 
HETATM   18  C   UNL     1      51.881 -31.157  -2.204  1.00  0.00     0.063 A 
HETATM   19  N   UNL     1      53.328 -32.644  -1.335  1.00  0.00    -0.306 N 
HETATM   20  N   UNL     1      52.762 -31.537  -3.209  1.00  0.00    -0.307 N 
HETATM   21  C   UNL     1      50.830 -30.277  -2.244  1.00  0.00     0.034 A 
HETATM   22  C   UNL     1      53.671 -32.465  -2.682  1.00  0.00     0.325 A 
HETATM   23  H   UNL     1      52.775 -31.224  -4.166  1.00  0.00     0.170 HD
HETATM   24  O   UNL     1      54.581 -33.012  -3.281  1.00  0.00    -0.247 OA
HETATM   25  C   UNL     1      50.112 -30.108  -1.052  1.00  0.00     0.032 A 
HETATM   26  H   UNL     1      53.815 -33.259  -0.704  1.00  0.00     0.170 HD
ENDBRANCH  12  15
ENDBRANCH  10  11
ENDBRANCH   9  10
ENDBRANCH   3   9
BRANCH   7  27
HETATM   27  C   UNL     1      44.558 -28.892  -2.440  1.00  0.00     0.419 C 
HETATM   28  F   UNL     1      45.525 -29.614  -3.060  1.00  0.00    -0.166 F 
HETATM   29  F   UNL     1      43.380 -29.226  -3.029  1.00  0.00    -0.166 F 
HETATM   30  F   UNL     1      44.787 -27.594  -2.778  1.00  0.00    -0.166 F 
ENDBRANCH   7  27
BRANCH   1  31
HETATM   31  C   UNL     1      42.317 -30.642   1.737  1.00  0.00     0.033 A 
HETATM   32  S   UNL     1      41.970 -30.289   3.387  1.00  0.00    -0.100 SA
HETATM   33  C   UNL     1      40.655 -31.376   3.434  1.00  0.00     0.050 A 
HETATM   34  C   UNL     1      40.469 -32.009   2.229  1.00  0.00     0.008 A 
HETATM   35  C   UNL     1      41.426 -31.593   1.259  1.00  0.00     0.021 A 
ENDBRANCH   1  31
TORSDOF 6
ENDMDL
MODEL 10
REMARK VINA RESULT:      -7.8      5.301      7.945
REMARK  6 active torsions:
REMARK  status: ('A' for Active; 'I' for Inactive)
REMARK    1  A    between atoms: C_4  and  C_5 
REMARK    2  A    between atoms: C_7  and  S_8 
REMARK    3  A    between atoms: S_8  and  C_9 
REMARK    4  A    between atoms: C_9  and  C_10 
REMARK       I    between atoms: C_10  and  N_11 
REMARK    5  A    between atoms: N_11  and  C_12 
REMARK    6  A    between atoms: C_26  and  C_27 
ROOT
HETATM    1  C   UNL     1      43.512 -12.576   6.369  1.00  0.00     0.076 A 
HETATM    2  N   UNL     1      42.366 -11.860   6.265  1.00  0.00    -0.239 NA
HETATM    3  C   UNL     1      42.329 -10.588   6.724  1.00  0.00     0.116 A 
HETATM    4  C   UNL     1      43.439  -9.967   7.296  1.00  0.00     0.095 A 
HETATM    5  C   UNL     1      43.362  -8.628   7.802  1.00  0.00     0.103 C 
HETATM    6  N   UNL     1      43.326  -7.550   8.230  1.00  0.00    -0.191 NA
HETATM    7  C   UNL     1      44.634 -10.700   7.389  1.00  0.00     0.073 A 
HETATM    8  C   UNL     1      44.659 -12.023   6.918  1.00  0.00     0.050 A 
ENDROOT
BRANCH   3   9
HETATM    9  S   UNL     1      40.718  -9.795   6.680  1.00  0.00    -0.100 SA
BRANCH   9  10
HETATM   10  C   UNL     1      39.725 -10.986   5.712  1.00  0.00     0.184 C 
BRANCH  10  11
HETATM   11  C   UNL     1      39.725 -10.780   4.198  1.00  0.00     0.231 C 
HETATM   12  N   UNL     1      39.032 -11.722   3.464  1.00  0.00    -0.326 N 
HETATM   13  H   UNL     1      38.584 -12.445   4.015  1.00  0.00     0.169 HD
HETATM   14  O   UNL     1      40.320  -9.812   3.725  1.00  0.00    -0.272 OA
BRANCH  12  15
HETATM   15  C   UNL     1      39.061 -11.926   2.072  1.00  0.00     0.037 A 
HETATM   16  C   UNL     1      40.068 -12.645   1.415  1.00  0.00     0.061 A 
HETATM   17  C   UNL     1      39.926 -12.820   0.057  1.00  0.00     0.065 A 
HETATM   18  C   UNL     1      38.841 -12.314  -0.654  1.00  0.00     0.063 A 
HETATM   19  N   UNL     1      40.750 -13.490  -0.841  1.00  0.00    -0.306 N 
HETATM   20  N   UNL     1      38.993 -12.676  -1.986  1.00  0.00    -0.307 N 
HETATM   21  C   UNL     1      37.843 -11.595  -0.047  1.00  0.00     0.034 A 
HETATM   22  C   UNL     1      40.180 -13.411  -2.119  1.00  0.00     0.325 A 
HETATM   23  H   UNL     1      38.376 -12.468  -2.754  1.00  0.00     0.170 HD
HETATM   24  O   UNL     1      40.627 -13.889  -3.147  1.00  0.00    -0.247 OA
HETATM   25  C   UNL     1      37.966 -11.398   1.335  1.00  0.00     0.032 A 
HETATM   26  H   UNL     1      41.614 -13.963  -0.636  1.00  0.00     0.170 HD
ENDBRANCH  12  15
ENDBRANCH  10  11
ENDBRANCH   9  10
ENDBRANCH   3   9
BRANCH   7  27
HETATM   27  C   UNL     1      45.863 -10.105   8.026  1.00  0.00     0.419 C 
HETATM   28  F   UNL     1      45.775 -10.050   9.379  1.00  0.00    -0.166 F 
HETATM   29  F   UNL     1      46.983 -10.817   7.734  1.00  0.00    -0.166 F 
HETATM   30  F   UNL     1      46.115  -8.832   7.617  1.00  0.00    -0.166 F 
ENDBRANCH   7  27
BRANCH   1  31
HETATM   31  C   UNL     1      43.399 -13.968   5.896  1.00  0.00     0.033 A 
HETATM   32  S   UNL     1      42.530 -14.374   4.465  1.00  0.00    -0.100 SA
HETATM   33  C   UNL     1      42.902 -16.033   4.605  1.00  0.00     0.050 A 
HETATM   34  C   UNL     1      43.669 -16.297   5.714  1.00  0.00     0.008 A 
HETATM   35  C   UNL     1      43.947 -15.113   6.457  1.00  0.00     0.021 A 
ENDBRANCH   1  31
TORSDOF 6
ENDMDL
