MODEL 1
REMARK VINA RESULT:      -8.4      0.000      0.000
REMARK  8 active torsions:
REMARK  status: ('A' for Active; 'I' for Inactive)
REMARK    1  A    between atoms: C_2  and  C_3 
REMARK    2  A    between atoms: C_3  and  S_4 
REMARK    3  A    between atoms: S_4  and  C_5 
REMARK    4  A    between atoms: N_6  and  C_7 
REMARK    5  A    between atoms: C_8  and  O_9 
REMARK    6  A    between atoms: C_15  and  C_16 
REMARK    7  A    between atoms: C_16  and  N_17 
REMARK       I    between atoms: N_17  and  C_18 
REMARK    8  A    between atoms: C_18  and  C_19 
ROOT
HETATM    1  C   UNL     1      43.845 -11.652   5.748  1.00  0.00     0.196 A 
HETATM    2  N   UNL     1      43.108 -12.641   5.121  1.00  0.00    -0.271 N 
HETATM    3  C   UNL     1      43.490 -12.549   3.788  1.00  0.00     0.153 A 
HETATM    4  N   UNL     1      44.374 -11.577   3.647  1.00  0.00    -0.132 NA
HETATM    5  N   UNL     1      44.604 -11.025   4.878  1.00  0.00    -0.122 NA
ENDROOT
BRANCH   3   6
HETATM    6  C   UNL     1      42.906 -13.324   2.663  1.00  0.00     0.204 C 
BRANCH   6   7
HETATM    7  N   UNL     1      43.386 -14.687   2.737  1.00  0.00    -0.350 N 
HETATM    8  C   UNL     1      42.505 -15.736   2.884  1.00  0.00     0.252 C 
HETATM    9  O   UNL     1      41.286 -15.581   2.855  1.00  0.00    -0.268 OA
HETATM   10  H   UNL     1      44.360 -14.807   2.980  1.00  0.00     0.163 HD
BRANCH   8  11
HETATM   11  C   UNL     1      43.083 -17.090   3.125  1.00  0.00     0.032 A 
HETATM   12  C   UNL     1      42.951 -18.148   2.214  1.00  0.00     0.023 A 
HETATM   13  C   UNL     1      43.539 -19.395   2.482  1.00  0.00    -0.061 A 
HETATM   14  C   UNL     1      43.386 -20.534   1.517  1.00  0.00     0.048 C 
HETATM   15  C   UNL     1      44.223 -19.587   3.689  1.00  0.00     0.007 A 
HETATM   16  C   UNL     1      44.339 -18.545   4.608  1.00  0.00     0.002 A 
HETATM   17  C   UNL     1      43.773 -17.301   4.327  1.00  0.00     0.017 A 
ENDBRANCH   8  11
ENDBRANCH   6   7
ENDBRANCH   3   6
BRANCH   2  18
HETATM   18  C   UNL     1      42.231 -13.590   5.699  1.00  0.00     0.076 A 
HETATM   19  C   UNL     1      40.840 -13.399   5.670  1.00  0.00     0.095 A 
HETATM   20  C   UNL     1      40.013 -14.363   6.259  1.00  0.00     0.039 A 
HETATM   21  C   UNL     1      40.563 -15.486   6.884  1.00  0.00     0.003 A 
HETATM   22  C   UNL     1      41.943 -15.663   6.918  1.00  0.00     0.002 A 
HETATM   23  C   UNL     1      42.780 -14.718   6.327  1.00  0.00     0.033 A 
BRANCH  19  24
HETATM   24  O   UNL     1      40.350 -12.336   4.958  1.00  0.00    -0.354 OA
HETATM   25  C   UNL     1      39.552 -12.666   3.825  1.00  0.00     0.210 C 
ENDBRANCH  19  24
ENDBRANCH   2  18
BRANCH   1  26
HETATM   26  S   UNL     1      43.955 -11.411   7.464  1.00  0.00    -0.090 SA
BRANCH  26  27
HETATM   27  C   UNL     1      45.665 -10.810   7.581  1.00  0.00     0.082 C 
BRANCH  27  28
HETATM   28  C   UNL     1      45.690  -9.477   8.322  1.00  0.00     0.006 C 
HETATM   29  C   UNL     1      45.375  -9.661   9.799  1.00  0.00     0.006 C 
ENDBRANCH  27  28
ENDBRANCH  26  27
ENDBRANCH   1  26
TORSDOF 8
ENDMDL
MODEL 2
REMARK VINA RESULT:      -7.9      2.491      7.919
REMARK  8 active torsions:
REMARK  status: ('A' for Active; 'I' for Inactive)
REMARK    1  A    between atoms: C_2  and  C_3 
REMARK    2  A    between atoms: C_3  and  S_4 
REMARK    3  A    between atoms: S_4  and  C_5 
REMARK    4  A    between atoms: N_6  and  C_7 
REMARK    5  A    between atoms: C_8  and  O_9 
REMARK    6  A    between atoms: C_15  and  C_16 
REMARK    7  A    between atoms: C_16  and  N_17 
REMARK       I    between atoms: N_17  and  C_18 
REMARK    8  A    between atoms: C_18  and  C_19 
ROOT
HETATM    1  C   UNL     1      43.280 -12.557   3.722  1.00  0.00     0.196 A 
HETATM    2  N   UNL     1      43.094 -13.011   5.016  1.00  0.00    -0.271 N 
HETATM    3  C   UNL     1      43.868 -12.152   5.787  1.00  0.00     0.153 A 
HETATM    4  N   UNL     1      44.465 -11.271   5.003  1.00  0.00    -0.132 NA
HETATM    5  N   UNL     1      44.085 -11.519   3.712  1.00  0.00    -0.122 NA
ENDROOT
BRANCH   3   6
HETATM    6  C   UNL     1      44.104 -12.274   7.248  1.00  0.00     0.204 C 
BRANCH   6   7
HETATM    7  N   UNL     1      43.689 -11.048   7.892  1.00  0.00    -0.350 N 
HETATM    8  C   UNL     1      44.487 -10.446   8.841  1.00  0.00     0.252 C 
HETATM    9  O   UNL     1      45.615 -10.853   9.106  1.00  0.00    -0.268 OA
HETATM   10  H   UNL     1      42.702 -10.832   7.852  1.00  0.00     0.163 HD
BRANCH   8  11
HETATM   11  C   UNL     1      43.915  -9.284   9.582  1.00  0.00     0.032 A 
HETATM   12  C   UNL     1      43.780  -9.262  10.978  1.00  0.00     0.023 A 
HETATM   13  C   UNL     1      43.259  -8.130  11.624  1.00  0.00    -0.061 A 
HETATM   14  C   UNL     1      43.099  -8.108  13.117  1.00  0.00     0.048 C 
HETATM   15  C   UNL     1      42.834  -7.037  10.859  1.00  0.00     0.007 A 
HETATM   16  C   UNL     1      42.945  -7.062   9.469  1.00  0.00     0.002 A 
HETATM   17  C   UNL     1      43.485  -8.179   8.833  1.00  0.00     0.017 A 
ENDBRANCH   8  11
ENDBRANCH   6   7
ENDBRANCH   3   6
BRANCH   2  18
HETATM   18  C   UNL     1      42.250 -14.052   5.474  1.00  0.00     0.076 A 
HETATM   19  C   UNL     1      40.945 -13.781   5.915  1.00  0.00     0.095 A 
HETATM   20  C   UNL     1      40.151 -14.843   6.363  1.00  0.00     0.039 A 
HETATM   21  C   UNL     1      40.654 -16.147   6.389  1.00  0.00     0.003 A 
HETATM   22  C   UNL     1      41.952 -16.405   5.959  1.00  0.00     0.002 A 
HETATM   23  C   UNL     1      42.753 -15.362   5.501  1.00  0.00     0.033 A 
BRANCH  19  24
HETATM   24  O   UNL     1      40.468 -12.506   5.774  1.00  0.00    -0.354 OA
HETATM   25  C   UNL     1      39.469 -12.327   4.774  1.00  0.00     0.210 C 
ENDBRANCH  19  24
ENDBRANCH   2  18
BRANCH   1  26
HETATM   26  S   UNL     1      42.404 -13.102   2.326  1.00  0.00    -0.090 SA
BRANCH  26  27
HETATM   27  C   UNL     1      43.374 -14.581   1.911  1.00  0.00     0.082 C 
BRANCH  27  28
HETATM   28  C   UNL     1      42.446 -15.786   1.795  1.00  0.00     0.006 C 
HETATM   29  C   UNL     1      43.164 -17.073   2.171  1.00  0.00     0.006 C 
ENDBRANCH  27  28
ENDBRANCH  26  27
ENDBRANCH   1  26
TORSDOF 8
ENDMDL
MODEL 3
REMARK VINA RESULT:      -7.8      2.575      8.121
REMARK  8 active torsions:
REMARK  status: ('A' for Active; 'I' for Inactive)
REMARK    1  A    between atoms: C_2  and  C_3 
REMARK    2  A    between atoms: C_3  and  S_4 
REMARK    3  A    between atoms: S_4  and  C_5 
REMARK    4  A    between atoms: N_6  and  C_7 
REMARK    5  A    between atoms: C_8  and  O_9 
REMARK    6  A    between atoms: C_15  and  C_16 
REMARK    7  A    between atoms: C_16  and  N_17 
REMARK       I    between atoms: N_17  and  C_18 
REMARK    8  A    between atoms: C_18  and  C_19 
ROOT
HETATM    1  C   UNL     1      43.261 -12.561   3.757  1.00  0.00     0.196 A 
HETATM    2  N   UNL     1      43.058 -12.997   5.053  1.00  0.00    -0.271 N 
HETATM    3  C   UNL     1      43.859 -12.158   5.819  1.00  0.00     0.153 A 
HETATM    4  N   UNL     1      44.486 -11.304   5.030  1.00  0.00    -0.132 NA
HETATM    5  N   UNL     1      44.100 -11.550   3.740  1.00  0.00    -0.122 NA
ENDROOT
BRANCH   3   6
HETATM    6  C   UNL     1      44.088 -12.276   7.282  1.00  0.00     0.204 C 
BRANCH   6   7
HETATM    7  N   UNL     1      43.685 -11.041   7.919  1.00  0.00    -0.350 N 
HETATM    8  C   UNL     1      44.491 -10.440   8.860  1.00  0.00     0.252 C 
HETATM    9  O   UNL     1      45.617 -10.855   9.126  1.00  0.00    -0.268 OA
HETATM   10  H   UNL     1      42.700 -10.817   7.879  1.00  0.00     0.163 HD
BRANCH   8  11
HETATM   11  C   UNL     1      43.932  -9.267   9.595  1.00  0.00     0.032 A 
HETATM   12  C   UNL     1      43.775  -9.245  10.988  1.00  0.00     0.023 A 
HETATM   13  C   UNL     1      43.268  -8.103  11.629  1.00  0.00    -0.061 A 
HETATM   14  C   UNL     1      43.084  -8.082  13.118  1.00  0.00     0.048 C 
HETATM   15  C   UNL     1      42.878  -7.000  10.859  1.00  0.00     0.007 A 
HETATM   16  C   UNL     1      43.011  -7.025   9.471  1.00  0.00     0.002 A 
HETATM   17  C   UNL     1      43.537  -8.153   8.842  1.00  0.00     0.017 A 
ENDBRANCH   8  11
ENDBRANCH   6   7
ENDBRANCH   3   6
BRANCH   2  18
HETATM   18  C   UNL     1      42.179 -14.006   5.518  1.00  0.00     0.076 A 
HETATM   19  C   UNL     1      42.594 -15.345   5.597  1.00  0.00     0.095 A 
HETATM   20  C   UNL     1      41.688 -16.307   6.058  1.00  0.00     0.039 A 
HETATM   21  C   UNL     1      40.387 -15.944   6.416  1.00  0.00     0.003 A 
HETATM   22  C   UNL     1      39.980 -14.616   6.326  1.00  0.00     0.002 A 
HETATM   23  C   UNL     1      40.872 -13.644   5.878  1.00  0.00     0.033 A 
BRANCH  19  24
HETATM   24  O   UNL     1      43.907 -15.630   5.331  1.00  0.00    -0.354 OA
HETATM   25  C   UNL     1      44.333 -16.949   5.662  1.00  0.00     0.210 C 
ENDBRANCH  19  24
ENDBRANCH   2  18
BRANCH   1  26
HETATM   26  S   UNL     1      42.370 -13.088   2.363  1.00  0.00    -0.090 SA
BRANCH  26  27
HETATM   27  C   UNL     1      43.289 -14.604   1.965  1.00  0.00     0.082 C 
BRANCH  27  28
HETATM   28  C   UNL     1      42.342 -15.799   1.995  1.00  0.00     0.006 C 
HETATM   29  C   UNL     1      43.105 -17.103   2.177  1.00  0.00     0.006 C 
ENDBRANCH  27  28
ENDBRANCH  26  27
ENDBRANCH   1  26
TORSDOF 8
ENDMDL
MODEL 4
REMARK VINA RESULT:      -7.7      2.371      7.637
REMARK  8 active torsions:
REMARK  status: ('A' for Active; 'I' for Inactive)
REMARK    1  A    between atoms: C_2  and  C_3 
REMARK    2  A    between atoms: C_3  and  S_4 
REMARK    3  A    between atoms: S_4  and  C_5 
REMARK    4  A    between atoms: N_6  and  C_7 
REMARK    5  A    between atoms: C_8  and  O_9 
REMARK    6  A    between atoms: C_15  and  C_16 
REMARK    7  A    between atoms: C_16  and  N_17 
REMARK       I    between atoms: N_17  and  C_18 
REMARK    8  A    between atoms: C_18  and  C_19 
ROOT
HETATM    1  C   UNL     1      43.575 -16.824   4.602  1.00  0.00     0.196 A 
HETATM    2  N   UNL     1      42.667 -15.785   4.493  1.00  0.00    -0.271 N 
HETATM    3  C   UNL     1      42.816 -15.083   5.683  1.00  0.00     0.153 A 
HETATM    4  N   UNL     1      43.733 -15.670   6.431  1.00  0.00    -0.132 NA
HETATM    5  N   UNL     1      44.215 -16.753   5.747  1.00  0.00    -0.122 NA
ENDROOT
BRANCH   3   6
HETATM    6  C   UNL     1      41.988 -13.929   6.117  1.00  0.00     0.204 C 
BRANCH   6   7
HETATM    7  N   UNL     1      42.828 -12.993   6.831  1.00  0.00    -0.350 N 
HETATM    8  C   UNL     1      42.771 -11.645   6.556  1.00  0.00     0.252 C 
HETATM    9  O   UNL     1      41.946 -11.165   5.782  1.00  0.00    -0.268 OA
HETATM   10  H   UNL     1      43.641 -13.381   7.291  1.00  0.00     0.163 HD
BRANCH   8  11
HETATM   11  C   UNL     1      43.786 -10.767   7.207  1.00  0.00     0.032 A 
HETATM   12  C   UNL     1      43.464  -9.535   7.794  1.00  0.00     0.023 A 
HETATM   13  C   UNL     1      44.458  -8.762   8.416  1.00  0.00    -0.061 A 
HETATM   14  C   UNL     1      44.120  -7.435   9.032  1.00  0.00     0.048 C 
HETATM   15  C   UNL     1      45.784  -9.212   8.408  1.00  0.00     0.007 A 
HETATM   16  C   UNL     1      46.114 -10.426   7.807  1.00  0.00     0.002 A 
HETATM   17  C   UNL     1      45.119 -11.201   7.210  1.00  0.00     0.017 A 
ENDBRANCH   8  11
ENDBRANCH   6   7
ENDBRANCH   3   6
BRANCH   2  18
HETATM   18  C   UNL     1      41.835 -15.452   3.396  1.00  0.00     0.076 A 
HETATM   19  C   UNL     1      42.210 -14.454   2.482  1.00  0.00     0.095 A 
HETATM   20  C   UNL     1      41.352 -14.157   1.417  1.00  0.00     0.039 A 
HETATM   21  C   UNL     1      40.134 -14.828   1.277  1.00  0.00     0.003 A 
HETATM   22  C   UNL     1      39.764 -15.807   2.193  1.00  0.00     0.002 A 
HETATM   23  C   UNL     1      40.611 -16.123   3.253  1.00  0.00     0.033 A 
BRANCH  19  24
HETATM   24  O   UNL     1      43.457 -13.901   2.607  1.00  0.00    -0.354 OA
HETATM   25  C   UNL     1      43.489 -12.531   2.999  1.00  0.00     0.210 C 
ENDBRANCH  19  24
ENDBRANCH   2  18
BRANCH   1  26
HETATM   26  S   UNL     1      44.001 -17.929   3.334  1.00  0.00    -0.090 SA
BRANCH  26  27
HETATM   27  C   UNL     1      44.082 -19.474   4.285  1.00  0.00     0.082 C 
BRANCH  27  28
HETATM   28  C   UNL     1      43.865 -20.662   3.353  1.00  0.00     0.006 C 
HETATM   29  C   UNL     1      43.207 -20.229   2.051  1.00  0.00     0.006 C 
ENDBRANCH  27  28
ENDBRANCH  26  27
ENDBRANCH   1  26
TORSDOF 8
ENDMDL
MODEL 5
REMARK VINA RESULT:      -7.5      4.639      6.275
REMARK  8 active torsions:
REMARK  status: ('A' for Active; 'I' for Inactive)
REMARK    1  A    between atoms: C_2  and  C_3 
REMARK    2  A    between atoms: C_3  and  S_4 
REMARK    3  A    between atoms: S_4  and  C_5 
REMARK    4  A    between atoms: N_6  and  C_7 
REMARK    5  A    between atoms: C_8  and  O_9 
REMARK    6  A    between atoms: C_15  and  C_16 
REMARK    7  A    between atoms: C_16  and  N_17 
REMARK       I    between atoms: N_17  and  C_18 
REMARK    8  A    between atoms: C_18  and  C_19 
ROOT
HETATM    1  C   UNL     1      41.302 -10.882  -0.070  1.00  0.00     0.196 A 
HETATM    2  N   UNL     1      40.497 -11.996   0.088  1.00  0.00    -0.271 N 
HETATM    3  C   UNL     1      40.584 -12.284   1.445  1.00  0.00     0.153 A 
HETATM    4  N   UNL     1      41.385 -11.411   2.032  1.00  0.00    -0.132 NA
HETATM    5  N   UNL     1      41.823 -10.527   1.083  1.00  0.00    -0.122 NA
ENDROOT
BRANCH   3   6
HETATM    6  C   UNL     1      39.986 -13.463   2.121  1.00  0.00     0.204 C 
BRANCH   6   7
HETATM    7  N   UNL     1      41.045 -14.377   2.489  1.00  0.00    -0.350 N 
HETATM    8  C   UNL     1      40.982 -15.706   2.130  1.00  0.00     0.252 C 
HETATM    9  O   UNL     1      40.096 -16.152   1.404  1.00  0.00    -0.268 OA
HETATM   10  H   UNL     1      41.645 -14.087   3.249  1.00  0.00     0.163 HD
BRANCH   8  11
HETATM   11  C   UNL     1      42.022 -16.619   2.690  1.00  0.00     0.032 A 
HETATM   12  C   UNL     1      42.320 -17.869   2.129  1.00  0.00     0.023 A 
HETATM   13  C   UNL     1      43.328 -18.675   2.684  1.00  0.00    -0.061 A 
HETATM   14  C   UNL     1      43.640 -20.020   2.096  1.00  0.00     0.048 C 
HETATM   15  C   UNL     1      44.003 -18.238   3.831  1.00  0.00     0.007 A 
HETATM   16  C   UNL     1      43.694 -17.006   4.406  1.00  0.00     0.002 A 
HETATM   17  C   UNL     1      42.710 -16.198   3.837  1.00  0.00     0.017 A 
ENDBRANCH   8  11
ENDBRANCH   6   7
ENDBRANCH   3   6
BRANCH   2  18
HETATM   18  C   UNL     1      39.697 -12.651  -0.879  1.00  0.00     0.076 A 
HETATM   19  C   UNL     1      38.350 -12.299  -1.061  1.00  0.00     0.095 A 
HETATM   20  C   UNL     1      37.598 -12.979  -2.027  1.00  0.00     0.039 A 
HETATM   21  C   UNL     1      38.173 -14.003  -2.783  1.00  0.00     0.003 A 
HETATM   22  C   UNL     1      39.505 -14.354  -2.590  1.00  0.00     0.002 A 
HETATM   23  C   UNL     1      40.271 -13.681  -1.640  1.00  0.00     0.033 A 
BRANCH  19  24
HETATM   24  O   UNL     1      37.866 -11.222  -0.367  1.00  0.00    -0.354 OA
HETATM   25  C   UNL     1      37.557 -10.071  -1.148  1.00  0.00     0.210 C 
ENDBRANCH  19  24
ENDBRANCH   2  18
BRANCH   1  26
HETATM   26  S   UNL     1      41.433  -9.928  -1.514  1.00  0.00    -0.090 SA
BRANCH  26  27
HETATM   27  C   UNL     1      42.129  -8.403  -0.814  1.00  0.00     0.082 C 
BRANCH  27  28
HETATM   28  C   UNL     1      43.236  -7.880  -1.723  1.00  0.00     0.006 C 
HETATM   29  C   UNL     1      43.520  -6.410  -1.456  1.00  0.00     0.006 C 
ENDBRANCH  27  28
ENDBRANCH  26  27
ENDBRANCH   1  26
TORSDOF 8
ENDMDL
MODEL 6
REMARK VINA RESULT:      -7.5      1.234      2.315
REMARK  8 active torsions:
REMARK  status: ('A' for Active; 'I' for Inactive)
REMARK    1  A    between atoms: C_2  and  C_3 
REMARK    2  A    between atoms: C_3  and  S_4 
REMARK    3  A    between atoms: S_4  and  C_5 
REMARK    4  A    between atoms: N_6  and  C_7 
REMARK    5  A    between atoms: C_8  and  O_9 
REMARK    6  A    between atoms: C_15  and  C_16 
REMARK    7  A    between atoms: C_16  and  N_17 
REMARK       I    between atoms: N_17  and  C_18 
REMARK    8  A    between atoms: C_18  and  C_19 
ROOT
HETATM    1  C   UNL     1      43.619 -11.913   5.327  1.00  0.00     0.196 A 
HETATM    2  N   UNL     1      42.953 -13.008   4.806  1.00  0.00    -0.271 N 
HETATM    3  C   UNL     1      43.299 -13.002   3.460  1.00  0.00     0.153 A 
HETATM    4  N   UNL     1      44.098 -11.978   3.214  1.00  0.00    -0.132 NA
HETATM    5  N   UNL     1      44.307 -11.305   4.387  1.00  0.00    -0.122 NA
ENDROOT
BRANCH   3   6
HETATM    6  C   UNL     1      42.757 -13.915   2.422  1.00  0.00     0.204 C 
BRANCH   6   7
HETATM    7  N   UNL     1      43.245 -15.253   2.677  1.00  0.00    -0.350 N 
HETATM    8  C   UNL     1      42.433 -16.348   2.476  1.00  0.00     0.252 C 
HETATM    9  O   UNL     1      41.313 -16.255   1.979  1.00  0.00    -0.268 OA
HETATM   10  H   UNL     1      44.056 -15.328   3.277  1.00  0.00     0.163 HD
BRANCH   8  11
HETATM   11  C   UNL     1      42.947 -17.676   2.923  1.00  0.00     0.032 A 
HETATM   12  C   UNL     1      43.111 -18.013   4.274  1.00  0.00     0.023 A 
HETATM   13  C   UNL     1      43.575 -19.288   4.637  1.00  0.00    -0.061 A 
HETATM   14  C   UNL     1      43.767 -19.648   6.082  1.00  0.00     0.048 C 
HETATM   15  C   UNL     1      43.914 -20.207   3.636  1.00  0.00     0.007 A 
HETATM   16  C   UNL     1      43.773 -19.869   2.291  1.00  0.00     0.002 A 
HETATM   17  C   UNL     1      43.291 -18.609   1.935  1.00  0.00     0.017 A 
ENDBRANCH   8  11
ENDBRANCH   6   7
ENDBRANCH   3   6
BRANCH   2  18
HETATM   18  C   UNL     1      42.168 -13.970   5.487  1.00  0.00     0.076 A 
HETATM   19  C   UNL     1      42.767 -14.955   6.289  1.00  0.00     0.095 A 
HETATM   20  C   UNL     1      41.948 -15.886   6.938  1.00  0.00     0.039 A 
HETATM   21  C   UNL     1      40.561 -15.849   6.776  1.00  0.00     0.003 A 
HETATM   22  C   UNL     1      39.975 -14.877   5.972  1.00  0.00     0.002 A 
HETATM   23  C   UNL     1      40.774 -13.935   5.326  1.00  0.00     0.033 A 
BRANCH  19  24
HETATM   24  O   UNL     1      44.119 -14.884   6.495  1.00  0.00    -0.354 OA
HETATM   25  C   UNL     1      44.814 -16.127   6.470  1.00  0.00     0.210 C 
ENDBRANCH  19  24
ENDBRANCH   2  18
BRANCH   1  26
HETATM   26  S   UNL     1      43.744 -11.516   7.013  1.00  0.00    -0.090 SA
BRANCH  26  27
HETATM   27  C   UNL     1      45.525 -11.176   7.118  1.00  0.00     0.082 C 
BRANCH  27  28
HETATM   28  C   UNL     1      45.841 -10.506   8.451  1.00  0.00     0.006 C 
HETATM   29  C   UNL     1      46.065  -9.011   8.279  1.00  0.00     0.006 C 
ENDBRANCH  27  28
ENDBRANCH  26  27
ENDBRANCH   1  26
TORSDOF 8
ENDMDL
MODEL 7
REMARK VINA RESULT:      -7.4      2.217      3.684
REMARK  8 active torsions:
REMARK  status: ('A' for Active; 'I' for Inactive)
REMARK    1  A    between atoms: C_2  and  C_3 
REMARK    2  A    between atoms: C_3  and  S_4 
REMARK    3  A    between atoms: S_4  and  C_5 
REMARK    4  A    between atoms: N_6  and  C_7 
REMARK    5  A    between atoms: C_8  and  O_9 
REMARK    6  A    between atoms: C_15  and  C_16 
REMARK    7  A    between atoms: C_16  and  N_17 
REMARK       I    between atoms: N_17  and  C_18 
REMARK    8  A    between atoms: C_18  and  C_19 
ROOT
HETATM    1  C   UNL     1      39.966 -12.390   4.747  1.00  0.00     0.196 A 
HETATM    2  N   UNL     1      41.326 -12.486   4.517  1.00  0.00    -0.271 N 
HETATM    3  C   UNL     1      41.419 -12.741   3.154  1.00  0.00     0.153 A 
HETATM    4  N   UNL     1      40.207 -12.797   2.632  1.00  0.00    -0.132 NA
HETATM    5  N   UNL     1      39.299 -12.564   3.629  1.00  0.00    -0.122 NA
ENDROOT
BRANCH   3   6
HETATM    6  C   UNL     1      42.670 -13.039   2.412  1.00  0.00     0.204 C 
BRANCH   6   7
HETATM    7  N   UNL     1      43.167 -14.330   2.834  1.00  0.00    -0.350 N 
HETATM    8  C   UNL     1      42.790 -15.479   2.174  1.00  0.00     0.252 C 
HETATM    9  O   UNL     1      42.111 -15.459   1.150  1.00  0.00    -0.268 OA
HETATM   10  H   UNL     1      43.532 -14.384   3.776  1.00  0.00     0.163 HD
BRANCH   8  11
HETATM   11  C   UNL     1      43.205 -16.782   2.772  1.00  0.00     0.032 A 
HETATM   12  C   UNL     1      43.153 -17.994   2.069  1.00  0.00     0.023 A 
HETATM   13  C   UNL     1      43.581 -19.187   2.675  1.00  0.00    -0.061 A 
HETATM   14  C   UNL     1      43.512 -20.488   1.930  1.00  0.00     0.048 C 
HETATM   15  C   UNL     1      44.021 -19.163   4.004  1.00  0.00     0.007 A 
HETATM   16  C   UNL     1      44.054 -17.964   4.715  1.00  0.00     0.002 A 
HETATM   17  C   UNL     1      43.650 -16.778   4.102  1.00  0.00     0.017 A 
ENDBRANCH   8  11
ENDBRANCH   6   7
ENDBRANCH   3   6
BRANCH   2  18
HETATM   18  C   UNL     1      42.392 -12.289   5.429  1.00  0.00     0.076 A 
HETATM   19  C   UNL     1      42.823 -13.326   6.272  1.00  0.00     0.095 A 
HETATM   20  C   UNL     1      43.877 -13.081   7.159  1.00  0.00     0.039 A 
HETATM   21  C   UNL     1      44.478 -11.821   7.220  1.00  0.00     0.003 A 
HETATM   22  C   UNL     1      44.038 -10.795   6.389  1.00  0.00     0.002 A 
HETATM   23  C   UNL     1      42.997 -11.024   5.492  1.00  0.00     0.033 A 
BRANCH  19  24
HETATM   24  O   UNL     1      42.269 -14.567   6.100  1.00  0.00    -0.354 OA
HETATM   25  C   UNL     1      42.374 -15.450   7.214  1.00  0.00     0.210 C 
ENDBRANCH  19  24
ENDBRANCH   2  18
BRANCH   1  26
HETATM   26  S   UNL     1      39.227 -11.875   6.231  1.00  0.00    -0.090 SA
BRANCH  26  27
HETATM   27  C   UNL     1      38.531 -10.285   5.694  1.00  0.00     0.082 C 
BRANCH  27  28
HETATM   28  C   UNL     1      39.659  -9.348   5.273  1.00  0.00     0.006 C 
HETATM   29  C   UNL     1      40.136  -8.499   6.442  1.00  0.00     0.006 C 
ENDBRANCH  27  28
ENDBRANCH  26  27
ENDBRANCH   1  26
TORSDOF 8
ENDMDL
MODEL 8
REMARK VINA RESULT:      -7.3      3.204      5.649
REMARK  8 active torsions:
REMARK  status: ('A' for Active; 'I' for Inactive)
REMARK    1  A    between atoms: C_2  and  C_3 
REMARK    2  A    between atoms: C_3  and  S_4 
REMARK    3  A    between atoms: S_4  and  C_5 
REMARK    4  A    between atoms: N_6  and  C_7 
REMARK    5  A    between atoms: C_8  and  O_9 
REMARK    6  A    between atoms: C_15  and  C_16 
REMARK    7  A    between atoms: C_16  and  N_17 
REMARK       I    between atoms: N_17  and  C_18 
REMARK    8  A    between atoms: C_18  and  C_19 
ROOT
HETATM    1  C   UNL     1      41.925 -12.979   5.228  1.00  0.00     0.196 A 
HETATM    2  N   UNL     1      41.416 -13.712   4.171  1.00  0.00    -0.271 N 
HETATM    3  C   UNL     1      40.185 -13.120   3.915  1.00  0.00     0.153 A 
HETATM    4  N   UNL     1      39.988 -12.125   4.761  1.00  0.00    -0.132 NA
HETATM    5  N   UNL     1      41.085 -12.030   5.575  1.00  0.00    -0.122 NA
ENDROOT
BRANCH   3   6
HETATM    6  C   UNL     1      39.179 -13.603   2.935  1.00  0.00     0.204 C 
BRANCH   6   7
HETATM    7  N   UNL     1      39.459 -13.009   1.646  1.00  0.00    -0.350 N 
HETATM    8  C   UNL     1      39.854 -13.790   0.582  1.00  0.00     0.252 C 
HETATM    9  O   UNL     1      39.886 -15.017   0.642  1.00  0.00    -0.268 OA
HETATM   10  H   UNL     1      39.649 -12.015   1.642  1.00  0.00     0.163 HD
BRANCH   8  11
HETATM   11  C   UNL     1      40.290 -13.088  -0.660  1.00  0.00     0.032 A 
HETATM   12  C   UNL     1      40.737 -11.759  -0.668  1.00  0.00     0.023 A 
HETATM   13  C   UNL     1      41.160 -11.158  -1.865  1.00  0.00    -0.061 A 
HETATM   14  C   UNL     1      41.625  -9.730  -1.880  1.00  0.00     0.048 C 
HETATM   15  C   UNL     1      41.090 -11.883  -3.060  1.00  0.00     0.007 A 
HETATM   16  C   UNL     1      40.625 -13.198  -3.062  1.00  0.00     0.002 A 
HETATM   17  C   UNL     1      40.228 -13.799  -1.867  1.00  0.00     0.017 A 
ENDBRANCH   8  11
ENDBRANCH   6   7
ENDBRANCH   3   6
BRANCH   2  18
HETATM   18  C   UNL     1      42.029 -14.766   3.452  1.00  0.00     0.076 A 
HETATM   19  C   UNL     1      41.848 -16.105   3.838  1.00  0.00     0.095 A 
HETATM   20  C   UNL     1      42.478 -17.111   3.097  1.00  0.00     0.039 A 
HETATM   21  C   UNL     1      43.289 -16.790   2.006  1.00  0.00     0.003 A 
HETATM   22  C   UNL     1      43.473 -15.462   1.637  1.00  0.00     0.002 A 
HETATM   23  C   UNL     1      42.845 -14.446   2.356  1.00  0.00     0.033 A 
BRANCH  19  24
HETATM   24  O   UNL     1      40.963 -16.369   4.849  1.00  0.00    -0.354 OA
HETATM   25  C   UNL     1      41.541 -16.583   6.134  1.00  0.00     0.210 C 
ENDBRANCH  19  24
ENDBRANCH   2  18
BRANCH   1  26
HETATM   26  S   UNL     1      43.535 -13.110   5.866  1.00  0.00    -0.090 SA
BRANCH  26  27
HETATM   27  C   UNL     1      43.839 -11.372   6.296  1.00  0.00     0.082 C 
BRANCH  27  28
HETATM   28  C   UNL     1      44.619 -11.297   7.605  1.00  0.00     0.006 C 
HETATM   29  C   UNL     1      45.979 -10.645   7.400  1.00  0.00     0.006 C 
ENDBRANCH  27  28
ENDBRANCH  26  27
ENDBRANCH   1  26
TORSDOF 8
ENDMDL
MODEL 9
REMARK VINA RESULT:      -7.2      3.949      6.286
REMARK  8 active torsions:
REMARK  status: ('A' for Active; 'I' for Inactive)
REMARK    1  A    between atoms: C_2  and  C_3 
REMARK    2  A    between atoms: C_3  and  S_4 
REMARK    3  A    between atoms: S_4  and  C_5 
REMARK    4  A    between atoms: N_6  and  C_7 
REMARK    5  A    between atoms: C_8  and  O_9 
REMARK    6  A    between atoms: C_15  and  C_16 
REMARK    7  A    between atoms: C_16  and  N_17 
REMARK       I    between atoms: N_17  and  C_18 
REMARK    8  A    between atoms: C_18  and  C_19 
ROOT
HETATM    1  C   UNL     1      40.261 -13.269  -0.431  1.00  0.00     0.196 A 
HETATM    2  N   UNL     1      40.257 -13.172   0.949  1.00  0.00    -0.271 N 
HETATM    3  C   UNL     1      40.010 -14.472   1.375  1.00  0.00     0.153 A 
HETATM    4  N   UNL     1      39.872 -15.263   0.326  1.00  0.00    -0.132 NA
HETATM    5  N   UNL     1      40.042 -14.509  -0.804  1.00  0.00    -0.122 NA
ENDROOT
BRANCH   3   6
HETATM    6  C   UNL     1      39.798 -14.897   2.783  1.00  0.00     0.204 C 
BRANCH   6   7
HETATM    7  N   UNL     1      40.635 -16.045   3.055  1.00  0.00    -0.350 N 
HETATM    8  C   UNL     1      41.921 -15.883   3.521  1.00  0.00     0.252 C 
HETATM    9  O   UNL     1      42.378 -14.783   3.824  1.00  0.00    -0.268 OA
HETATM   10  H   UNL     1      40.363 -16.913   2.613  1.00  0.00     0.163 HD
BRANCH   8  11
HETATM   11  C   UNL     1      42.777 -17.102   3.614  1.00  0.00     0.032 A 
HETATM   12  C   UNL     1      42.772 -18.112   2.641  1.00  0.00     0.023 A 
HETATM   13  C   UNL     1      43.618 -19.225   2.767  1.00  0.00    -0.061 A 
HETATM   14  C   UNL     1      43.604 -20.316   1.736  1.00  0.00     0.048 C 
HETATM   15  C   UNL     1      44.438 -19.340   3.897  1.00  0.00     0.007 A 
HETATM   16  C   UNL     1      44.431 -18.349   4.878  1.00  0.00     0.002 A 
HETATM   17  C   UNL     1      43.606 -17.234   4.737  1.00  0.00     0.017 A 
ENDBRANCH   8  11
ENDBRANCH   6   7
ENDBRANCH   3   6
BRANCH   2  18
HETATM   18  C   UNL     1      40.525 -12.040   1.756  1.00  0.00     0.076 A 
HETATM   19  C   UNL     1      39.485 -11.205   2.196  1.00  0.00     0.095 A 
HETATM   20  C   UNL     1      39.800 -10.095   2.988  1.00  0.00     0.039 A 
HETATM   21  C   UNL     1      41.128  -9.811   3.320  1.00  0.00     0.003 A 
HETATM   22  C   UNL     1      42.153 -10.637   2.871  1.00  0.00     0.002 A 
HETATM   23  C   UNL     1      41.857 -11.753   2.090  1.00  0.00     0.033 A 
BRANCH  19  24
HETATM   24  O   UNL     1      38.197 -11.584   1.929  1.00  0.00    -0.354 OA
HETATM   25  C   UNL     1      37.565 -10.907   0.846  1.00  0.00     0.210 C 
ENDBRANCH  19  24
ENDBRANCH   2  18
BRANCH   1  26
HETATM   26  S   UNL     1      40.723 -12.006  -1.529  1.00  0.00    -0.090 SA
BRANCH  26  27
HETATM   27  C   UNL     1      39.667 -12.428  -2.945  1.00  0.00     0.082 C 
BRANCH  27  28
HETATM   28  C   UNL     1      38.257 -11.896  -2.710  1.00  0.00     0.006 C 
HETATM   29  C   UNL     1      37.247 -13.031  -2.618  1.00  0.00     0.006 C 
ENDBRANCH  27  28
ENDBRANCH  26  27
ENDBRANCH   1  26
TORSDOF 8
ENDMDL
MODEL 10
REMARK VINA RESULT:      -7.2      3.292      4.998
REMARK  8 active torsions:
REMARK  status: ('A' for Active; 'I' for Inactive)
REMARK    1  A    between atoms: C_2  and  C_3 
REMARK    2  A    between atoms: C_3  and  S_4 
REMARK    3  A    between atoms: S_4  and  C_5 
REMARK    4  A    between atoms: N_6  and  C_7 
REMARK    5  A    between atoms: C_8  and  O_9 
REMARK    6  A    between atoms: C_15  and  C_16 
REMARK    7  A    between atoms: C_16  and  N_17 
REMARK       I    between atoms: N_17  and  C_18 
REMARK    8  A    between atoms: C_18  and  C_19 
ROOT
HETATM    1  C   UNL     1      42.432 -13.148   5.742  1.00  0.00     0.196 A 
HETATM    2  N   UNL     1      42.041 -14.314   5.110  1.00  0.00    -0.271 N 
HETATM    3  C   UNL     1      41.000 -13.913   4.280  1.00  0.00     0.153 A 
HETATM    4  N   UNL     1      40.796 -12.615   4.424  1.00  0.00    -0.132 NA
HETATM    5  N   UNL     1      41.702 -12.136   5.330  1.00  0.00    -0.122 NA
ENDROOT
BRANCH   3   6
HETATM    6  C   UNL     1      40.152 -14.812   3.457  1.00  0.00     0.204 C 
BRANCH   6   7
HETATM    7  N   UNL     1      39.973 -14.218   2.150  1.00  0.00    -0.350 N 
HETATM    8  C   UNL     1      39.889 -15.007   1.024  1.00  0.00     0.252 C 
HETATM    9  O   UNL     1      39.856 -16.234   1.080  1.00  0.00    -0.268 OA
HETATM   10  H   UNL     1      40.216 -13.240   2.065  1.00  0.00     0.163 HD
BRANCH   8  11
HETATM   11  C   UNL     1      39.878 -14.316  -0.299  1.00  0.00     0.032 A 
HETATM   12  C   UNL     1      39.135 -14.780  -1.394  1.00  0.00     0.023 A 
HETATM   13  C   UNL     1      39.142 -14.075  -2.609  1.00  0.00    -0.061 A 
HETATM   14  C   UNL     1      38.361 -14.576  -3.788  1.00  0.00     0.048 C 
HETATM   15  C   UNL     1      39.933 -12.926  -2.731  1.00  0.00     0.007 A 
HETATM   16  C   UNL     1      40.691 -12.472  -1.651  1.00  0.00     0.002 A 
HETATM   17  C   UNL     1      40.662 -13.163  -0.440  1.00  0.00     0.017 A 
ENDBRANCH   8  11
ENDBRANCH   6   7
ENDBRANCH   3   6
BRANCH   2  18
HETATM   18  C   UNL     1      42.611 -15.607   5.209  1.00  0.00     0.076 A 
HETATM   19  C   UNL     1      43.315 -16.170   4.132  1.00  0.00     0.095 A 
HETATM   20  C   UNL     1      43.856 -17.453   4.277  1.00  0.00     0.039 A 
HETATM   21  C   UNL     1      43.683 -18.168   5.465  1.00  0.00     0.003 A 
HETATM   22  C   UNL     1      42.975 -17.608   6.523  1.00  0.00     0.002 A 
HETATM   23  C   UNL     1      42.438 -16.328   6.401  1.00  0.00     0.033 A 
BRANCH  19  24
HETATM   24  O   UNL     1      43.542 -15.388   3.031  1.00  0.00    -0.354 OA
HETATM   25  C   UNL     1      43.314 -16.014   1.771  1.00  0.00     0.210 C 
ENDBRANCH  19  24
ENDBRANCH   2  18
BRANCH   1  26
HETATM   26  S   UNL     1      43.834 -12.968   6.750  1.00  0.00    -0.090 SA
BRANCH  26  27
HETATM   27  C   UNL     1      44.420 -11.347   6.178  1.00  0.00     0.082 C 
BRANCH  27  28
HETATM   28  C   UNL     1      45.882 -11.162   6.572  1.00  0.00     0.006 C 
HETATM   29  C   UNL     1      46.007 -10.426   7.898  1.00  0.00     0.006 C 
ENDBRANCH  27  28
ENDBRANCH  26  27
ENDBRANCH   1  26
TORSDOF 8
ENDMDL
