MODEL 1
REMARK VINA RESULT:      -7.6      0.000      0.000
REMARK  8 active torsions:
REMARK  status: ('A' for Active; 'I' for Inactive)
REMARK    1  A    between atoms: C_2  and  C_3 
REMARK    2  A    between atoms: C_3  and  O_4 
REMARK    3  A    between atoms: O_4  and  C_5 
REMARK    4  A    between atoms: C_6  and  O_7 
REMARK    5  A    between atoms: C_10  and  C_11 
REMARK    6  A    between atoms: C_11  and  N_12 
REMARK    7  A    between atoms: N_12  and  C_13 
REMARK    8  A    between atoms: C_20  and  C_21 
REMARK       I    between atoms: C_21  and  N_22 
ROOT
HETATM    1  C   UNL     1      43.815 -12.325   7.143  1.00  0.00     0.009 A 
HETATM    2  C   UNL     1      43.605 -11.203   7.966  1.00  0.00     0.039 A 
HETATM    3  C   UNL     1      44.561 -10.167   8.024  1.00  0.00     0.030 A 
HETATM    4  C   UNL     1      45.726 -10.295   7.283  1.00  0.00     0.063 A 
HETATM    5  N   UNL     1      46.449  -9.166   7.546  1.00  0.00    -0.277 N 
HETATM    6  H   UNL     1      47.362  -8.922   7.179  1.00  0.00     0.189 HD
HETATM    7  N   UNL     1      45.853  -8.307   8.392  1.00  0.00    -0.168 NA
HETATM    8  C   UNL     1      44.685  -8.916   8.698  1.00  0.00     0.156 A 
HETATM    9  C   UNL     1      45.997 -11.405   6.484  1.00  0.00     0.034 A 
HETATM   10  C   UNL     1      45.024 -12.416   6.442  1.00  0.00     0.026 A 
ENDROOT
BRANCH   1  11
HETATM   11  N   UNL     1      42.869 -13.357   7.182  1.00  0.00    -0.289 NA
HETATM   12  H   UNL     1      42.222 -13.255   7.960  1.00  0.00     0.128 HD
BRANCH  11  13
HETATM   13  C   UNL     1      42.200 -13.771   5.957  1.00  0.00     0.131 C 
BRANCH  13  14
HETATM   14  C   UNL     1      42.805 -15.069   5.470  1.00  0.00    -0.042 A 
HETATM   15  C   UNL     1      42.809 -15.398   4.107  1.00  0.00     0.048 A 
HETATM   16  C   UNL     1      43.386 -16.596   3.664  1.00  0.00     0.102 A 
HETATM   17  C   UNL     1      43.992 -17.468   4.587  1.00  0.00     0.102 A 
HETATM   18  C   UNL     1      43.965 -17.152   5.947  1.00  0.00     0.040 A 
HETATM   19  C   UNL     1      43.374 -15.965   6.385  1.00  0.00     0.011 A 
BRANCH  16  20
HETATM   20  O   UNL     1      43.447 -16.960   2.340  1.00  0.00    -0.353 OA
HETATM   21  C   UNL     1      43.151 -15.939   1.396  1.00  0.00     0.210 C 
ENDBRANCH  16  20
BRANCH  17  22
HETATM   22  O   UNL     1      44.556 -18.606   4.064  1.00  0.00    -0.348 OA
BRANCH  22  23
HETATM   23  C   UNL     1      44.029 -19.860   4.492  1.00  0.00     0.175 C 
BRANCH  23  24
HETATM   24  C   UNL     1      44.026 -20.800   3.290  1.00  0.00     0.022 C 
HETATM   25  C   UNL     1      43.197 -20.248   2.144  1.00  0.00     0.007 C 
ENDBRANCH  23  24
ENDBRANCH  22  23
ENDBRANCH  17  22
ENDBRANCH  13  14
ENDBRANCH  11  13
ENDBRANCH   1  11
BRANCH   8  26
HETATM   26  C   UNL     1      43.717  -8.297   9.615  1.00  0.00     0.270 C 
HETATM   27  N   UNL     1      43.833  -8.714  10.914  1.00  0.00    -0.365 N 
HETATM   28  H   UNL     1      44.549  -9.393  11.142  1.00  0.00     0.159 HD
HETATM   29  H   UNL     1      43.214  -8.344  11.616  1.00  0.00     0.159 HD
HETATM   30  O   UNL     1      42.870  -7.475   9.283  1.00  0.00    -0.266 OA
ENDBRANCH   8  26
TORSDOF 8
ENDMDL
MODEL 2
REMARK VINA RESULT:      -7.5      5.496      8.039
REMARK  8 active torsions:
REMARK  status: ('A' for Active; 'I' for Inactive)
REMARK    1  A    between atoms: C_2  and  C_3 
REMARK    2  A    between atoms: C_3  and  O_4 
REMARK    3  A    between atoms: O_4  and  C_5 
REMARK    4  A    between atoms: C_6  and  O_7 
REMARK    5  A    between atoms: C_10  and  C_11 
REMARK    6  A    between atoms: C_11  and  N_12 
REMARK    7  A    between atoms: N_12  and  C_13 
REMARK    8  A    between atoms: C_20  and  C_21 
REMARK       I    between atoms: C_21  and  N_22 
ROOT
HETATM    1  C   UNL     1      39.499 -13.236   1.934  1.00  0.00     0.009 A 
HETATM    2  C   UNL     1      39.855 -13.423   0.586  1.00  0.00     0.039 A 
HETATM    3  C   UNL     1      39.424 -12.515  -0.403  1.00  0.00     0.030 A 
HETATM    4  C   UNL     1      38.612 -11.455  -0.026  1.00  0.00     0.063 A 
HETATM    5  N   UNL     1      38.352 -10.769  -1.177  1.00  0.00    -0.277 N 
HETATM    6  H   UNL     1      37.782  -9.937  -1.280  1.00  0.00     0.189 HD
HETATM    7  N   UNL     1      38.929 -11.286  -2.276  1.00  0.00    -0.168 NA
HETATM    8  C   UNL     1      39.593 -12.368  -1.812  1.00  0.00     0.156 A 
HETATM    9  C   UNL     1      38.199 -11.250   1.291  1.00  0.00     0.034 A 
HETATM   10  C   UNL     1      38.650 -12.168   2.253  1.00  0.00     0.026 A 
ENDROOT
BRANCH   1  11
HETATM   11  N   UNL     1      39.892 -14.208   2.862  1.00  0.00    -0.289 NA
HETATM   12  H   UNL     1      39.811 -15.150   2.486  1.00  0.00     0.128 HD
BRANCH  11  13
HETATM   13  C   UNL     1      41.113 -14.022   3.632  1.00  0.00     0.131 C 
BRANCH  13  14
HETATM   14  C   UNL     1      41.957 -15.273   3.542  1.00  0.00    -0.042 A 
HETATM   15  C   UNL     1      42.925 -15.564   4.514  1.00  0.00     0.048 A 
HETATM   16  C   UNL     1      43.692 -16.734   4.431  1.00  0.00     0.102 A 
HETATM   17  C   UNL     1      43.475 -17.643   3.379  1.00  0.00     0.102 A 
HETATM   18  C   UNL     1      42.529 -17.341   2.396  1.00  0.00     0.040 A 
HETATM   19  C   UNL     1      41.779 -16.165   2.476  1.00  0.00     0.011 A 
BRANCH  16  20
HETATM   20  O   UNL     1      44.633 -17.087   5.367  1.00  0.00    -0.353 OA
HETATM   21  C   UNL     1      44.402 -16.628   6.692  1.00  0.00     0.210 C 
ENDBRANCH  16  20
BRANCH  17  22
HETATM   22  O   UNL     1      44.252 -18.775   3.388  1.00  0.00    -0.348 OA
BRANCH  22  23
HETATM   23  C   UNL     1      43.700 -19.957   2.811  1.00  0.00     0.175 C 
BRANCH  23  24
HETATM   24  C   UNL     1      43.878 -21.093   3.815  1.00  0.00     0.022 C 
HETATM   25  C   UNL     1      44.247 -20.575   5.194  1.00  0.00     0.007 C 
ENDBRANCH  23  24
ENDBRANCH  22  23
ENDBRANCH  17  22
ENDBRANCH  13  14
ENDBRANCH  11  13
ENDBRANCH   1  11
BRANCH   8  26
HETATM   26  C   UNL     1      40.373 -13.230  -2.711  1.00  0.00     0.270 C 
HETATM   27  N   UNL     1      41.588 -12.712  -3.068  1.00  0.00    -0.365 N 
HETATM   28  H   UNL     1      41.854 -11.806  -2.702  1.00  0.00     0.159 HD
HETATM   29  H   UNL     1      42.195 -13.232  -3.681  1.00  0.00     0.159 HD
HETATM   30  O   UNL     1      40.001 -14.325  -3.123  1.00  0.00    -0.266 OA
ENDBRANCH   8  26
TORSDOF 8
ENDMDL
MODEL 3
REMARK VINA RESULT:      -7.4      5.871      9.914
REMARK  8 active torsions:
REMARK  status: ('A' for Active; 'I' for Inactive)
REMARK    1  A    between atoms: C_2  and  C_3 
REMARK    2  A    between atoms: C_3  and  O_4 
REMARK    3  A    between atoms: O_4  and  C_5 
REMARK    4  A    between atoms: C_6  and  O_7 
REMARK    5  A    between atoms: C_10  and  C_11 
REMARK    6  A    between atoms: C_11  and  N_12 
REMARK    7  A    between atoms: N_12  and  C_13 
REMARK    8  A    between atoms: C_20  and  C_21 
REMARK       I    between atoms: C_21  and  N_22 
ROOT
HETATM    1  C   UNL     1      42.531 -15.957   2.243  1.00  0.00     0.009 A 
HETATM    2  C   UNL     1      42.859 -17.325   2.238  1.00  0.00     0.039 A 
HETATM    3  C   UNL     1      43.414 -17.934   3.382  1.00  0.00     0.030 A 
HETATM    4  C   UNL     1      43.665 -17.150   4.498  1.00  0.00     0.063 A 
HETATM    5  N   UNL     1      44.204 -17.997   5.424  1.00  0.00    -0.277 N 
HETATM    6  H   UNL     1      44.516 -17.765   6.360  1.00  0.00     0.189 HD
HETATM    7  N   UNL     1      44.323 -19.271   5.011  1.00  0.00    -0.168 NA
HETATM    8  C   UNL     1      43.840 -19.246   3.748  1.00  0.00     0.156 A 
HETATM    9  C   UNL     1      43.395 -15.781   4.538  1.00  0.00     0.034 A 
HETATM   10  C   UNL     1      42.837 -15.206   3.385  1.00  0.00     0.026 A 
ENDROOT
BRANCH   1  11
HETATM   11  N   UNL     1      42.053 -15.389   1.056  1.00  0.00    -0.289 NA
HETATM   12  H   UNL     1      42.361 -15.903   0.234  1.00  0.00     0.128 HD
BRANCH  11  13
HETATM   13  C   UNL     1      40.660 -14.978   0.961  1.00  0.00     0.131 C 
BRANCH  13  14
HETATM   14  C   UNL     1      40.503 -13.998  -0.180  1.00  0.00    -0.042 A 
HETATM   15  C   UNL     1      39.925 -14.390  -1.396  1.00  0.00     0.048 A 
HETATM   16  C   UNL     1      39.770 -13.471  -2.442  1.00  0.00     0.102 A 
HETATM   17  C   UNL     1      40.171 -12.133  -2.268  1.00  0.00     0.102 A 
HETATM   18  C   UNL     1      40.770 -11.748  -1.066  1.00  0.00     0.040 A 
HETATM   19  C   UNL     1      40.937 -12.674  -0.032  1.00  0.00     0.011 A 
BRANCH  16  20
HETATM   20  O   UNL     1      39.186 -13.787  -3.644  1.00  0.00    -0.353 OA
HETATM   21  C   UNL     1      38.128 -14.735  -3.596  1.00  0.00     0.210 C 
ENDBRANCH  16  20
BRANCH  17  22
HETATM   22  O   UNL     1      39.958 -11.294  -3.333  1.00  0.00    -0.348 OA
BRANCH  22  23
HETATM   23  C   UNL     1      39.834  -9.899  -3.060  1.00  0.00     0.175 C 
BRANCH  23  24
HETATM   24  C   UNL     1      40.980  -9.181  -3.767  1.00  0.00     0.022 C 
HETATM   25  C   UNL     1      40.474  -8.202  -4.811  1.00  0.00     0.007 C 
ENDBRANCH  23  24
ENDBRANCH  22  23
ENDBRANCH  17  22
ENDBRANCH  13  14
ENDBRANCH  11  13
ENDBRANCH   1  11
BRANCH   8  26
HETATM   26  C   UNL     1      43.790 -20.461   2.924  1.00  0.00     0.270 C 
HETATM   27  N   UNL     1      44.122 -21.606   3.597  1.00  0.00    -0.365 N 
HETATM   28  H   UNL     1      44.368 -21.538   4.577  1.00  0.00     0.159 HD
HETATM   29  H   UNL     1      44.115 -22.491   3.116  1.00  0.00     0.159 HD
HETATM   30  O   UNL     1      43.481 -20.487   1.737  1.00  0.00    -0.266 OA
ENDBRANCH   8  26
TORSDOF 8
ENDMDL
MODEL 4
REMARK VINA RESULT:      -7.3      3.267      9.351
REMARK  8 active torsions:
REMARK  status: ('A' for Active; 'I' for Inactive)
REMARK    1  A    between atoms: C_2  and  C_3 
REMARK    2  A    between atoms: C_3  and  O_4 
REMARK    3  A    between atoms: O_4  and  C_5 
REMARK    4  A    between atoms: C_6  and  O_7 
REMARK    5  A    between atoms: C_10  and  C_11 
REMARK    6  A    between atoms: C_11  and  N_12 
REMARK    7  A    between atoms: N_12  and  C_13 
REMARK    8  A    between atoms: C_20  and  C_21 
REMARK       I    between atoms: C_21  and  N_22 
ROOT
HETATM    1  C   UNL     1      43.168 -15.693   4.119  1.00  0.00     0.009 A 
HETATM    2  C   UNL     1      43.364 -16.961   4.697  1.00  0.00     0.039 A 
HETATM    3  C   UNL     1      43.484 -18.109   3.886  1.00  0.00     0.030 A 
HETATM    4  C   UNL     1      43.368 -17.968   2.511  1.00  0.00     0.063 A 
HETATM    5  N   UNL     1      43.512 -19.227   2.004  1.00  0.00    -0.277 N 
HETATM    6  H   UNL     1      43.478 -19.504   1.029  1.00  0.00     0.189 HD
HETATM    7  N   UNL     1      43.719 -20.181   2.929  1.00  0.00    -0.168 NA
HETATM    8  C   UNL     1      43.701 -19.503   4.099  1.00  0.00     0.156 A 
HETATM    9  C   UNL     1      43.135 -16.739   1.894  1.00  0.00     0.034 A 
HETATM   10  C   UNL     1      43.026 -15.614   2.727  1.00  0.00     0.026 A 
ENDROOT
BRANCH   1  11
HETATM   11  N   UNL     1      42.981 -14.600   4.973  1.00  0.00    -0.289 NA
HETATM   12  H   UNL     1      43.637 -14.606   5.751  1.00  0.00     0.128 HD
BRANCH  11  13
HETATM   13  C   UNL     1      42.797 -13.269   4.415  1.00  0.00     0.131 C 
BRANCH  13  14
HETATM   14  C   UNL     1      42.884 -12.244   5.523  1.00  0.00    -0.042 A 
HETATM   15  C   UNL     1      43.985 -12.210   6.391  1.00  0.00     0.048 A 
HETATM   16  C   UNL     1      44.064 -11.246   7.406  1.00  0.00     0.102 A 
HETATM   17  C   UNL     1      43.046 -10.285   7.544  1.00  0.00     0.102 A 
HETATM   18  C   UNL     1      41.937 -10.335   6.696  1.00  0.00     0.040 A 
HETATM   19  C   UNL     1      41.856 -11.309   5.697  1.00  0.00     0.011 A 
BRANCH  16  20
HETATM   20  O   UNL     1      45.129 -11.143   8.268  1.00  0.00    -0.353 OA
HETATM   21  C   UNL     1      46.310 -10.557   7.736  1.00  0.00     0.210 C 
ENDBRANCH  16  20
BRANCH  17  22
HETATM   22  O   UNL     1      43.216  -9.362   8.546  1.00  0.00    -0.348 OA
BRANCH  22  23
HETATM   23  C   UNL     1      42.219  -9.304   9.565  1.00  0.00     0.175 C 
BRANCH  23  24
HETATM   24  C   UNL     1      42.816  -9.901  10.837  1.00  0.00     0.022 C 
HETATM   25  C   UNL     1      44.147  -9.261  11.190  1.00  0.00     0.007 C 
ENDBRANCH  23  24
ENDBRANCH  22  23
ENDBRANCH  17  22
ENDBRANCH  13  14
ENDBRANCH  11  13
ENDBRANCH   1  11
BRANCH   8  26
HETATM   26  C   UNL     1      43.892 -20.190   5.384  1.00  0.00     0.270 C 
HETATM   27  N   UNL     1      44.657 -21.322   5.303  1.00  0.00    -0.365 N 
HETATM   28  H   UNL     1      45.023 -21.596   4.399  1.00  0.00     0.159 HD
HETATM   29  H   UNL     1      44.845 -21.860   6.133  1.00  0.00     0.159 HD
HETATM   30  O   UNL     1      43.427 -19.810   6.453  1.00  0.00    -0.266 OA
ENDBRANCH   8  26
TORSDOF 8
ENDMDL
MODEL 5
REMARK VINA RESULT:      -7.3      3.585      8.304
REMARK  8 active torsions:
REMARK  status: ('A' for Active; 'I' for Inactive)
REMARK    1  A    between atoms: C_2  and  C_3 
REMARK    2  A    between atoms: C_3  and  O_4 
REMARK    3  A    between atoms: O_4  and  C_5 
REMARK    4  A    between atoms: C_6  and  O_7 
REMARK    5  A    between atoms: C_10  and  C_11 
REMARK    6  A    between atoms: C_11  and  N_12 
REMARK    7  A    between atoms: N_12  and  C_13 
REMARK    8  A    between atoms: C_20  and  C_21 
REMARK       I    between atoms: C_21  and  N_22 
ROOT
HETATM    1  C   UNL     1      42.825 -14.143   2.989  1.00  0.00     0.009 A 
HETATM    2  C   UNL     1      42.714 -14.725   4.265  1.00  0.00     0.039 A 
HETATM    3  C   UNL     1      43.014 -16.090   4.459  1.00  0.00     0.030 A 
HETATM    4  C   UNL     1      43.383 -16.853   3.362  1.00  0.00     0.063 A 
HETATM    5  N   UNL     1      43.594 -18.111   3.849  1.00  0.00    -0.277 N 
HETATM    6  H   UNL     1      43.871 -18.934   3.325  1.00  0.00     0.189 HD
HETATM    7  N   UNL     1      43.399 -18.236   5.174  1.00  0.00    -0.168 NA
HETATM    8  C   UNL     1      43.038 -16.992   5.564  1.00  0.00     0.156 A 
HETATM    9  C   UNL     1      43.468 -16.331   2.071  1.00  0.00     0.034 A 
HETATM   10  C   UNL     1      43.170 -14.969   1.911  1.00  0.00     0.026 A 
ENDROOT
BRANCH   1  11
HETATM   11  N   UNL     1      42.443 -12.804   2.839  1.00  0.00    -0.289 NA
HETATM   12  H   UNL     1      41.530 -12.619   3.247  1.00  0.00     0.128 HD
BRANCH  11  13
HETATM   13  C   UNL     1      43.400 -11.744   3.119  1.00  0.00     0.131 C 
BRANCH  13  14
HETATM   14  C   UNL     1      43.271 -11.322   4.565  1.00  0.00    -0.042 A 
HETATM   15  C   UNL     1      44.283 -11.606   5.494  1.00  0.00     0.048 A 
HETATM   16  C   UNL     1      44.161 -11.197   6.829  1.00  0.00     0.102 A 
HETATM   17  C   UNL     1      43.029 -10.471   7.242  1.00  0.00     0.102 A 
HETATM   18  C   UNL     1      42.010 -10.210   6.323  1.00  0.00     0.040 A 
HETATM   19  C   UNL     1      42.129 -10.635   4.997  1.00  0.00     0.011 A 
BRANCH  16  20
HETATM   20  O   UNL     1      45.130 -11.420   7.778  1.00  0.00    -0.353 OA
HETATM   21  C   UNL     1      46.299 -10.618   7.679  1.00  0.00     0.210 C 
ENDBRANCH  16  20
BRANCH  17  22
HETATM   22  O   UNL     1      43.004 -10.087   8.560  1.00  0.00    -0.348 OA
BRANCH  22  23
HETATM   23  C   UNL     1      42.872  -8.694   8.839  1.00  0.00     0.175 C 
BRANCH  23  24
HETATM   24  C   UNL     1      43.944  -8.319   9.858  1.00  0.00     0.022 C 
HETATM   25  C   UNL     1      44.353  -9.507  10.710  1.00  0.00     0.007 C 
ENDBRANCH  23  24
ENDBRANCH  22  23
ENDBRANCH  17  22
ENDBRANCH  13  14
ENDBRANCH  11  13
ENDBRANCH   1  11
BRANCH   8  26
HETATM   26  C   UNL     1      42.728 -16.691   6.968  1.00  0.00     0.270 C 
HETATM   27  N   UNL     1      43.682 -17.115   7.854  1.00  0.00    -0.365 N 
HETATM   28  H   UNL     1      44.502 -17.587   7.492  1.00  0.00     0.159 HD
HETATM   29  H   UNL     1      43.559 -16.952   8.840  1.00  0.00     0.159 HD
HETATM   30  O   UNL     1      41.717 -16.111   7.351  1.00  0.00    -0.266 OA
ENDBRANCH   8  26
TORSDOF 8
ENDMDL
MODEL 6
REMARK VINA RESULT:      -7.3      1.493      2.388
REMARK  8 active torsions:
REMARK  status: ('A' for Active; 'I' for Inactive)
REMARK    1  A    between atoms: C_2  and  C_3 
REMARK    2  A    between atoms: C_3  and  O_4 
REMARK    3  A    between atoms: O_4  and  C_5 
REMARK    4  A    between atoms: C_6  and  O_7 
REMARK    5  A    between atoms: C_10  and  C_11 
REMARK    6  A    between atoms: C_11  and  N_12 
REMARK    7  A    between atoms: N_12  and  C_13 
REMARK    8  A    between atoms: C_20  and  C_21 
REMARK       I    between atoms: C_21  and  N_22 
ROOT
HETATM    1  C   UNL     1      44.189 -11.294   6.053  1.00  0.00     0.009 A 
HETATM    2  C   UNL     1      43.355 -10.795   7.070  1.00  0.00     0.039 A 
HETATM    3  C   UNL     1      43.905 -10.288   8.266  1.00  0.00     0.030 A 
HETATM    4  C   UNL     1      45.281 -10.326   8.434  1.00  0.00     0.063 A 
HETATM    5  N   UNL     1      45.511  -9.789   9.668  1.00  0.00    -0.277 N 
HETATM    6  H   UNL     1      46.407  -9.664  10.126  1.00  0.00     0.189 HD
HETATM    7  N   UNL     1      44.403  -9.397  10.321  1.00  0.00    -0.168 NA
HETATM    8  C   UNL     1      43.401  -9.702   9.465  1.00  0.00     0.156 A 
HETATM    9  C   UNL     1      46.147 -10.848   7.472  1.00  0.00     0.034 A 
HETATM   10  C   UNL     1      45.569 -11.339   6.291  1.00  0.00     0.026 A 
ENDROOT
BRANCH   1  11
HETATM   11  N   UNL     1      43.586 -11.853   4.920  1.00  0.00    -0.289 NA
HETATM   12  H   UNL     1      44.268 -12.258   4.283  1.00  0.00     0.128 HD
BRANCH  11  13
HETATM   13  C   UNL     1      42.404 -12.689   5.068  1.00  0.00     0.131 C 
BRANCH  13  14
HETATM   14  C   UNL     1      42.753 -14.117   4.715  1.00  0.00    -0.042 A 
HETATM   15  C   UNL     1      43.064 -15.053   5.713  1.00  0.00     0.048 A 
HETATM   16  C   UNL     1      43.370 -16.379   5.377  1.00  0.00     0.102 A 
HETATM   17  C   UNL     1      43.342 -16.788   4.031  1.00  0.00     0.102 A 
HETATM   18  C   UNL     1      43.057 -15.850   3.036  1.00  0.00     0.040 A 
HETATM   19  C   UNL     1      42.768 -14.526   3.376  1.00  0.00     0.011 A 
BRANCH  16  20
HETATM   20  O   UNL     1      43.655 -17.347   6.309  1.00  0.00    -0.353 OA
HETATM   21  C   UNL     1      43.917 -16.888   7.629  1.00  0.00     0.210 C 
ENDBRANCH  16  20
BRANCH  17  22
HETATM   22  O   UNL     1      43.629 -18.109   3.794  1.00  0.00    -0.348 OA
BRANCH  22  23
HETATM   23  C   UNL     1      43.806 -18.512   2.437  1.00  0.00     0.175 C 
BRANCH  23  24
HETATM   24  C   UNL     1      43.463 -19.997   2.343  1.00  0.00     0.022 C 
HETATM   25  C   UNL     1      43.835 -20.743   3.612  1.00  0.00     0.007 C 
ENDBRANCH  23  24
ENDBRANCH  22  23
ENDBRANCH  17  22
ENDBRANCH  13  14
ENDBRANCH  11  13
ENDBRANCH   1  11
BRANCH   8  26
HETATM   26  C   UNL     1      41.997  -9.429   9.803  1.00  0.00     0.270 C 
HETATM   27  N   UNL     1      41.577 -10.020  10.964  1.00  0.00    -0.365 N 
HETATM   28  H   UNL     1      42.238 -10.581  11.488  1.00  0.00     0.159 HD
HETATM   29  H   UNL     1      40.630  -9.888  11.279  1.00  0.00     0.159 HD
HETATM   30  O   UNL     1      41.241  -8.736   9.131  1.00  0.00    -0.266 OA
ENDBRANCH   8  26
TORSDOF 8
ENDMDL
MODEL 7
REMARK VINA RESULT:      -7.1      5.178      8.531
REMARK  8 active torsions:
REMARK  status: ('A' for Active; 'I' for Inactive)
REMARK    1  A    between atoms: C_2  and  C_3 
REMARK    2  A    between atoms: C_3  and  O_4 
REMARK    3  A    between atoms: O_4  and  C_5 
REMARK    4  A    between atoms: C_6  and  O_7 
REMARK    5  A    between atoms: C_10  and  C_11 
REMARK    6  A    between atoms: C_11  and  N_12 
REMARK    7  A    between atoms: N_12  and  C_13 
REMARK    8  A    between atoms: C_20  and  C_21 
REMARK       I    between atoms: C_21  and  N_22 
ROOT
HETATM    1  C   UNL     1      39.767 -13.212   1.255  1.00  0.00     0.009 A 
HETATM    2  C   UNL     1      39.319 -13.826   0.071  1.00  0.00     0.039 A 
HETATM    3  C   UNL     1      39.898 -13.495  -1.172  1.00  0.00     0.030 A 
HETATM    4  C   UNL     1      40.891 -12.526  -1.207  1.00  0.00     0.063 A 
HETATM    5  N   UNL     1      41.241 -12.413  -2.522  1.00  0.00    -0.277 N 
HETATM    6  H   UNL     1      41.937 -11.792  -2.921  1.00  0.00     0.189 HD
HETATM    7  N   UNL     1      40.567 -13.230  -3.351  1.00  0.00    -0.168 NA
HETATM    8  C   UNL     1      39.731 -13.903  -2.529  1.00  0.00     0.156 A 
HETATM    9  C   UNL     1      41.340 -11.861  -0.066  1.00  0.00     0.034 A 
HETATM   10  C   UNL     1      40.749 -12.217   1.156  1.00  0.00     0.026 A 
ENDROOT
BRANCH   1  11
HETATM   11  N   UNL     1      39.106 -13.524   2.449  1.00  0.00    -0.289 NA
HETATM   12  H   UNL     1      38.790 -14.490   2.471  1.00  0.00     0.128 HD
BRANCH  11  13
HETATM   13  C   UNL     1      39.672 -13.099   3.721  1.00  0.00     0.131 C 
BRANCH  13  14
HETATM   14  C   UNL     1      40.737 -14.083   4.149  1.00  0.00    -0.042 A 
HETATM   15  C   UNL     1      41.758 -13.704   5.034  1.00  0.00     0.048 A 
HETATM   16  C   UNL     1      42.731 -14.627   5.438  1.00  0.00     0.102 A 
HETATM   17  C   UNL     1      42.675 -15.956   4.976  1.00  0.00     0.102 A 
HETATM   18  C   UNL     1      41.673 -16.326   4.076  1.00  0.00     0.040 A 
HETATM   19  C   UNL     1      40.715 -15.397   3.664  1.00  0.00     0.011 A 
BRANCH  16  20
HETATM   20  O   UNL     1      43.738 -14.325   6.323  1.00  0.00    -0.353 OA
HETATM   21  C   UNL     1      43.973 -12.942   6.554  1.00  0.00     0.210 C 
ENDBRANCH  16  20
BRANCH  17  22
HETATM   22  O   UNL     1      43.652 -16.800   5.442  1.00  0.00    -0.348 OA
BRANCH  22  23
HETATM   23  C   UNL     1      43.233 -17.979   6.127  1.00  0.00     0.175 C 
BRANCH  23  24
HETATM   24  C   UNL     1      43.898 -19.174   5.450  1.00  0.00     0.022 C 
HETATM   25  C   UNL     1      44.504 -18.797   4.110  1.00  0.00     0.007 C 
ENDBRANCH  23  24
ENDBRANCH  22  23
ENDBRANCH  17  22
ENDBRANCH  13  14
ENDBRANCH  11  13
ENDBRANCH   1  11
BRANCH   8  26
HETATM   26  C   UNL     1      38.800 -14.915  -3.047  1.00  0.00     0.270 C 
HETATM   27  N   UNL     1      38.652 -16.006  -2.235  1.00  0.00    -0.365 N 
HETATM   28  H   UNL     1      39.175 -16.038  -1.367  1.00  0.00     0.159 HD
HETATM   29  H   UNL     1      38.033 -16.753  -2.505  1.00  0.00     0.159 HD
HETATM   30  O   UNL     1      38.189 -14.823  -4.107  1.00  0.00    -0.266 OA
ENDBRANCH   8  26
TORSDOF 8
ENDMDL
MODEL 8
REMARK VINA RESULT:      -7.1      5.160      8.694
REMARK  8 active torsions:
REMARK  status: ('A' for Active; 'I' for Inactive)
REMARK    1  A    between atoms: C_2  and  C_3 
REMARK    2  A    between atoms: C_3  and  O_4 
REMARK    3  A    between atoms: O_4  and  C_5 
REMARK    4  A    between atoms: C_6  and  O_7 
REMARK    5  A    between atoms: C_10  and  C_11 
REMARK    6  A    between atoms: C_11  and  N_12 
REMARK    7  A    between atoms: N_12  and  C_13 
REMARK    8  A    between atoms: C_20  and  C_21 
REMARK       I    between atoms: C_21  and  N_22 
ROOT
HETATM    1  C   UNL     1      42.497 -16.350   2.369  1.00  0.00     0.009 A 
HETATM    2  C   UNL     1      42.269 -16.139   3.741  1.00  0.00     0.039 A 
HETATM    3  C   UNL     1      42.819 -17.012   4.703  1.00  0.00     0.030 A 
HETATM    4  C   UNL     1      43.556 -18.103   4.267  1.00  0.00     0.063 A 
HETATM    5  N   UNL     1      43.940 -18.759   5.402  1.00  0.00    -0.277 N 
HETATM    6  H   UNL     1      44.490 -19.608   5.463  1.00  0.00     0.189 HD
HETATM    7  N   UNL     1      43.521 -18.187   6.544  1.00  0.00    -0.168 NA
HETATM    8  C   UNL     1      42.824 -17.106   6.126  1.00  0.00     0.156 A 
HETATM    9  C   UNL     1      43.776 -18.377   2.917  1.00  0.00     0.034 A 
HETATM   10  C   UNL     1      43.221 -17.486   1.984  1.00  0.00     0.026 A 
ENDROOT
BRANCH   1  11
HETATM   11  N   UNL     1      41.866 -15.496   1.456  1.00  0.00    -0.289 NA
HETATM   12  H   UNL     1      42.324 -15.501   0.548  1.00  0.00     0.128 HD
BRANCH  11  13
HETATM   13  C   UNL     1      40.415 -15.503   1.344  1.00  0.00     0.131 C 
BRANCH  13  14
HETATM   14  C   UNL     1      39.975 -14.352   0.468  1.00  0.00    -0.042 A 
HETATM   15  C   UNL     1      39.665 -14.552  -0.886  1.00  0.00     0.048 A 
HETATM   16  C   UNL     1      39.243 -13.482  -1.686  1.00  0.00     0.102 A 
HETATM   17  C   UNL     1      39.100 -12.198  -1.127  1.00  0.00     0.102 A 
HETATM   18  C   UNL     1      39.432 -11.995   0.215  1.00  0.00     0.040 A 
HETATM   19  C   UNL     1      39.869 -13.062   1.003  1.00  0.00     0.011 A 
BRANCH  16  20
HETATM   20  O   UNL     1      38.899 -13.619  -3.009  1.00  0.00    -0.353 OA
HETATM   21  C   UNL     1      38.259 -14.837  -3.367  1.00  0.00     0.210 C 
ENDBRANCH  16  20
BRANCH  17  22
HETATM   22  O   UNL     1      38.656 -11.214  -1.976  1.00  0.00    -0.348 OA
BRANCH  22  23
HETATM   23  C   UNL     1      39.237  -9.918  -1.843  1.00  0.00     0.175 C 
BRANCH  23  24
HETATM   24  C   UNL     1      40.504  -9.886  -2.694  1.00  0.00     0.022 C 
HETATM   25  C   UNL     1      40.252  -9.270  -4.058  1.00  0.00     0.007 C 
ENDBRANCH  23  24
ENDBRANCH  22  23
ENDBRANCH  17  22
ENDBRANCH  13  14
ENDBRANCH  11  13
ENDBRANCH   1  11
BRANCH   8  26
HETATM   26  C   UNL     1      42.185 -16.192   7.083  1.00  0.00     0.270 C 
HETATM   27  N   UNL     1      42.988 -15.829   8.130  1.00  0.00    -0.365 N 
HETATM   28  H   UNL     1      43.929 -16.202   8.171  1.00  0.00     0.159 HD
HETATM   29  H   UNL     1      42.638 -15.203   8.837  1.00  0.00     0.159 HD
HETATM   30  O   UNL     1      41.038 -15.767   6.982  1.00  0.00    -0.266 OA
ENDBRANCH   8  26
TORSDOF 8
ENDMDL
MODEL 9
REMARK VINA RESULT:      -7.0      5.580      8.188
REMARK  8 active torsions:
REMARK  status: ('A' for Active; 'I' for Inactive)
REMARK    1  A    between atoms: C_2  and  C_3 
REMARK    2  A    between atoms: C_3  and  O_4 
REMARK    3  A    between atoms: O_4  and  C_5 
REMARK    4  A    between atoms: C_6  and  O_7 
REMARK    5  A    between atoms: C_10  and  C_11 
REMARK    6  A    between atoms: C_11  and  N_12 
REMARK    7  A    between atoms: N_12  and  C_13 
REMARK    8  A    between atoms: C_20  and  C_21 
REMARK       I    between atoms: C_21  and  N_22 
ROOT
HETATM    1  C   UNL     1      39.881 -13.620   0.873  1.00  0.00     0.009 A 
HETATM    2  C   UNL     1      39.222 -12.433   0.503  1.00  0.00     0.039 A 
HETATM    3  C   UNL     1      38.610 -12.315  -0.762  1.00  0.00     0.030 A 
HETATM    4  C   UNL     1      38.702 -13.379  -1.647  1.00  0.00     0.063 A 
HETATM    5  N   UNL     1      38.038 -12.975  -2.770  1.00  0.00    -0.277 N 
HETATM    6  H   UNL     1      37.909 -13.499  -3.628  1.00  0.00     0.189 HD
HETATM    7  N   UNL     1      37.514 -11.739  -2.694  1.00  0.00    -0.168 NA
HETATM    8  C   UNL     1      37.862 -11.318  -1.457  1.00  0.00     0.156 A 
HETATM    9  C   UNL     1      39.378 -14.561  -1.342  1.00  0.00     0.034 A 
HETATM   10  C   UNL     1      39.972 -14.649  -0.073  1.00  0.00     0.026 A 
ENDROOT
BRANCH   1  11
HETATM   11  N   UNL     1      40.535 -13.654   2.110  1.00  0.00    -0.289 NA
HETATM   12  H   UNL     1      40.170 -14.385   2.716  1.00  0.00     0.128 HD
BRANCH  11  13
HETATM   13  C   UNL     1      41.986 -13.564   2.164  1.00  0.00     0.131 C 
BRANCH  13  14
HETATM   14  C   UNL     1      42.557 -14.907   2.559  1.00  0.00    -0.042 A 
HETATM   15  C   UNL     1      42.723 -15.253   3.908  1.00  0.00     0.048 A 
HETATM   16  C   UNL     1      43.237 -16.507   4.266  1.00  0.00     0.102 A 
HETATM   17  C   UNL     1      43.568 -17.442   3.267  1.00  0.00     0.102 A 
HETATM   18  C   UNL     1      43.426 -17.088   1.923  1.00  0.00     0.040 A 
HETATM   19  C   UNL     1      42.928 -15.831   1.573  1.00  0.00     0.011 A 
BRANCH  16  20
HETATM   20  O   UNL     1      43.396 -16.915   5.568  1.00  0.00    -0.353 OA
HETATM   21  C   UNL     1      44.435 -16.278   6.301  1.00  0.00     0.210 C 
ENDBRANCH  16  20
BRANCH  17  22
HETATM   22  O   UNL     1      44.040 -18.654   3.706  1.00  0.00    -0.348 OA
BRANCH  22  23
HETATM   23  C   UNL     1      43.734 -19.805   2.920  1.00  0.00     0.175 C 
BRANCH  23  24
HETATM   24  C   UNL     1      43.858 -21.031   3.820  1.00  0.00     0.022 C 
HETATM   25  C   UNL     1      43.964 -20.647   5.285  1.00  0.00     0.007 C 
ENDBRANCH  23  24
ENDBRANCH  22  23
ENDBRANCH  17  22
ENDBRANCH  13  14
ENDBRANCH  11  13
ENDBRANCH   1  11
BRANCH   8  26
HETATM   26  C   UNL     1      37.477  -9.988  -0.965  1.00  0.00     0.270 C 
HETATM   27  N   UNL     1      38.497  -9.076  -0.964  1.00  0.00    -0.365 N 
HETATM   28  H   UNL     1      39.410  -9.370  -1.290  1.00  0.00     0.159 HD
HETATM   29  H   UNL     1      38.329  -8.135  -0.646  1.00  0.00     0.159 HD
HETATM   30  O   UNL     1      36.351  -9.685  -0.584  1.00  0.00    -0.266 OA
ENDBRANCH   8  26
TORSDOF 8
ENDMDL
MODEL 10
REMARK VINA RESULT:      -7.0      5.580      9.803
REMARK  8 active torsions:
REMARK  status: ('A' for Active; 'I' for Inactive)
REMARK    1  A    between atoms: C_2  and  C_3 
REMARK    2  A    between atoms: C_3  and  O_4 
REMARK    3  A    between atoms: O_4  and  C_5 
REMARK    4  A    between atoms: C_6  and  O_7 
REMARK    5  A    between atoms: C_10  and  C_11 
REMARK    6  A    between atoms: C_11  and  N_12 
REMARK    7  A    between atoms: N_12  and  C_13 
REMARK    8  A    between atoms: C_20  and  C_21 
REMARK       I    between atoms: C_21  and  N_22 
ROOT
HETATM    1  C   UNL     1      42.437 -15.822   2.125  1.00  0.00     0.009 A 
HETATM    2  C   UNL     1      42.802 -17.181   2.153  1.00  0.00     0.039 A 
HETATM    3  C   UNL     1      43.371 -17.748   3.312  1.00  0.00     0.030 A 
HETATM    4  C   UNL     1      43.598 -16.931   4.410  1.00  0.00     0.063 A 
HETATM    5  N   UNL     1      44.157 -17.742   5.356  1.00  0.00    -0.277 N 
HETATM    6  H   UNL     1      44.460 -17.480   6.287  1.00  0.00     0.189 HD
HETATM    7  N   UNL     1      44.311 -19.022   4.973  1.00  0.00    -0.168 NA
HETATM    8  C   UNL     1      43.830 -19.039   3.709  1.00  0.00     0.156 A 
HETATM    9  C   UNL     1      43.291 -15.570   4.417  1.00  0.00     0.034 A 
HETATM   10  C   UNL     1      42.720 -15.037   3.251  1.00  0.00     0.026 A 
ENDROOT
BRANCH   1  11
HETATM   11  N   UNL     1      41.947 -15.295   0.925  1.00  0.00    -0.289 NA
HETATM   12  H   UNL     1      42.383 -15.724   0.112  1.00  0.00     0.128 HD
BRANCH  11  13
HETATM   13  C   UNL     1      40.514 -15.108   0.749  1.00  0.00     0.131 C 
BRANCH  13  14
HETATM   14  C   UNL     1      40.273 -14.004  -0.256  1.00  0.00    -0.042 A 
HETATM   15  C   UNL     1      40.976 -12.793  -0.182  1.00  0.00     0.048 A 
HETATM   16  C   UNL     1      40.757 -11.782  -1.128  1.00  0.00     0.102 A 
HETATM   17  C   UNL     1      39.844 -11.987  -2.179  1.00  0.00     0.102 A 
HETATM   18  C   UNL     1      39.125 -13.184  -2.237  1.00  0.00     0.040 A 
HETATM   19  C   UNL     1      39.336 -14.182  -1.282  1.00  0.00     0.011 A 
BRANCH  16  20
HETATM   20  O   UNL     1      41.435 -10.587  -1.126  1.00  0.00    -0.353 OA
HETATM   21  C   UNL     1      41.425  -9.864   0.098  1.00  0.00     0.210 C 
ENDBRANCH  16  20
BRANCH  17  22
HETATM   22  O   UNL     1      39.710 -10.956  -3.075  1.00  0.00    -0.348 OA
BRANCH  22  23
HETATM   23  C   UNL     1      38.401 -10.430  -3.283  1.00  0.00     0.175 C 
BRANCH  23  24
HETATM   24  C   UNL     1      38.018  -9.625  -2.044  1.00  0.00     0.022 C 
HETATM   25  C   UNL     1      36.722 -10.121  -1.427  1.00  0.00     0.007 C 
ENDBRANCH  23  24
ENDBRANCH  22  23
ENDBRANCH  17  22
ENDBRANCH  13  14
ENDBRANCH  11  13
ENDBRANCH   1  11
BRANCH   8  26
HETATM   26  C   UNL     1      43.816 -20.274   2.913  1.00  0.00     0.270 C 
HETATM   27  N   UNL     1      44.021 -21.412   3.645  1.00  0.00    -0.365 N 
HETATM   28  H   UNL     1      44.163 -21.326   4.645  1.00  0.00     0.159 HD
HETATM   29  H   UNL     1      44.027 -22.309   3.187  1.00  0.00     0.159 HD
HETATM   30  O   UNL     1      43.635 -20.321   1.701  1.00  0.00    -0.266 OA
ENDBRANCH   8  26
TORSDOF 8
ENDMDL
