MODEL 1
REMARK VINA RESULT:      -9.2      0.000      0.000
REMARK  7 active torsions:
REMARK  status: ('A' for Active; 'I' for Inactive)
REMARK       I    between atoms: C_2  and  N_3 
REMARK    1  A    between atoms: C_2  and  C_11 
REMARK    2  A    between atoms: N_3  and  C_4 
REMARK    3  A    between atoms: C_4  and  C_5 
REMARK    4  A    between atoms: C_15  and  N_16 
REMARK    5  A    between atoms: N_16  and  C_17 
REMARK    6  A    between atoms: C_17  and  C_18 
REMARK    7  A    between atoms: C_20  and  C_24 
ROOT
HETATM    1  C   UNL     1      44.347 -10.417   9.777  1.00  0.00     0.033 A 
HETATM    2  C   UNL     1      45.427  -9.528   9.764  1.00  0.00     0.017 A 
HETATM    3  C   UNL     1      46.095  -9.278   8.570  1.00  0.00     0.003 A 
HETATM    4  C   UNL     1      45.693  -9.926   7.398  1.00  0.00     0.023 A 
HETATM    5  C   UNL     1      44.636 -10.849   7.394  1.00  0.00     0.009 A 
HETATM    6  C   UNL     1      43.940 -11.049   8.592  1.00  0.00     0.040 A 
ENDROOT
BRANCH   5   7
HETATM    7  N   UNL     1      44.247 -11.406   6.170  1.00  0.00    -0.286 NA
HETATM    8  H   UNL     1      44.921 -12.104   5.854  1.00  0.00     0.128 HD
BRANCH   7   9
HETATM    9  C   UNL     1      42.891 -11.940   6.037  1.00  0.00     0.171 C 
BRANCH   9  10
HETATM   10  C   UNL     1      42.883 -13.438   6.005  1.00  0.00     0.117 A 
HETATM   11  N   UNL     1      43.262 -14.209   5.005  1.00  0.00    -0.232 NA
HETATM   12  C   UNL     1      43.012 -15.504   5.405  1.00  0.00     0.084 A 
HETATM   13  C   UNL     1      42.471 -15.510   6.672  1.00  0.00     0.122 A 
HETATM   14  N   UNL     1      42.383 -14.193   7.036  1.00  0.00    -0.351 N 
HETATM   15  H   UNL     1      41.993 -13.829   7.894  1.00  0.00     0.166 HD
BRANCH  12  16
HETATM   16  C   UNL     1      43.283 -16.656   4.558  1.00  0.00    -0.003 A 
HETATM   17  C   UNL     1      44.165 -17.642   5.008  1.00  0.00     0.033 A 
HETATM   18  C   UNL     1      44.425 -18.729   4.191  1.00  0.00     0.117 A 
HETATM   19  N   UNL     1      43.872 -18.900   2.973  1.00  0.00    -0.273 NA
HETATM   20  C   UNL     1      43.021 -17.939   2.556  1.00  0.00     0.117 A 
HETATM   21  C   UNL     1      42.698 -16.815   3.301  1.00  0.00     0.033 A 
ENDBRANCH  12  16
ENDBRANCH   9  10
ENDBRANCH   7   9
ENDBRANCH   5   7
BRANCH   1  22
HETATM   22  C   UNL     1      43.575 -10.678  11.022  1.00  0.00     0.251 C 
HETATM   23  O   UNL     1      44.000 -11.473  11.853  1.00  0.00    -0.268 OA
HETATM   24  N   UNL     1      42.407  -9.961  11.167  1.00  0.00    -0.353 N 
HETATM   25  H   UNL     1      42.250  -9.160  10.572  1.00  0.00     0.163 HD
BRANCH  24  26
HETATM   26  C   UNL     1      41.598 -10.063  12.360  1.00  0.00     0.161 C 
BRANCH  26  27
HETATM   27  C   UNL     1      41.955  -8.993  13.358  1.00  0.00    -0.041 A 
HETATM   28  C   UNL     1      41.250  -8.867  14.564  1.00  0.00     0.009 A 
HETATM   29  C   UNL     1      41.588  -7.867  15.479  1.00  0.00     0.001 A 
HETATM   30  C   UNL     1      42.626  -6.982  15.196  1.00  0.00     0.000 A 
HETATM   31  C   UNL     1      43.325  -7.090  13.995  1.00  0.00     0.001 A 
HETATM   32  C   UNL     1      42.989  -8.087  13.080  1.00  0.00     0.009 A 
ENDBRANCH  26  27
ENDBRANCH  24  26
ENDBRANCH   1  22
TORSDOF 7
ENDMDL
MODEL 2
REMARK VINA RESULT:      -9.1      5.073      9.071
REMARK  7 active torsions:
REMARK  status: ('A' for Active; 'I' for Inactive)
REMARK       I    between atoms: C_2  and  N_3 
REMARK    1  A    between atoms: C_2  and  C_11 
REMARK    2  A    between atoms: N_3  and  C_4 
REMARK    3  A    between atoms: C_4  and  C_5 
REMARK    4  A    between atoms: C_15  and  N_16 
REMARK    5  A    between atoms: N_16  and  C_17 
REMARK    6  A    between atoms: C_17  and  C_18 
REMARK    7  A    between atoms: C_20  and  C_24 
ROOT
HETATM    1  C   UNL     1      43.260 -13.878   6.333  1.00  0.00     0.033 A 
HETATM    2  C   UNL     1      44.200 -12.904   6.684  1.00  0.00     0.017 A 
HETATM    3  C   UNL     1      43.970 -11.575   6.343  1.00  0.00     0.003 A 
HETATM    4  C   UNL     1      42.812 -11.226   5.642  1.00  0.00     0.023 A 
HETATM    5  C   UNL     1      41.873 -12.191   5.247  1.00  0.00     0.009 A 
HETATM    6  C   UNL     1      42.092 -13.515   5.644  1.00  0.00     0.040 A 
ENDROOT
BRANCH   5   7
HETATM    7  N   UNL     1      40.705 -11.757   4.609  1.00  0.00    -0.286 NA
HETATM    8  H   UNL     1      40.923 -11.261   3.743  1.00  0.00     0.128 HD
BRANCH   7   9
HETATM    9  C   UNL     1      39.634 -12.724   4.362  1.00  0.00     0.171 C 
BRANCH   9  10
HETATM   10  C   UNL     1      39.808 -13.424   3.049  1.00  0.00     0.117 A 
HETATM   11  N   UNL     1      39.863 -12.866   1.857  1.00  0.00    -0.232 NA
HETATM   12  C   UNL     1      39.958 -13.902   0.953  1.00  0.00     0.084 A 
HETATM   13  C   UNL     1      39.961 -15.109   1.618  1.00  0.00     0.122 A 
HETATM   14  N   UNL     1      39.852 -14.792   2.946  1.00  0.00    -0.351 N 
HETATM   15  H   UNL     1      39.785 -15.442   3.718  1.00  0.00     0.166 HD
BRANCH  12  16
HETATM   16  C   UNL     1      40.023 -13.690  -0.484  1.00  0.00    -0.003 A 
HETATM   17  C   UNL     1      39.359 -14.576  -1.336  1.00  0.00     0.033 A 
HETATM   18  C   UNL     1      39.434 -14.373  -2.704  1.00  0.00     0.117 A 
HETATM   19  N   UNL     1      40.117 -13.360  -3.274  1.00  0.00    -0.273 NA
HETATM   20  C   UNL     1      40.751 -12.513  -2.436  1.00  0.00     0.117 A 
HETATM   21  C   UNL     1      40.734 -12.633  -1.055  1.00  0.00     0.033 A 
ENDBRANCH  12  16
ENDBRANCH   9  10
ENDBRANCH   7   9
ENDBRANCH   5   7
BRANCH   1  22
HETATM   22  C   UNL     1      43.443 -15.304   6.717  1.00  0.00     0.251 C 
HETATM   23  O   UNL     1      43.205 -15.666   7.864  1.00  0.00    -0.268 OA
HETATM   24  N   UNL     1      43.859 -16.149   5.711  1.00  0.00    -0.353 N 
HETATM   25  H   UNL     1      43.797 -15.834   4.754  1.00  0.00     0.163 HD
BRANCH  24  26
HETATM   26  C   UNL     1      44.005 -17.571   5.928  1.00  0.00     0.161 C 
BRANCH  26  27
HETATM   27  C   UNL     1      43.794 -18.345   4.653  1.00  0.00    -0.041 A 
HETATM   28  C   UNL     1      44.084 -19.715   4.585  1.00  0.00     0.009 A 
HETATM   29  C   UNL     1      43.888 -20.421   3.396  1.00  0.00     0.001 A 
HETATM   30  C   UNL     1      43.410 -19.764   2.264  1.00  0.00     0.000 A 
HETATM   31  C   UNL     1      43.131 -18.400   2.316  1.00  0.00     0.001 A 
HETATM   32  C   UNL     1      43.326 -17.693   3.502  1.00  0.00     0.009 A 
ENDBRANCH  26  27
ENDBRANCH  24  26
ENDBRANCH   1  22
TORSDOF 7
ENDMDL
MODEL 3
REMARK VINA RESULT:      -9.0      2.737     10.458
REMARK  7 active torsions:
REMARK  status: ('A' for Active; 'I' for Inactive)
REMARK       I    between atoms: C_2  and  N_3 
REMARK    1  A    between atoms: C_2  and  C_11 
REMARK    2  A    between atoms: N_3  and  C_4 
REMARK    3  A    between atoms: C_4  and  C_5 
REMARK    4  A    between atoms: C_15  and  N_16 
REMARK    5  A    between atoms: N_16  and  C_17 
REMARK    6  A    between atoms: C_17  and  C_18 
REMARK    7  A    between atoms: C_20  and  C_24 
ROOT
HETATM    1  C   UNL     1      41.767 -14.352   4.367  1.00  0.00     0.033 A 
HETATM    2  C   UNL     1      40.621 -14.063   5.115  1.00  0.00     0.017 A 
HETATM    3  C   UNL     1      40.570 -12.894   5.867  1.00  0.00     0.003 A 
HETATM    4  C   UNL     1      41.665 -12.025   5.880  1.00  0.00     0.023 A 
HETATM    5  C   UNL     1      42.839 -12.312   5.166  1.00  0.00     0.009 A 
HETATM    6  C   UNL     1      42.855 -13.465   4.373  1.00  0.00     0.040 A 
ENDROOT
BRANCH   5   7
HETATM    7  N   UNL     1      43.868 -11.361   5.172  1.00  0.00    -0.286 NA
HETATM    8  H   UNL     1      43.516 -10.443   5.444  1.00  0.00     0.128 HD
BRANCH   7   9
HETATM    9  C   UNL     1      45.095 -11.655   5.914  1.00  0.00     0.171 C 
BRANCH   9  10
HETATM   10  C   UNL     1      45.175 -10.871   7.188  1.00  0.00     0.117 A 
HETATM   11  N   UNL     1      44.325 -10.909   8.195  1.00  0.00    -0.232 NA
HETATM   12  C   UNL     1      44.768  -9.974   9.105  1.00  0.00     0.084 A 
HETATM   13  C   UNL     1      45.909  -9.361   8.635  1.00  0.00     0.122 A 
HETATM   14  N   UNL     1      46.149  -9.930   7.412  1.00  0.00    -0.351 N 
HETATM   15  H   UNL     1      46.889  -9.686   6.769  1.00  0.00     0.166 HD
BRANCH  12  16
HETATM   16  C   UNL     1      44.076  -9.704  10.356  1.00  0.00    -0.003 A 
HETATM   17  C   UNL     1      43.707 -10.773  11.177  1.00  0.00     0.033 A 
HETATM   18  C   UNL     1      43.039 -10.507  12.361  1.00  0.00     0.117 A 
HETATM   19  N   UNL     1      42.719  -9.266  12.778  1.00  0.00    -0.273 NA
HETATM   20  C   UNL     1      43.085  -8.246  11.974  1.00  0.00     0.117 A 
HETATM   21  C   UNL     1      43.756  -8.410  10.771  1.00  0.00     0.033 A 
ENDBRANCH  12  16
ENDBRANCH   9  10
ENDBRANCH   7   9
ENDBRANCH   5   7
BRANCH   1  22
HETATM   22  C   UNL     1      41.848 -15.568   3.513  1.00  0.00     0.251 C 
HETATM   23  O   UNL     1      40.839 -16.223   3.280  1.00  0.00    -0.268 OA
HETATM   24  N   UNL     1      43.095 -15.866   3.008  1.00  0.00    -0.353 N 
HETATM   25  H   UNL     1      43.815 -15.158   3.038  1.00  0.00     0.163 HD
BRANCH  24  26
HETATM   26  C   UNL     1      43.302 -16.976   2.105  1.00  0.00     0.161 C 
BRANCH  26  27
HETATM   27  C   UNL     1      43.550 -18.257   2.858  1.00  0.00    -0.041 A 
HETATM   28  C   UNL     1      43.958 -18.237   4.200  1.00  0.00     0.009 A 
HETATM   29  C   UNL     1      44.189 -19.432   4.886  1.00  0.00     0.001 A 
HETATM   30  C   UNL     1      44.021 -20.654   4.237  1.00  0.00     0.000 A 
HETATM   31  C   UNL     1      43.628 -20.685   2.901  1.00  0.00     0.001 A 
HETATM   32  C   UNL     1      43.398 -19.493   2.214  1.00  0.00     0.009 A 
ENDBRANCH  26  27
ENDBRANCH  24  26
ENDBRANCH   1  22
TORSDOF 7
ENDMDL
MODEL 4
REMARK VINA RESULT:      -9.0      3.385      5.817
REMARK  7 active torsions:
REMARK  status: ('A' for Active; 'I' for Inactive)
REMARK       I    between atoms: C_2  and  N_3 
REMARK    1  A    between atoms: C_2  and  C_11 
REMARK    2  A    between atoms: N_3  and  C_4 
REMARK    3  A    between atoms: C_4  and  C_5 
REMARK    4  A    between atoms: C_15  and  N_16 
REMARK    5  A    between atoms: N_16  and  C_17 
REMARK    6  A    between atoms: C_17  and  C_18 
REMARK    7  A    between atoms: C_20  and  C_24 
ROOT
HETATM    1  C   UNL     1      41.220 -12.689   5.016  1.00  0.00     0.033 A 
HETATM    2  C   UNL     1      40.592 -11.440   5.027  1.00  0.00     0.017 A 
HETATM    3  C   UNL     1      39.539 -11.194   4.151  1.00  0.00     0.003 A 
HETATM    4  C   UNL     1      39.126 -12.190   3.261  1.00  0.00     0.023 A 
HETATM    5  C   UNL     1      39.765 -13.438   3.207  1.00  0.00     0.009 A 
HETATM    6  C   UNL     1      40.788 -13.688   4.130  1.00  0.00     0.040 A 
ENDROOT
BRANCH   5   7
HETATM    7  N   UNL     1      39.252 -14.408   2.337  1.00  0.00    -0.286 NA
HETATM    8  H   UNL     1      38.281 -14.207   2.096  1.00  0.00     0.128 HD
BRANCH   7   9
HETATM    9  C   UNL     1      40.001 -14.734   1.123  1.00  0.00     0.171 C 
BRANCH   9  10
HETATM   10  C   UNL     1      41.252 -15.498   1.428  1.00  0.00     0.117 A 
HETATM   11  N   UNL     1      41.339 -16.655   2.054  1.00  0.00    -0.232 NA
HETATM   12  C   UNL     1      42.685 -16.930   2.165  1.00  0.00     0.084 A 
HETATM   13  C   UNL     1      43.422 -15.915   1.595  1.00  0.00     0.122 A 
HETATM   14  N   UNL     1      42.502 -15.008   1.143  1.00  0.00    -0.351 N 
HETATM   15  H   UNL     1      42.697 -14.118   0.703  1.00  0.00     0.166 HD
BRANCH  12  16
HETATM   16  C   UNL     1      43.193 -18.125   2.820  1.00  0.00    -0.003 A 
HETATM   17  C   UNL     1      43.704 -18.028   4.117  1.00  0.00     0.033 A 
HETATM   18  C   UNL     1      44.195 -19.169   4.730  1.00  0.00     0.117 A 
HETATM   19  N   UNL     1      44.212 -20.385   4.146  1.00  0.00    -0.273 NA
HETATM   20  C   UNL     1      43.713 -20.459   2.895  1.00  0.00     0.117 A 
HETATM   21  C   UNL     1      43.199 -19.375   2.199  1.00  0.00     0.033 A 
ENDBRANCH  12  16
ENDBRANCH   9  10
ENDBRANCH   7   9
ENDBRANCH   5   7
BRANCH   1  22
HETATM   22  C   UNL     1      42.320 -13.010   5.966  1.00  0.00     0.251 C 
HETATM   23  O   UNL     1      42.204 -13.950   6.744  1.00  0.00    -0.268 OA
HETATM   24  N   UNL     1      43.441 -12.213   5.879  1.00  0.00    -0.353 N 
HETATM   25  H   UNL     1      43.562 -11.630   5.064  1.00  0.00     0.163 HD
BRANCH  24  26
HETATM   26  C   UNL     1      44.611 -12.461   6.691  1.00  0.00     0.161 C 
BRANCH  26  27
HETATM   27  C   UNL     1      44.945 -11.269   7.550  1.00  0.00    -0.041 A 
HETATM   28  C   UNL     1      44.103 -10.878   8.600  1.00  0.00     0.009 A 
HETATM   29  C   UNL     1      44.422  -9.769   9.386  1.00  0.00     0.001 A 
HETATM   30  C   UNL     1      45.579  -9.038   9.126  1.00  0.00     0.000 A 
HETATM   31  C   UNL     1      46.417  -9.409   8.077  1.00  0.00     0.001 A 
HETATM   32  C   UNL     1      46.100 -10.516   7.290  1.00  0.00     0.009 A 
ENDBRANCH  26  27
ENDBRANCH  24  26
ENDBRANCH   1  22
TORSDOF 7
ENDMDL
MODEL 5
REMARK VINA RESULT:      -9.0      1.691      2.556
REMARK  7 active torsions:
REMARK  status: ('A' for Active; 'I' for Inactive)
REMARK       I    between atoms: C_2  and  N_3 
REMARK    1  A    between atoms: C_2  and  C_11 
REMARK    2  A    between atoms: N_3  and  C_4 
REMARK    3  A    between atoms: C_4  and  C_5 
REMARK    4  A    between atoms: C_15  and  N_16 
REMARK    5  A    between atoms: N_16  and  C_17 
REMARK    6  A    between atoms: C_17  and  C_18 
REMARK    7  A    between atoms: C_20  and  C_24 
ROOT
HETATM    1  C   UNL     1      44.643  -9.830   8.045  1.00  0.00     0.033 A 
HETATM    2  C   UNL     1      45.922 -10.030   7.517  1.00  0.00     0.017 A 
HETATM    3  C   UNL     1      46.187 -11.177   6.775  1.00  0.00     0.003 A 
HETATM    4  C   UNL     1      45.179 -12.124   6.573  1.00  0.00     0.023 A 
HETATM    5  C   UNL     1      43.898 -11.963   7.124  1.00  0.00     0.009 A 
HETATM    6  C   UNL     1      43.633 -10.779   7.823  1.00  0.00     0.040 A 
ENDROOT
BRANCH   5   7
HETATM    7  N   UNL     1      42.921 -12.920   6.823  1.00  0.00    -0.286 NA
HETATM    8  H   UNL     1      42.622 -12.844   5.850  1.00  0.00     0.128 HD
BRANCH   7   9
HETATM    9  C   UNL     1      43.184 -14.322   7.147  1.00  0.00     0.171 C 
BRANCH   9  10
HETATM   10  C   UNL     1      43.173 -15.188   5.924  1.00  0.00     0.117 A 
HETATM   11  N   UNL     1      43.380 -16.488   5.873  1.00  0.00    -0.232 NA
HETATM   12  C   UNL     1      43.342 -16.831   4.540  1.00  0.00     0.084 A 
HETATM   13  C   UNL     1      43.109 -15.711   3.772  1.00  0.00     0.122 A 
HETATM   14  N   UNL     1      43.016 -14.674   4.661  1.00  0.00    -0.351 N 
HETATM   15  H   UNL     1      42.886 -13.697   4.437  1.00  0.00     0.166 HD
BRANCH  12  16
HETATM   16  C   UNL     1      43.549 -18.192   4.070  1.00  0.00    -0.003 A 
HETATM   17  C   UNL     1      43.310 -18.494   2.726  1.00  0.00     0.033 A 
HETATM   18  C   UNL     1      43.498 -19.795   2.290  1.00  0.00     0.117 A 
HETATM   19  N   UNL     1      43.904 -20.802   3.090  1.00  0.00    -0.273 NA
HETATM   20  C   UNL     1      44.131 -20.491   4.383  1.00  0.00     0.117 A 
HETATM   21  C   UNL     1      43.971 -19.220   4.914  1.00  0.00     0.033 A 
ENDBRANCH  12  16
ENDBRANCH   9  10
ENDBRANCH   7   9
ENDBRANCH   5   7
BRANCH   1  22
HETATM   22  C   UNL     1      44.303  -8.597   8.805  1.00  0.00     0.251 C 
HETATM   23  O   UNL     1      44.837  -7.532   8.518  1.00  0.00    -0.268 OA
HETATM   24  N   UNL     1      43.359  -8.744   9.799  1.00  0.00    -0.353 N 
HETATM   25  H   UNL     1      42.794  -9.581   9.813  1.00  0.00     0.163 HD
BRANCH  24  26
HETATM   26  C   UNL     1      42.884  -7.615  10.565  1.00  0.00     0.161 C 
BRANCH  26  27
HETATM   27  C   UNL     1      42.352  -8.047  11.907  1.00  0.00    -0.041 A 
HETATM   28  C   UNL     1      43.028  -7.718  13.090  1.00  0.00     0.009 A 
HETATM   29  C   UNL     1      42.528  -8.129  14.328  1.00  0.00     0.001 A 
HETATM   30  C   UNL     1      41.353  -8.876  14.394  1.00  0.00     0.000 A 
HETATM   31  C   UNL     1      40.680  -9.219  13.224  1.00  0.00     0.001 A 
HETATM   32  C   UNL     1      41.178  -8.812  11.987  1.00  0.00     0.009 A 
ENDBRANCH  26  27
ENDBRANCH  24  26
ENDBRANCH   1  22
TORSDOF 7
ENDMDL
MODEL 6
REMARK VINA RESULT:      -9.0      1.961     10.838
REMARK  7 active torsions:
REMARK  status: ('A' for Active; 'I' for Inactive)
REMARK       I    between atoms: C_2  and  N_3 
REMARK    1  A    between atoms: C_2  and  C_11 
REMARK    2  A    between atoms: N_3  and  C_4 
REMARK    3  A    between atoms: C_4  and  C_5 
REMARK    4  A    between atoms: C_15  and  N_16 
REMARK    5  A    between atoms: N_16  and  C_17 
REMARK    6  A    between atoms: C_17  and  C_18 
REMARK    7  A    between atoms: C_20  and  C_24 
ROOT
HETATM    1  C   UNL     1      43.221 -14.019   6.178  1.00  0.00     0.033 A 
HETATM    2  C   UNL     1      42.704 -13.571   4.958  1.00  0.00     0.017 A 
HETATM    3  C   UNL     1      42.717 -12.210   4.666  1.00  0.00     0.003 A 
HETATM    4  C   UNL     1      43.232 -11.303   5.597  1.00  0.00     0.023 A 
HETATM    5  C   UNL     1      43.722 -11.726   6.842  1.00  0.00     0.009 A 
HETATM    6  C   UNL     1      43.751 -13.102   7.098  1.00  0.00     0.040 A 
ENDROOT
BRANCH   5   7
HETATM    7  N   UNL     1      44.285 -10.767   7.694  1.00  0.00    -0.286 NA
HETATM    8  H   UNL     1      45.112 -10.343   7.271  1.00  0.00     0.128 HD
BRANCH   7   9
HETATM    9  C   UNL     1      43.423  -9.720   8.244  1.00  0.00     0.171 C 
BRANCH   9  10
HETATM   10  C   UNL     1      43.262  -9.854   9.727  1.00  0.00     0.117 A 
HETATM   11  N   UNL     1      42.935  -8.900  10.576  1.00  0.00    -0.232 NA
HETATM   12  C   UNL     1      42.978  -9.472  11.829  1.00  0.00     0.084 A 
HETATM   13  C   UNL     1      43.341 -10.798  11.730  1.00  0.00     0.122 A 
HETATM   14  N   UNL     1      43.530 -11.023  10.393  1.00  0.00    -0.351 N 
HETATM   15  H   UNL     1      43.841 -11.885   9.965  1.00  0.00     0.166 HD
BRANCH  12  16
HETATM   16  C   UNL     1      42.693  -8.726  13.045  1.00  0.00    -0.003 A 
HETATM   17  C   UNL     1      41.720  -9.204  13.927  1.00  0.00     0.033 A 
HETATM   18  C   UNL     1      41.448  -8.482  15.077  1.00  0.00     0.117 A 
HETATM   19  N   UNL     1      42.071  -7.332  15.405  1.00  0.00    -0.273 NA
HETATM   20  C   UNL     1      43.008  -6.887  14.543  1.00  0.00     0.117 A 
HETATM   21  C   UNL     1      43.351  -7.538  13.367  1.00  0.00     0.033 A 
ENDBRANCH  12  16
ENDBRANCH   9  10
ENDBRANCH   7   9
ENDBRANCH   5   7
BRANCH   1  22
HETATM   22  C   UNL     1      43.269 -15.468   6.512  1.00  0.00     0.251 C 
HETATM   23  O   UNL     1      42.633 -15.899   7.467  1.00  0.00    -0.268 OA
HETATM   24  N   UNL     1      44.034 -16.253   5.676  1.00  0.00    -0.353 N 
HETATM   25  H   UNL     1      44.321 -15.877   4.784  1.00  0.00     0.163 HD
BRANCH  24  26
HETATM   26  C   UNL     1      44.109 -17.686   5.841  1.00  0.00     0.161 C 
BRANCH  26  27
HETATM   27  C   UNL     1      43.813 -18.404   4.551  1.00  0.00    -0.041 A 
HETATM   28  C   UNL     1      44.117 -19.764   4.396  1.00  0.00     0.009 A 
HETATM   29  C   UNL     1      43.841 -20.418   3.192  1.00  0.00     0.001 A 
HETATM   30  C   UNL     1      43.267 -19.718   2.133  1.00  0.00     0.000 A 
HETATM   31  C   UNL     1      42.973 -18.363   2.271  1.00  0.00     0.001 A 
HETATM   32  C   UNL     1      43.248 -17.708   3.471  1.00  0.00     0.009 A 
ENDBRANCH  26  27
ENDBRANCH  24  26
ENDBRANCH   1  22
TORSDOF 7
ENDMDL
MODEL 7
REMARK VINA RESULT:      -8.8      1.728      2.422
REMARK  7 active torsions:
REMARK  status: ('A' for Active; 'I' for Inactive)
REMARK       I    between atoms: C_2  and  N_3 
REMARK    1  A    between atoms: C_2  and  C_11 
REMARK    2  A    between atoms: N_3  and  C_4 
REMARK    3  A    between atoms: C_4  and  C_5 
REMARK    4  A    between atoms: C_15  and  N_16 
REMARK    5  A    between atoms: N_16  and  C_17 
REMARK    6  A    between atoms: C_17  and  C_18 
REMARK    7  A    between atoms: C_20  and  C_24 
ROOT
HETATM    1  C   UNL     1      44.501  -9.726   7.996  1.00  0.00     0.033 A 
HETATM    2  C   UNL     1      45.751 -10.164   7.545  1.00  0.00     0.017 A 
HETATM    3  C   UNL     1      45.834 -11.313   6.765  1.00  0.00     0.003 A 
HETATM    4  C   UNL     1      44.674 -12.026   6.448  1.00  0.00     0.023 A 
HETATM    5  C   UNL     1      43.414 -11.626   6.919  1.00  0.00     0.009 A 
HETATM    6  C   UNL     1      43.340 -10.440   7.658  1.00  0.00     0.040 A 
ENDROOT
BRANCH   5   7
HETATM    7  N   UNL     1      42.290 -12.351   6.504  1.00  0.00    -0.286 NA
HETATM    8  H   UNL     1      41.475 -12.123   7.075  1.00  0.00     0.128 HD
BRANCH   7   9
HETATM    9  C   UNL     1      41.919 -12.329   5.089  1.00  0.00     0.171 C 
BRANCH   9  10
HETATM   10  C   UNL     1      41.760 -13.711   4.533  1.00  0.00     0.117 A 
HETATM   11  N   UNL     1      42.665 -14.668   4.524  1.00  0.00    -0.232 NA
HETATM   12  C   UNL     1      42.095 -15.727   3.852  1.00  0.00     0.084 A 
HETATM   13  C   UNL     1      40.820 -15.398   3.447  1.00  0.00     0.122 A 
HETATM   14  N   UNL     1      40.625 -14.112   3.875  1.00  0.00    -0.351 N 
HETATM   15  H   UNL     1      39.806 -13.540   3.713  1.00  0.00     0.166 HD
BRANCH  12  16
HETATM   16  C   UNL     1      42.797 -16.979   3.615  1.00  0.00    -0.003 A 
HETATM   17  C   UNL     1      42.528 -17.704   2.451  1.00  0.00     0.033 A 
HETATM   18  C   UNL     1      43.193 -18.901   2.240  1.00  0.00     0.117 A 
HETATM   19  N   UNL     1      44.097 -19.417   3.097  1.00  0.00    -0.273 NA
HETATM   20  C   UNL     1      44.345 -18.703   4.214  1.00  0.00     0.117 A 
HETATM   21  C   UNL     1      43.732 -17.496   4.515  1.00  0.00     0.033 A 
ENDBRANCH  12  16
ENDBRANCH   9  10
ENDBRANCH   7   9
ENDBRANCH   5   7
BRANCH   1  22
HETATM   22  C   UNL     1      44.360  -8.479   8.794  1.00  0.00     0.251 C 
HETATM   23  O   UNL     1      45.099  -7.524   8.578  1.00  0.00    -0.268 OA
HETATM   24  N   UNL     1      43.356  -8.479   9.738  1.00  0.00    -0.353 N 
HETATM   25  H   UNL     1      42.644  -9.194   9.691  1.00  0.00     0.163 HD
BRANCH  24  26
HETATM   26  C   UNL     1      43.062  -7.308  10.532  1.00  0.00     0.161 C 
BRANCH  26  27
HETATM   27  C   UNL     1      42.761  -7.675  11.961  1.00  0.00    -0.041 A 
HETATM   28  C   UNL     1      42.526  -9.007  12.330  1.00  0.00     0.009 A 
HETATM   29  C   UNL     1      42.244  -9.334  13.658  1.00  0.00     0.001 A 
HETATM   30  C   UNL     1      42.187  -8.334  14.627  1.00  0.00     0.000 A 
HETATM   31  C   UNL     1      42.406  -7.005  14.270  1.00  0.00     0.001 A 
HETATM   32  C   UNL     1      42.687  -6.677  12.944  1.00  0.00     0.009 A 
ENDBRANCH  26  27
ENDBRANCH  24  26
ENDBRANCH   1  22
TORSDOF 7
ENDMDL
MODEL 8
REMARK VINA RESULT:      -8.7      4.175     10.764
REMARK  7 active torsions:
REMARK  status: ('A' for Active; 'I' for Inactive)
REMARK       I    between atoms: C_2  and  N_3 
REMARK    1  A    between atoms: C_2  and  C_11 
REMARK    2  A    between atoms: N_3  and  C_4 
REMARK    3  A    between atoms: C_4  and  C_5 
REMARK    4  A    between atoms: C_15  and  N_16 
REMARK    5  A    between atoms: N_16  and  C_17 
REMARK    6  A    between atoms: C_17  and  C_18 
REMARK    7  A    between atoms: C_20  and  C_24 
ROOT
HETATM    1  C   UNL     1      41.933 -16.332   2.714  1.00  0.00     0.033 A 
HETATM    2  C   UNL     1      42.513 -17.516   2.248  1.00  0.00     0.017 A 
HETATM    3  C   UNL     1      43.519 -18.126   2.991  1.00  0.00     0.003 A 
HETATM    4  C   UNL     1      43.951 -17.547   4.188  1.00  0.00     0.023 A 
HETATM    5  C   UNL     1      43.409 -16.340   4.657  1.00  0.00     0.009 A 
HETATM    6  C   UNL     1      42.361 -15.767   3.926  1.00  0.00     0.040 A 
ENDROOT
BRANCH   5   7
HETATM    7  N   UNL     1      43.843 -15.856   5.897  1.00  0.00    -0.286 NA
HETATM    8  H   UNL     1      44.657 -15.249   5.789  1.00  0.00     0.128 HD
BRANCH   7   9
HETATM    9  C   UNL     1      42.871 -15.218   6.786  1.00  0.00     0.171 C 
BRANCH   9  10
HETATM   10  C   UNL     1      42.970 -13.724   6.738  1.00  0.00     0.117 A 
HETATM   11  N   UNL     1      43.905 -12.976   7.287  1.00  0.00    -0.232 NA
HETATM   12  C   UNL     1      43.544 -11.669   7.041  1.00  0.00     0.084 A 
HETATM   13  C   UNL     1      42.365 -11.632   6.330  1.00  0.00     0.122 A 
HETATM   14  N   UNL     1      42.005 -12.942   6.155  1.00  0.00    -0.351 N 
HETATM   15  H   UNL     1      41.165 -13.281   5.706  1.00  0.00     0.166 HD
BRANCH  12  16
HETATM   16  C   UNL     1      44.325 -10.535   7.510  1.00  0.00    -0.003 A 
HETATM   17  C   UNL     1      43.665  -9.428   8.050  1.00  0.00     0.033 A 
HETATM   18  C   UNL     1      44.416  -8.348   8.484  1.00  0.00     0.117 A 
HETATM   19  N   UNL     1      45.762  -8.296   8.418  1.00  0.00    -0.273 NA
HETATM   20  C   UNL     1      46.382  -9.374   7.896  1.00  0.00     0.117 A 
HETATM   21  C   UNL     1      45.719 -10.502   7.435  1.00  0.00     0.033 A 
ENDBRANCH  12  16
ENDBRANCH   9  10
ENDBRANCH   7   9
ENDBRANCH   5   7
BRANCH   1  22
HETATM   22  C   UNL     1      40.824 -15.671   1.976  1.00  0.00     0.251 C 
HETATM   23  O   UNL     1      39.881 -16.334   1.561  1.00  0.00    -0.268 OA
HETATM   24  N   UNL     1      40.931 -14.304   1.828  1.00  0.00    -0.353 N 
HETATM   25  H   UNL     1      41.597 -13.804   2.398  1.00  0.00     0.163 HD
BRANCH  24  26
HETATM   26  C   UNL     1      39.889 -13.527   1.196  1.00  0.00     0.161 C 
BRANCH  26  27
HETATM   27  C   UNL     1      40.202 -13.267  -0.254  1.00  0.00    -0.041 A 
HETATM   28  C   UNL     1      39.811 -14.173  -1.250  1.00  0.00     0.009 A 
HETATM   29  C   UNL     1      40.111 -13.922  -2.591  1.00  0.00     0.001 A 
HETATM   30  C   UNL     1      40.808 -12.770  -2.948  1.00  0.00     0.000 A 
HETATM   31  C   UNL     1      41.213 -11.869  -1.965  1.00  0.00     0.001 A 
HETATM   32  C   UNL     1      40.916 -12.117  -0.625  1.00  0.00     0.009 A 
ENDBRANCH  26  27
ENDBRANCH  24  26
ENDBRANCH   1  22
TORSDOF 7
ENDMDL
MODEL 9
REMARK VINA RESULT:      -8.6      5.733      9.504
REMARK  7 active torsions:
REMARK  status: ('A' for Active; 'I' for Inactive)
REMARK       I    between atoms: C_2  and  N_3 
REMARK    1  A    between atoms: C_2  and  C_11 
REMARK    2  A    between atoms: N_3  and  C_4 
REMARK    3  A    between atoms: C_4  and  C_5 
REMARK    4  A    between atoms: C_15  and  N_16 
REMARK    5  A    between atoms: N_16  and  C_17 
REMARK    6  A    between atoms: C_17  and  C_18 
REMARK    7  A    between atoms: C_20  and  C_24 
ROOT
HETATM    1  C   UNL     1      41.947 -14.559   6.259  1.00  0.00     0.033 A 
HETATM    2  C   UNL     1      40.555 -14.588   6.388  1.00  0.00     0.017 A 
HETATM    3  C   UNL     1      39.810 -13.469   6.026  1.00  0.00     0.003 A 
HETATM    4  C   UNL     1      40.457 -12.325   5.550  1.00  0.00     0.023 A 
HETATM    5  C   UNL     1      41.856 -12.261   5.447  1.00  0.00     0.009 A 
HETATM    6  C   UNL     1      42.587 -13.412   5.764  1.00  0.00     0.040 A 
ENDROOT
BRANCH   5   7
HETATM    7  N   UNL     1      42.427 -11.107   4.897  1.00  0.00    -0.286 NA
HETATM    8  H   UNL     1      42.968 -10.597   5.597  1.00  0.00     0.128 HD
BRANCH   7   9
HETATM    9  C   UNL     1      43.209 -11.224   3.665  1.00  0.00     0.171 C 
BRANCH   9  10
HETATM   10  C   UNL     1      42.342 -11.140   2.446  1.00  0.00     0.117 A 
HETATM   11  N   UNL     1      42.130 -12.091   1.559  1.00  0.00    -0.232 NA
HETATM   12  C   UNL     1      41.328 -11.537   0.586  1.00  0.00     0.084 A 
HETATM   13  C   UNL     1      41.053 -10.222   0.895  1.00  0.00     0.122 A 
HETATM   14  N   UNL     1      41.712  -9.980   2.071  1.00  0.00    -0.351 N 
HETATM   15  H   UNL     1      41.759  -9.100   2.566  1.00  0.00     0.166 HD
BRANCH  12  16
HETATM   16  C   UNL     1      40.886 -12.276  -0.586  1.00  0.00    -0.003 A 
HETATM   17  C   UNL     1      40.166 -13.461  -0.414  1.00  0.00     0.033 A 
HETATM   18  C   UNL     1      39.758 -14.164  -1.535  1.00  0.00     0.117 A 
HETATM   19  N   UNL     1      40.014 -13.772  -2.800  1.00  0.00    -0.273 NA
HETATM   20  C   UNL     1      40.709 -12.624  -2.946  1.00  0.00     0.117 A 
HETATM   21  C   UNL     1      41.160 -11.851  -1.887  1.00  0.00     0.033 A 
ENDBRANCH  12  16
ENDBRANCH   9  10
ENDBRANCH   7   9
ENDBRANCH   5   7
BRANCH   1  22
HETATM   22  C   UNL     1      42.779 -15.747   6.592  1.00  0.00     0.251 C 
HETATM   23  O   UNL     1      42.960 -16.062   7.762  1.00  0.00    -0.268 OA
HETATM   24  N   UNL     1      43.284 -16.447   5.517  1.00  0.00    -0.353 N 
HETATM   25  H   UNL     1      42.898 -16.277   4.600  1.00  0.00     0.163 HD
BRANCH  24  26
HETATM   26  C   UNL     1      44.047 -17.662   5.695  1.00  0.00     0.161 C 
BRANCH  26  27
HETATM   27  C   UNL     1      43.865 -18.600   4.530  1.00  0.00    -0.041 A 
HETATM   28  C   UNL     1      43.458 -18.122   3.276  1.00  0.00     0.009 A 
HETATM   29  C   UNL     1      43.289 -19.002   2.205  1.00  0.00     0.001 A 
HETATM   30  C   UNL     1      43.518 -20.365   2.378  1.00  0.00     0.000 A 
HETATM   31  C   UNL     1      43.911 -20.853   3.623  1.00  0.00     0.001 A 
HETATM   32  C   UNL     1      44.080 -19.976   4.694  1.00  0.00     0.009 A 
ENDBRANCH  26  27
ENDBRANCH  24  26
ENDBRANCH   1  22
TORSDOF 7
ENDMDL
MODEL 10
REMARK VINA RESULT:      -8.5      2.417     10.947
REMARK  7 active torsions:
REMARK  status: ('A' for Active; 'I' for Inactive)
REMARK       I    between atoms: C_2  and  N_3 
REMARK    1  A    between atoms: C_2  and  C_11 
REMARK    2  A    between atoms: N_3  and  C_4 
REMARK    3  A    between atoms: C_4  and  C_5 
REMARK    4  A    between atoms: C_15  and  N_16 
REMARK    5  A    between atoms: N_16  and  C_17 
REMARK    6  A    between atoms: C_17  and  C_18 
REMARK    7  A    between atoms: C_20  and  C_24 
ROOT
HETATM    1  C   UNL     1      44.382 -11.440   5.811  1.00  0.00     0.033 A 
HETATM    2  C   UNL     1      45.751 -11.298   6.061  1.00  0.00     0.017 A 
HETATM    3  C   UNL     1      46.179 -10.893   7.321  1.00  0.00     0.003 A 
HETATM    4  C   UNL     1      45.242 -10.619   8.321  1.00  0.00     0.023 A 
HETATM    5  C   UNL     1      43.862 -10.719   8.083  1.00  0.00     0.009 A 
HETATM    6  C   UNL     1      43.449 -11.179   6.827  1.00  0.00     0.040 A 
ENDROOT
BRANCH   5   7
HETATM    7  N   UNL     1      42.987 -10.495   9.153  1.00  0.00    -0.286 NA
HETATM    8  H   UNL     1      42.266 -11.216   9.193  1.00  0.00     0.128 HD
BRANCH   7   9
HETATM    9  C   UNL     1      43.545 -10.285  10.489  1.00  0.00     0.171 C 
BRANCH   9  10
HETATM   10  C   UNL     1      42.527  -9.727  11.436  1.00  0.00     0.117 A 
HETATM   11  N   UNL     1      42.732  -8.833  12.381  1.00  0.00    -0.232 NA
HETATM   12  C   UNL     1      41.529  -8.683  13.036  1.00  0.00     0.084 A 
HETATM   13  C   UNL     1      40.580  -9.508  12.472  1.00  0.00     0.122 A 
HETATM   14  N   UNL     1      41.229 -10.173  11.466  1.00  0.00    -0.351 N 
HETATM   15  H   UNL     1      40.840 -10.889  10.868  1.00  0.00     0.166 HD
BRANCH  12  16
HETATM   16  C   UNL     1      41.354  -7.785  14.167  1.00  0.00    -0.003 A 
HETATM   17  C   UNL     1      40.106  -7.195  14.383  1.00  0.00     0.033 A 
HETATM   18  C   UNL     1      39.951  -6.333  15.455  1.00  0.00     0.117 A 
HETATM   19  N   UNL     1      40.941  -6.023  16.317  1.00  0.00    -0.273 NA
HETATM   20  C   UNL     1      42.138  -6.604  16.094  1.00  0.00     0.117 A 
HETATM   21  C   UNL     1      42.392  -7.479  15.049  1.00  0.00     0.033 A 
ENDBRANCH  12  16
ENDBRANCH   9  10
ENDBRANCH   7   9
ENDBRANCH   5   7
BRANCH   1  22
HETATM   22  C   UNL     1      43.881 -11.914   4.493  1.00  0.00     0.251 C 
HETATM   23  O   UNL     1      44.167 -11.302   3.471  1.00  0.00    -0.268 OA
HETATM   24  N   UNL     1      43.123 -13.066   4.516  1.00  0.00    -0.353 N 
HETATM   25  H   UNL     1      43.136 -13.640   5.346  1.00  0.00     0.163 HD
BRANCH  24  26
HETATM   26  C   UNL     1      42.636 -13.676   3.301  1.00  0.00     0.161 C 
BRANCH  26  27
HETATM   27  C   UNL     1      42.915 -15.157   3.280  1.00  0.00    -0.041 A 
HETATM   28  C   UNL     1      42.887 -15.879   2.078  1.00  0.00     0.009 A 
HETATM   29  C   UNL     1      43.143 -17.252   2.073  1.00  0.00     0.001 A 
HETATM   30  C   UNL     1      43.422 -17.915   3.266  1.00  0.00     0.000 A 
HETATM   31  C   UNL     1      43.440 -17.210   4.468  1.00  0.00     0.001 A 
HETATM   32  C   UNL     1      43.183 -15.840   4.476  1.00  0.00     0.009 A 
ENDBRANCH  26  27
ENDBRANCH  24  26
ENDBRANCH   1  22
TORSDOF 7
ENDMDL
