MODEL 1
REMARK VINA RESULT:      -9.7      0.000      0.000
REMARK  7 active torsions:
REMARK  status: ('A' for Active; 'I' for Inactive)
REMARK    1  A    between atoms: C_2  and  C_3 
REMARK    2  A    between atoms: C_3  and  N_4 
REMARK    3  A    between atoms: C_8  and  C_27 
REMARK    4  A    between atoms: C_8  and  C_9 
REMARK    5  A    between atoms: N_12  and  C_14 
REMARK    6  A    between atoms: C_14  and  C_15 
REMARK    7  A    between atoms: C_27  and  C_28 
ROOT
HETATM    1  N   UNL     1      41.079 -14.394   2.440  1.00  0.00    -0.268 N 
HETATM    2  C   UNL     1      40.501 -15.621   2.498  1.00  0.00     0.326 C 
HETATM    3  O   UNL     1      39.625 -16.080   1.787  1.00  0.00    -0.247 OA
HETATM    4  N   UNL     1      41.086 -16.340   3.522  1.00  0.00    -0.324 N 
HETATM    5  C   UNL     1      42.233 -15.658   4.089  1.00  0.00     0.123 C 
HETATM    6  C   UNL     1      42.083 -14.301   3.359  1.00  0.00     0.257 C 
HETATM    7  O   UNL     1      42.810 -13.336   3.561  1.00  0.00    -0.270 OA
HETATM    8  H   UNL     1      40.859 -17.325   3.577  1.00  0.00     0.165 HD
ENDROOT
BRANCH   5   9
HETATM    9  C   UNL     1      43.574 -16.285   3.637  1.00  0.00     0.080 C 
BRANCH   9  10
HETATM   10  C   UNL     1      43.671 -17.795   3.640  1.00  0.00    -0.052 A 
HETATM   11  C   UNL     1      43.481 -18.530   2.463  1.00  0.00     0.049 A 
HETATM   12  C   UNL     1      43.573 -19.920   2.489  1.00  0.00     0.116 A 
HETATM   13  F   UNL     1      43.382 -20.608   1.357  1.00  0.00    -0.206 F 
HETATM   14  C   UNL     1      43.850 -20.600   3.667  1.00  0.00     0.042 A 
HETATM   15  C   UNL     1      44.039 -19.880   4.844  1.00  0.00     0.003 A 
HETATM   16  C   UNL     1      43.949 -18.486   4.832  1.00  0.00     0.007 A 
ENDBRANCH   9  10
ENDBRANCH   5   9
BRANCH   5  17
HETATM   17  C   UNL     1      42.045 -15.433   5.633  1.00  0.00     0.027 C 
HETATM   18  C   UNL     1      41.033 -14.345   6.037  1.00  0.00     0.035 C 
HETATM   19  C   UNL     1      41.559 -12.914   6.021  1.00  0.00     0.235 C 
HETATM   20  N   UNL     1      42.850 -12.795   6.789  1.00  0.00    -0.067 N 
HETATM   21  H   UNL     1      42.612 -12.948   7.779  1.00  0.00     0.280 HD
HETATM   22  C   UNL     1      43.895 -13.809   6.398  1.00  0.00     0.235 C 
HETATM   23  C   UNL     1      43.335 -15.219   6.450  1.00  0.00     0.035 C 
BRANCH  20  24
HETATM   24  C   UNL     1      43.453 -11.393   6.723  1.00  0.00     0.273 C 
BRANCH  24  25
HETATM   25  C   UNL     1      43.539 -10.673   8.040  1.00  0.00    -0.030 A 
HETATM   26  C   UNL     1      42.448  -9.947   8.538  1.00  0.00     0.048 A 
HETATM   27  C   UNL     1      42.556  -9.262   9.749  1.00  0.00     0.102 A 
HETATM   28  C   UNL     1      43.761  -9.261  10.455  1.00  0.00     0.102 A 
HETATM   29  O   UNL     1      41.436  -8.600  10.181  1.00  0.00    -0.346 OA
HETATM   30  O   UNL     1      43.949  -8.580  11.627  1.00  0.00    -0.346 OA
HETATM   31  C   UNL     1      44.845  -9.990   9.977  1.00  0.00     0.040 A 
HETATM   32  C   UNL     1      42.898  -7.636  11.868  1.00  0.00     0.202 C 
HETATM   33  C   UNL     1      41.541  -8.254  11.571  1.00  0.00     0.202 C 
HETATM   34  C   UNL     1      44.737 -10.695   8.778  1.00  0.00     0.012 A 
ENDBRANCH  24  25
ENDBRANCH  20  24
ENDBRANCH   5  17
BRANCH   1  35
HETATM   35  C   UNL     1      40.765 -13.386   1.444  1.00  0.00     0.140 C 
BRANCH  35  36
HETATM   36  C   UNL     1      39.447 -12.648   1.721  1.00  0.00    -0.004 C 
HETATM   37  C   UNL     1      38.969 -11.953   0.444  1.00  0.00     0.011 C 
HETATM   38  C   UNL     1      39.594 -11.625   2.849  1.00  0.00     0.011 C 
ENDBRANCH  35  36
ENDBRANCH   1  35
TORSDOF 7
ENDMDL
MODEL 2
REMARK VINA RESULT:      -9.6      1.840      2.597
REMARK  7 active torsions:
REMARK  status: ('A' for Active; 'I' for Inactive)
REMARK    1  A    between atoms: C_2  and  C_3 
REMARK    2  A    between atoms: C_3  and  N_4 
REMARK    3  A    between atoms: C_8  and  C_27 
REMARK    4  A    between atoms: C_8  and  C_9 
REMARK    5  A    between atoms: N_12  and  C_14 
REMARK    6  A    between atoms: C_14  and  C_15 
REMARK    7  A    between atoms: C_27  and  C_28 
ROOT
HETATM    1  N   UNL     1      40.479 -14.198   0.334  1.00  0.00    -0.268 N 
HETATM    2  C   UNL     1      40.099 -15.251   1.103  1.00  0.00     0.326 C 
HETATM    3  O   UNL     1      39.487 -16.250   0.771  1.00  0.00    -0.247 OA
HETATM    4  N   UNL     1      40.542 -15.040   2.394  1.00  0.00    -0.324 N 
HETATM    5  C   UNL     1      41.413 -13.885   2.498  1.00  0.00     0.123 C 
HETATM    6  C   UNL     1      41.224 -13.322   1.068  1.00  0.00     0.257 C 
HETATM    7  O   UNL     1      41.729 -12.276   0.677  1.00  0.00    -0.270 OA
HETATM    8  H   UNL     1      40.463 -15.818   3.038  1.00  0.00     0.165 HD
ENDROOT
BRANCH   5   9
HETATM    9  C   UNL     1      42.902 -14.281   2.649  1.00  0.00     0.080 C 
BRANCH   9  10
HETATM   10  C   UNL     1      43.203 -15.716   3.027  1.00  0.00    -0.052 A 
HETATM   11  C   UNL     1      43.419 -16.078   4.362  1.00  0.00     0.049 A 
HETATM   12  C   UNL     1      43.696 -17.405   4.686  1.00  0.00     0.116 A 
HETATM   13  F   UNL     1      43.907 -17.733   5.966  1.00  0.00    -0.206 F 
HETATM   14  C   UNL     1      43.765 -18.385   3.705  1.00  0.00     0.042 A 
HETATM   15  C   UNL     1      43.553 -18.036   2.373  1.00  0.00     0.003 A 
HETATM   16  C   UNL     1      43.275 -16.709   2.035  1.00  0.00     0.007 A 
ENDBRANCH   9  10
ENDBRANCH   5   9
BRANCH   5  17
HETATM   17  C   UNL     1      40.850 -12.849   3.535  1.00  0.00     0.027 C 
HETATM   18  C   UNL     1      41.313 -11.391   3.352  1.00  0.00     0.035 C 
HETATM   19  C   UNL     1      42.676 -11.052   3.944  1.00  0.00     0.235 C 
HETATM   20  N   UNL     1      42.777 -11.498   5.379  1.00  0.00    -0.067 N 
HETATM   21  H   UNL     1      42.132 -10.900   5.914  1.00  0.00     0.280 HD
HETATM   22  C   UNL     1      42.379 -12.934   5.608  1.00  0.00     0.235 C 
HETATM   23  C   UNL     1      41.008 -13.222   5.023  1.00  0.00     0.035 C 
BRANCH  20  24
HETATM   24  C   UNL     1      44.160 -11.252   5.982  1.00  0.00     0.273 C 
BRANCH  24  25
HETATM   25  C   UNL     1      44.157 -10.696   7.379  1.00  0.00    -0.030 A 
HETATM   26  C   UNL     1      42.999 -10.125   7.926  1.00  0.00     0.048 A 
HETATM   27  C   UNL     1      43.024  -9.588   9.214  1.00  0.00     0.102 A 
HETATM   28  C   UNL     1      44.209  -9.581   9.954  1.00  0.00     0.102 A 
HETATM   29  O   UNL     1      41.845  -9.074   9.686  1.00  0.00    -0.346 OA
HETATM   30  O   UNL     1      44.313  -9.037  11.205  1.00  0.00    -0.346 OA
HETATM   31  C   UNL     1      45.359 -10.159   9.426  1.00  0.00     0.040 A 
HETATM   32  C   UNL     1      43.185  -8.215  11.524  1.00  0.00     0.202 C 
HETATM   33  C   UNL     1      41.889  -8.895  11.110  1.00  0.00     0.202 C 
HETATM   34  C   UNL     1      45.335 -10.716   8.147  1.00  0.00     0.012 A 
ENDBRANCH  24  25
ENDBRANCH  20  24
ENDBRANCH   5  17
BRANCH   1  35
HETATM   35  C   UNL     1      40.246 -14.101  -1.095  1.00  0.00     0.140 C 
BRANCH  35  36
HETATM   36  C   UNL     1      38.802 -13.715  -1.451  1.00  0.00    -0.004 C 
HETATM   37  C   UNL     1      38.385 -14.424  -2.741  1.00  0.00     0.011 C 
HETATM   38  C   UNL     1      38.640 -12.203  -1.609  1.00  0.00     0.011 C 
ENDBRANCH  35  36
ENDBRANCH   1  35
TORSDOF 7
ENDMDL
MODEL 3
REMARK VINA RESULT:      -9.5      2.577      3.485
REMARK  7 active torsions:
REMARK  status: ('A' for Active; 'I' for Inactive)
REMARK    1  A    between atoms: C_2  and  C_3 
REMARK    2  A    between atoms: C_3  and  N_4 
REMARK    3  A    between atoms: C_8  and  C_27 
REMARK    4  A    between atoms: C_8  and  C_9 
REMARK    5  A    between atoms: N_12  and  C_14 
REMARK    6  A    between atoms: C_14  and  C_15 
REMARK    7  A    between atoms: C_27  and  C_28 
ROOT
HETATM    1  N   UNL     1      41.177 -14.485   2.346  1.00  0.00    -0.268 N 
HETATM    2  C   UNL     1      40.555 -15.692   2.309  1.00  0.00     0.326 C 
HETATM    3  O   UNL     1      39.672 -16.066   1.559  1.00  0.00    -0.247 OA
HETATM    4  N   UNL     1      41.102 -16.502   3.284  1.00  0.00    -0.324 N 
HETATM    5  C   UNL     1      42.266 -15.905   3.910  1.00  0.00     0.123 C 
HETATM    6  C   UNL     1      42.173 -14.494   3.278  1.00  0.00     0.257 C 
HETATM    7  O   UNL     1      42.931 -13.574   3.557  1.00  0.00    -0.270 OA
HETATM    8  H   UNL     1      40.840 -17.480   3.266  1.00  0.00     0.165 HD
ENDROOT
BRANCH   5   9
HETATM    9  C   UNL     1      43.590 -16.546   3.427  1.00  0.00     0.080 C 
BRANCH   9  10
HETATM   10  C   UNL     1      43.684 -18.056   3.465  1.00  0.00    -0.052 A 
HETATM   11  C   UNL     1      43.445 -18.821   2.316  1.00  0.00     0.049 A 
HETATM   12  C   UNL     1      43.536 -20.210   2.374  1.00  0.00     0.116 A 
HETATM   13  F   UNL     1      43.299 -20.926   1.269  1.00  0.00    -0.206 F 
HETATM   14  C   UNL     1      43.861 -20.860   3.557  1.00  0.00     0.042 A 
HETATM   15  C   UNL     1      44.099 -20.110   4.707  1.00  0.00     0.003 A 
HETATM   16  C   UNL     1      44.010 -18.716   4.662  1.00  0.00     0.007 A 
ENDBRANCH   9  10
ENDBRANCH   5   9
BRANCH   5  17
HETATM   17  C   UNL     1      42.067 -15.784   5.464  1.00  0.00     0.027 C 
HETATM   18  C   UNL     1      40.875 -14.927   5.927  1.00  0.00     0.035 C 
HETATM   19  C   UNL     1      41.120 -13.423   5.969  1.00  0.00     0.235 C 
HETATM   20  N   UNL     1      42.378 -13.092   6.728  1.00  0.00    -0.067 N 
HETATM   21  H   UNL     1      42.192 -13.329   7.712  1.00  0.00     0.280 HD
HETATM   22  C   UNL     1      43.589 -13.871   6.281  1.00  0.00     0.235 C 
HETATM   23  C   UNL     1      43.308 -15.363   6.276  1.00  0.00     0.035 C 
BRANCH  20  24
HETATM   24  C   UNL     1      42.703 -11.599   6.718  1.00  0.00     0.273 C 
BRANCH  24  25
HETATM   25  C   UNL     1      41.811 -10.758   5.848  1.00  0.00    -0.030 A 
HETATM   26  C   UNL     1      40.561 -10.319   6.307  1.00  0.00     0.048 A 
HETATM   27  C   UNL     1      39.734  -9.564   5.474  1.00  0.00     0.102 A 
HETATM   28  C   UNL     1      40.127  -9.271   4.166  1.00  0.00     0.102 A 
HETATM   29  O   UNL     1      38.542  -9.149   6.007  1.00  0.00    -0.346 OA
HETATM   30  O   UNL     1      39.350  -8.568   3.285  1.00  0.00    -0.346 OA
HETATM   31  C   UNL     1      41.371  -9.689   3.706  1.00  0.00     0.040 A 
HETATM   32  C   UNL     1      37.997  -8.454   3.742  1.00  0.00     0.202 C 
HETATM   33  C   UNL     1      37.957  -8.100   5.220  1.00  0.00     0.202 C 
HETATM   34  C   UNL     1      42.211 -10.426   4.541  1.00  0.00     0.012 A 
ENDBRANCH  24  25
ENDBRANCH  20  24
ENDBRANCH   5  17
BRANCH   1  35
HETATM   35  C   UNL     1      40.912 -13.398   1.422  1.00  0.00     0.140 C 
BRANCH  35  36
HETATM   36  C   UNL     1      39.506 -12.797   1.577  1.00  0.00    -0.004 C 
HETATM   37  C   UNL     1      39.423 -11.478   0.807  1.00  0.00     0.011 C 
HETATM   38  C   UNL     1      39.145 -12.569   3.046  1.00  0.00     0.011 C 
ENDBRANCH  35  36
ENDBRANCH   1  35
TORSDOF 7
ENDMDL
MODEL 4
REMARK VINA RESULT:      -9.4      2.647      5.831
REMARK  7 active torsions:
REMARK  status: ('A' for Active; 'I' for Inactive)
REMARK    1  A    between atoms: C_2  and  C_3 
REMARK    2  A    between atoms: C_3  and  N_4 
REMARK    3  A    between atoms: C_8  and  C_27 
REMARK    4  A    between atoms: C_8  and  C_9 
REMARK    5  A    between atoms: N_12  and  C_14 
REMARK    6  A    between atoms: C_14  and  C_15 
REMARK    7  A    between atoms: C_27  and  C_28 
ROOT
HETATM    1  N   UNL     1      41.882 -15.959   2.289  1.00  0.00    -0.268 N 
HETATM    2  C   UNL     1      42.766 -15.227   1.561  1.00  0.00     0.326 C 
HETATM    3  O   UNL     1      43.950 -15.439   1.372  1.00  0.00    -0.247 OA
HETATM    4  N   UNL     1      42.101 -14.151   1.008  1.00  0.00    -0.324 N 
HETATM    5  C   UNL     1      40.667 -14.224   1.210  1.00  0.00     0.123 C 
HETATM    6  C   UNL     1      40.628 -15.432   2.179  1.00  0.00     0.257 C 
HETATM    7  O   UNL     1      39.604 -15.853   2.700  1.00  0.00    -0.270 OA
HETATM    8  H   UNL     1      42.603 -13.609   0.316  1.00  0.00     0.165 HD
ENDROOT
BRANCH   5   9
HETATM    9  C   UNL     1      39.910 -14.634  -0.076  1.00  0.00     0.080 C 
BRANCH   9  10
HETATM   10  C   UNL     1      39.626 -13.548  -1.091  1.00  0.00    -0.052 A 
HETATM   11  C   UNL     1      40.620 -13.114  -1.978  1.00  0.00     0.049 A 
HETATM   12  C   UNL     1      40.337 -12.112  -2.903  1.00  0.00     0.116 A 
HETATM   13  F   UNL     1      41.300 -11.705  -3.738  1.00  0.00    -0.206 F 
HETATM   14  C   UNL     1      39.080 -11.526  -2.966  1.00  0.00     0.042 A 
HETATM   15  C   UNL     1      38.084 -11.948  -2.088  1.00  0.00     0.003 A 
HETATM   16  C   UNL     1      38.355 -12.952  -1.155  1.00  0.00     0.007 A 
ENDBRANCH   9  10
ENDBRANCH   5   9
BRANCH   5  17
HETATM   17  C   UNL     1      40.139 -12.949   1.962  1.00  0.00     0.027 C 
HETATM   18  C   UNL     1      40.796 -11.613   1.566  1.00  0.00     0.035 C 
HETATM   19  C   UNL     1      42.127 -11.306   2.244  1.00  0.00     0.235 C 
HETATM   20  N   UNL     1      42.032 -11.465   3.739  1.00  0.00    -0.067 N 
HETATM   21  H   UNL     1      41.417 -10.709   4.071  1.00  0.00     0.280 HD
HETATM   22  C   UNL     1      41.438 -12.779   4.181  1.00  0.00     0.235 C 
HETATM   23  C   UNL     1      40.105 -13.033   3.501  1.00  0.00     0.035 C 
BRANCH  20  24
HETATM   24  C   UNL     1      43.369 -11.250   4.446  1.00  0.00     0.273 C 
BRANCH  24  25
HETATM   25  C   UNL     1      43.269 -10.748   5.860  1.00  0.00    -0.030 A 
HETATM   26  C   UNL     1      44.236 -11.088   6.817  1.00  0.00     0.048 A 
HETATM   27  C   UNL     1      44.109 -10.636   8.131  1.00  0.00     0.102 A 
HETATM   28  C   UNL     1      43.003  -9.875   8.514  1.00  0.00     0.102 A 
HETATM   29  O   UNL     1      45.110 -10.988   8.999  1.00  0.00    -0.346 OA
HETATM   30  O   UNL     1      42.797  -9.432   9.792  1.00  0.00    -0.346 OA
HETATM   31  C   UNL     1      42.046  -9.519   7.569  1.00  0.00     0.040 A 
HETATM   32  C   UNL     1      43.655 -10.094  10.729  1.00  0.00     0.202 C 
HETATM   33  C   UNL     1      45.073 -10.185  10.188  1.00  0.00     0.202 C 
HETATM   34  C   UNL     1      42.177  -9.950   6.248  1.00  0.00     0.012 A 
ENDBRANCH  24  25
ENDBRANCH  20  24
ENDBRANCH   5  17
BRANCH   1  35
HETATM   35  C   UNL     1      42.207 -17.202   2.962  1.00  0.00     0.140 C 
BRANCH  35  36
HETATM   36  C   UNL     1      43.031 -17.002   4.244  1.00  0.00    -0.004 C 
HETATM   37  C   UNL     1      43.901 -18.236   4.492  1.00  0.00     0.011 C 
HETATM   38  C   UNL     1      42.139 -16.739   5.458  1.00  0.00     0.011 C 
ENDBRANCH  35  36
ENDBRANCH   1  35
TORSDOF 7
ENDMDL
MODEL 5
REMARK VINA RESULT:      -9.3      1.588      2.158
REMARK  7 active torsions:
REMARK  status: ('A' for Active; 'I' for Inactive)
REMARK    1  A    between atoms: C_2  and  C_3 
REMARK    2  A    between atoms: C_3  and  N_4 
REMARK    3  A    between atoms: C_8  and  C_27 
REMARK    4  A    between atoms: C_8  and  C_9 
REMARK    5  A    between atoms: N_12  and  C_14 
REMARK    6  A    between atoms: C_14  and  C_15 
REMARK    7  A    between atoms: C_27  and  C_28 
ROOT
HETATM    1  N   UNL     1      40.295 -13.825   1.358  1.00  0.00    -0.268 N 
HETATM    2  C   UNL     1      39.732 -13.314   2.483  1.00  0.00     0.326 C 
HETATM    3  O   UNL     1      38.735 -12.621   2.584  1.00  0.00    -0.247 OA
HETATM    4  N   UNL     1      40.471 -13.724   3.575  1.00  0.00    -0.324 N 
HETATM    5  C   UNL     1      41.486 -14.698   3.221  1.00  0.00     0.123 C 
HETATM    6  C   UNL     1      41.355 -14.622   1.680  1.00  0.00     0.257 C 
HETATM    7  O   UNL     1      42.074 -15.241   0.905  1.00  0.00    -0.270 OA
HETATM    8  H   UNL     1      40.075 -13.544   4.489  1.00  0.00     0.165 HD
ENDROOT
BRANCH   5   9
HETATM    9  C   UNL     1      41.099 -16.134   3.651  1.00  0.00     0.080 C 
BRANCH   9  10
HETATM   10  C   UNL     1      42.213 -17.154   3.741  1.00  0.00    -0.052 A 
HETATM   11  C   UNL     1      42.555 -17.946   2.638  1.00  0.00     0.049 A 
HETATM   12  C   UNL     1      43.583 -18.880   2.744  1.00  0.00     0.116 A 
HETATM   13  F   UNL     1      43.892 -19.634   1.682  1.00  0.00    -0.206 F 
HETATM   14  C   UNL     1      44.283 -19.046   3.931  1.00  0.00     0.042 A 
HETATM   15  C   UNL     1      43.952 -18.265   5.036  1.00  0.00     0.003 A 
HETATM   16  C   UNL     1      42.922 -17.325   4.943  1.00  0.00     0.007 A 
ENDBRANCH   9  10
ENDBRANCH   5   9
BRANCH   5  17
HETATM   17  C   UNL     1      42.915 -14.197   3.639  1.00  0.00     0.027 C 
HETATM   18  C   UNL     1      43.199 -14.154   5.152  1.00  0.00     0.035 C 
HETATM   19  C   UNL     1      42.691 -12.916   5.884  1.00  0.00     0.235 C 
HETATM   20  N   UNL     1      43.129 -11.651   5.193  1.00  0.00    -0.067 N 
HETATM   21  H   UNL     1      44.150 -11.595   5.313  1.00  0.00     0.280 HD
HETATM   22  C   UNL     1      42.831 -11.623   3.715  1.00  0.00     0.235 C 
HETATM   23  C   UNL     1      43.373 -12.860   3.023  1.00  0.00     0.035 C 
BRANCH  20  24
HETATM   24  C   UNL     1      42.567 -10.391   5.848  1.00  0.00     0.273 C 
BRANCH  24  25
HETATM   25  C   UNL     1      43.037 -10.140   7.254  1.00  0.00    -0.030 A 
HETATM   26  C   UNL     1      42.148  -9.698   8.244  1.00  0.00     0.048 A 
HETATM   27  C   UNL     1      42.610  -9.442   9.537  1.00  0.00     0.102 A 
HETATM   28  C   UNL     1      43.964  -9.588   9.845  1.00  0.00     0.102 A 
HETATM   29  O   UNL     1      41.674  -9.041  10.453  1.00  0.00    -0.346 OA
HETATM   30  O   UNL     1      44.491  -9.318  11.079  1.00  0.00    -0.346 OA
HETATM   31  C   UNL     1      44.852 -10.040   8.874  1.00  0.00     0.040 A 
HETATM   32  C   UNL     1      43.574  -8.583  11.899  1.00  0.00     0.202 C 
HETATM   33  C   UNL     1      42.173  -9.164  11.794  1.00  0.00     0.202 C 
HETATM   34  C   UNL     1      44.393 -10.317   7.585  1.00  0.00     0.012 A 
ENDBRANCH  24  25
ENDBRANCH  20  24
ENDBRANCH   5  17
BRANCH   1  35
HETATM   35  C   UNL     1      39.753 -13.660   0.022  1.00  0.00     0.140 C 
BRANCH  35  36
HETATM   36  C   UNL     1      40.533 -12.647  -0.830  1.00  0.00    -0.004 C 
HETATM   37  C   UNL     1      39.911 -11.258  -0.672  1.00  0.00     0.011 C 
HETATM   38  C   UNL     1      40.556 -13.044  -2.306  1.00  0.00     0.011 C 
ENDBRANCH  35  36
ENDBRANCH   1  35
TORSDOF 7
ENDMDL
MODEL 6
REMARK VINA RESULT:      -9.3      1.888      2.661
REMARK  7 active torsions:
REMARK  status: ('A' for Active; 'I' for Inactive)
REMARK    1  A    between atoms: C_2  and  C_3 
REMARK    2  A    between atoms: C_3  and  N_4 
REMARK    3  A    between atoms: C_8  and  C_27 
REMARK    4  A    between atoms: C_8  and  C_9 
REMARK    5  A    between atoms: N_12  and  C_14 
REMARK    6  A    between atoms: C_14  and  C_15 
REMARK    7  A    between atoms: C_27  and  C_28 
ROOT
HETATM    1  N   UNL     1      39.898 -12.518   4.484  1.00  0.00    -0.268 N 
HETATM    2  C   UNL     1      39.858 -12.419   5.838  1.00  0.00     0.326 C 
HETATM    3  O   UNL     1      39.067 -11.804   6.530  1.00  0.00    -0.247 OA
HETATM    4  N   UNL     1      40.887 -13.171   6.368  1.00  0.00    -0.324 N 
HETATM    5  C   UNL     1      41.566 -13.966   5.363  1.00  0.00     0.123 C 
HETATM    6  C   UNL     1      40.889 -13.374   4.102  1.00  0.00     0.257 C 
HETATM    7  O   UNL     1      41.186 -13.693   2.957  1.00  0.00    -0.270 OA
HETATM    8  H   UNL     1      40.882 -13.312   7.371  1.00  0.00     0.165 HD
ENDROOT
BRANCH   5   9
HETATM    9  C   UNL     1      41.182 -15.464   5.437  1.00  0.00     0.080 C 
BRANCH   9  10
HETATM   10  C   UNL     1      42.190 -16.465   4.916  1.00  0.00    -0.052 A 
HETATM   11  C   UNL     1      42.270 -16.761   3.549  1.00  0.00     0.049 A 
HETATM   12  C   UNL     1      43.205 -17.687   3.092  1.00  0.00     0.116 A 
HETATM   13  F   UNL     1      43.262 -17.964   1.784  1.00  0.00    -0.206 F 
HETATM   14  C   UNL     1      44.068 -18.329   3.969  1.00  0.00     0.042 A 
HETATM   15  C   UNL     1      43.998 -18.044   5.330  1.00  0.00     0.003 A 
HETATM   16  C   UNL     1      43.064 -17.118   5.802  1.00  0.00     0.007 A 
ENDBRANCH   9  10
ENDBRANCH   5   9
BRANCH   5  17
HETATM   17  C   UNL     1      43.100 -13.632   5.324  1.00  0.00     0.027 C 
HETATM   18  C   UNL     1      43.817 -13.598   6.687  1.00  0.00     0.035 C 
HETATM   19  C   UNL     1      43.684 -12.298   7.471  1.00  0.00     0.235 C 
HETATM   20  N   UNL     1      44.035 -11.105   6.620  1.00  0.00    -0.067 N 
HETATM   21  H   UNL     1      45.047 -11.168   6.438  1.00  0.00     0.280 HD
HETATM   22  C   UNL     1      43.323 -11.065   5.292  1.00  0.00     0.235 C 
HETATM   23  C   UNL     1      43.501 -12.369   4.536  1.00  0.00     0.035 C 
BRANCH  20  24
HETATM   24  C   UNL     1      43.830  -9.776   7.346  1.00  0.00     0.273 C 
BRANCH  24  25
HETATM   25  C   UNL     1      43.481  -9.893   8.804  1.00  0.00    -0.030 A 
HETATM   26  C   UNL     1      42.185  -9.616   9.260  1.00  0.00     0.048 A 
HETATM   27  C   UNL     1      41.888  -9.702  10.622  1.00  0.00     0.102 A 
HETATM   28  C   UNL     1      42.885 -10.027  11.543  1.00  0.00     0.102 A 
HETATM   29  O   UNL     1      40.591  -9.444  10.983  1.00  0.00    -0.346 OA
HETATM   30  O   UNL     1      42.673 -10.092  12.894  1.00  0.00    -0.346 OA
HETATM   31  C   UNL     1      44.171 -10.319  11.100  1.00  0.00     0.040 A 
HETATM   32  C   UNL     1      41.427  -9.489  13.266  1.00  0.00     0.202 C 
HETATM   33  C   UNL     1      40.320  -9.911  12.313  1.00  0.00     0.202 C 
HETATM   34  C   UNL     1      44.470 -10.255   9.738  1.00  0.00     0.012 A 
ENDBRANCH  24  25
ENDBRANCH  20  24
ENDBRANCH   5  17
BRANCH   1  35
HETATM   35  C   UNL     1      38.929 -11.913   3.589  1.00  0.00     0.140 C 
BRANCH  35  36
HETATM   36  C   UNL     1      39.127 -10.400   3.412  1.00  0.00    -0.004 C 
HETATM   37  C   UNL     1      38.122  -9.867   2.389  1.00  0.00     0.011 C 
HETATM   38  C   UNL     1      40.552 -10.061   2.971  1.00  0.00     0.011 C 
ENDBRANCH  35  36
ENDBRANCH   1  35
TORSDOF 7
ENDMDL
MODEL 7
REMARK VINA RESULT:      -9.2      3.092      8.446
REMARK  7 active torsions:
REMARK  status: ('A' for Active; 'I' for Inactive)
REMARK    1  A    between atoms: C_2  and  C_3 
REMARK    2  A    between atoms: C_3  and  N_4 
REMARK    3  A    between atoms: C_8  and  C_27 
REMARK    4  A    between atoms: C_8  and  C_9 
REMARK    5  A    between atoms: N_12  and  C_14 
REMARK    6  A    between atoms: C_14  and  C_15 
REMARK    7  A    between atoms: C_27  and  C_28 
ROOT
HETATM    1  N   UNL     1      42.403 -12.308   4.589  1.00  0.00    -0.268 N 
HETATM    2  C   UNL     1      43.004 -12.932   3.543  1.00  0.00     0.326 C 
HETATM    3  O   UNL     1      44.044 -12.639   2.982  1.00  0.00    -0.247 OA
HETATM    4  N   UNL     1      42.243 -14.027   3.184  1.00  0.00    -0.324 N 
HETATM    5  C   UNL     1      41.166 -14.283   4.119  1.00  0.00     0.123 C 
HETATM    6  C   UNL     1      41.295 -13.002   4.980  1.00  0.00     0.257 C 
HETATM    7  O   UNL     1      40.533 -12.719   5.897  1.00  0.00    -0.270 OA
HETATM    8  H   UNL     1      42.654 -14.672   2.519  1.00  0.00     0.165 HD
ENDROOT
BRANCH   5   9
HETATM    9  C   UNL     1      41.458 -15.493   5.040  1.00  0.00     0.080 C 
BRANCH   9  10
HETATM   10  C   UNL     1      42.479 -16.501   4.557  1.00  0.00    -0.052 A 
HETATM   11  C   UNL     1      42.306 -17.174   3.341  1.00  0.00     0.049 A 
HETATM   12  C   UNL     1      43.259 -18.099   2.917  1.00  0.00     0.116 A 
HETATM   13  F   UNL     1      43.075 -18.739   1.756  1.00  0.00    -0.206 F 
HETATM   14  C   UNL     1      44.385 -18.371   3.681  1.00  0.00     0.042 A 
HETATM   15  C   UNL     1      44.568 -17.708   4.892  1.00  0.00     0.003 A 
HETATM   16  C   UNL     1      43.620 -16.779   5.329  1.00  0.00     0.007 A 
ENDBRANCH   9  10
ENDBRANCH   5   9
BRANCH   5  17
HETATM   17  C   UNL     1      39.774 -14.272   3.390  1.00  0.00     0.027 C 
HETATM   18  C   UNL     1      39.492 -15.464   2.458  1.00  0.00     0.035 C 
HETATM   19  C   UNL     1      40.083 -15.361   1.057  1.00  0.00     0.235 C 
HETATM   20  N   UNL     1      39.736 -14.046   0.409  1.00  0.00    -0.067 N 
HETATM   21  H   UNL     1      38.722 -14.069   0.236  1.00  0.00     0.280 HD
HETATM   22  C   UNL     1      40.038 -12.841   1.263  1.00  0.00     0.235 C 
HETATM   23  C   UNL     1      39.411 -12.975   2.639  1.00  0.00     0.035 C 
BRANCH  20  24
HETATM   24  C   UNL     1      40.384 -13.870  -0.963  1.00  0.00     0.273 C 
BRANCH  24  25
HETATM   25  C   UNL     1      39.830 -12.743  -1.790  1.00  0.00    -0.030 A 
HETATM   26  C   UNL     1      40.670 -11.748  -2.310  1.00  0.00     0.048 A 
HETATM   27  C   UNL     1      40.133 -10.694  -3.051  1.00  0.00     0.102 A 
HETATM   28  C   UNL     1      38.753 -10.599  -3.247  1.00  0.00     0.102 A 
HETATM   29  O   UNL     1      41.023  -9.779  -3.549  1.00  0.00    -0.346 OA
HETATM   30  O   UNL     1      38.157  -9.574  -3.929  1.00  0.00    -0.346 OA
HETATM   31  C   UNL     1      37.912 -11.588  -2.748  1.00  0.00     0.040 A 
HETATM   32  C   UNL     1      39.055  -8.476  -4.131  1.00  0.00     0.202 C 
HETATM   33  C   UNL     1      40.422  -8.973  -4.574  1.00  0.00     0.202 C 
HETATM   34  C   UNL     1      38.445 -12.656  -2.025  1.00  0.00     0.012 A 
ENDBRANCH  24  25
ENDBRANCH  20  24
ENDBRANCH   5  17
BRANCH   1  35
HETATM   35  C   UNL     1      42.950 -11.155   5.279  1.00  0.00     0.140 C 
BRANCH  35  36
HETATM   36  C   UNL     1      43.748 -11.523   6.540  1.00  0.00    -0.004 C 
HETATM   37  C   UNL     1      43.436 -10.523   7.655  1.00  0.00     0.011 C 
HETATM   38  C   UNL     1      45.253 -11.552   6.270  1.00  0.00     0.011 C 
ENDBRANCH  35  36
ENDBRANCH   1  35
TORSDOF 7
ENDMDL
MODEL 8
REMARK VINA RESULT:      -9.1      5.213      8.439
REMARK  7 active torsions:
REMARK  status: ('A' for Active; 'I' for Inactive)
REMARK    1  A    between atoms: C_2  and  C_3 
REMARK    2  A    between atoms: C_3  and  N_4 
REMARK    3  A    between atoms: C_8  and  C_27 
REMARK    4  A    between atoms: C_8  and  C_9 
REMARK    5  A    between atoms: N_12  and  C_14 
REMARK    6  A    between atoms: C_14  and  C_15 
REMARK    7  A    between atoms: C_27  and  C_28 
ROOT
HETATM    1  N   UNL     1      40.425  -8.606  -1.574  1.00  0.00    -0.268 N 
HETATM    2  C   UNL     1      39.231  -9.252  -1.539  1.00  0.00     0.326 C 
HETATM    3  O   UNL     1      38.202  -8.975  -2.129  1.00  0.00    -0.247 OA
HETATM    4  N   UNL     1      39.344 -10.349  -0.707  1.00  0.00    -0.324 N 
HETATM    5  C   UNL     1      40.710 -10.581  -0.282  1.00  0.00     0.123 C 
HETATM    6  C   UNL     1      41.351  -9.285  -0.838  1.00  0.00     0.257 C 
HETATM    7  O   UNL     1      42.526  -8.981  -0.669  1.00  0.00    -0.270 OA
HETATM    8  H   UNL     1      38.574 -11.007  -0.711  1.00  0.00     0.165 HD
ENDROOT
BRANCH   5   9
HETATM    9  C   UNL     1      41.362 -11.776  -1.018  1.00  0.00     0.080 C 
BRANCH   9  10
HETATM   10  C   UNL     1      40.439 -12.853  -1.546  1.00  0.00    -0.052 A 
HETATM   11  C   UNL     1      40.172 -14.004  -0.795  1.00  0.00     0.049 A 
HETATM   12  C   UNL     1      39.320 -14.983  -1.301  1.00  0.00     0.116 A 
HETATM   13  F   UNL     1      39.081 -16.080  -0.572  1.00  0.00    -0.206 F 
HETATM   14  C   UNL     1      38.724 -14.842  -2.547  1.00  0.00     0.042 A 
HETATM   15  C   UNL     1      38.982 -13.702  -3.304  1.00  0.00     0.003 A 
HETATM   16  C   UNL     1      39.836 -12.713  -2.808  1.00  0.00     0.007 A 
ENDBRANCH   9  10
ENDBRANCH   5   9
BRANCH   5  17
HETATM   17  C   UNL     1      40.819 -10.574   1.286  1.00  0.00     0.027 C 
HETATM   18  C   UNL     1      41.960 -11.417   1.886  1.00  0.00     0.035 C 
HETATM   19  C   UNL     1      41.670 -12.906   2.040  1.00  0.00     0.235 C 
HETATM   20  N   UNL     1      40.363 -13.140   2.750  1.00  0.00    -0.067 N 
HETATM   21  H   UNL     1      40.501 -12.825   3.721  1.00  0.00     0.280 HD
HETATM   22  C   UNL     1      39.201 -12.373   2.172  1.00  0.00     0.235 C 
HETATM   23  C   UNL     1      39.524 -10.894   2.058  1.00  0.00     0.035 C 
BRANCH  20  24
HETATM   24  C   UNL     1      39.996 -14.620   2.847  1.00  0.00     0.273 C 
BRANCH  24  25
HETATM   25  C   UNL     1      41.075 -15.510   3.400  1.00  0.00    -0.030 A 
HETATM   26  C   UNL     1      41.592 -16.572   2.646  1.00  0.00     0.048 A 
HETATM   27  C   UNL     1      42.572 -17.405   3.188  1.00  0.00     0.102 A 
HETATM   28  C   UNL     1      43.019 -17.211   4.497  1.00  0.00     0.102 A 
HETATM   29  O   UNL     1      43.046 -18.402   2.376  1.00  0.00    -0.346 OA
HETATM   30  O   UNL     1      43.948 -18.011   5.104  1.00  0.00    -0.346 OA
HETATM   31  C   UNL     1      42.523 -16.151   5.249  1.00  0.00     0.040 A 
HETATM   32  C   UNL     1      44.162 -19.226   4.374  1.00  0.00     0.202 C 
HETATM   33  C   UNL     1      44.276 -18.944   2.884  1.00  0.00     0.202 C 
HETATM   34  C   UNL     1      41.558 -15.302   4.706  1.00  0.00     0.012 A 
ENDBRANCH  24  25
ENDBRANCH  20  24
ENDBRANCH   5  17
BRANCH   1  35
HETATM   35  C   UNL     1      40.704  -7.444  -2.396  1.00  0.00     0.140 C 
BRANCH  35  36
HETATM   36  C   UNL     1      41.333  -7.797  -3.753  1.00  0.00    -0.004 C 
HETATM   37  C   UNL     1      42.693  -7.109  -3.884  1.00  0.00     0.011 C 
HETATM   38  C   UNL     1      40.430  -7.394  -4.920  1.00  0.00     0.011 C 
ENDBRANCH  35  36
ENDBRANCH   1  35
TORSDOF 7
ENDMDL
MODEL 9
REMARK VINA RESULT:      -9.0      2.680      4.512
REMARK  7 active torsions:
REMARK  status: ('A' for Active; 'I' for Inactive)
REMARK    1  A    between atoms: C_2  and  C_3 
REMARK    2  A    between atoms: C_3  and  N_4 
REMARK    3  A    between atoms: C_8  and  C_27 
REMARK    4  A    between atoms: C_8  and  C_9 
REMARK    5  A    between atoms: N_12  and  C_14 
REMARK    6  A    between atoms: C_14  and  C_15 
REMARK    7  A    between atoms: C_27  and  C_28 
ROOT
HETATM    1  N   UNL     1      41.540 -11.680   4.567  1.00  0.00    -0.268 N 
HETATM    2  C   UNL     1      40.901 -11.967   5.731  1.00  0.00     0.326 C 
HETATM    3  O   UNL     1      39.752 -12.338   5.893  1.00  0.00    -0.247 OA
HETATM    4  N   UNL     1      41.784 -11.791   6.778  1.00  0.00    -0.324 N 
HETATM    5  C   UNL     1      43.138 -11.542   6.322  1.00  0.00     0.123 C 
HETATM    6  C   UNL     1      42.849 -11.382   4.808  1.00  0.00     0.257 C 
HETATM    7  O   UNL     1      43.703 -11.089   3.981  1.00  0.00    -0.270 OA
HETATM    8  H   UNL     1      41.486 -12.119   7.688  1.00  0.00     0.165 HD
ENDROOT
BRANCH   5   9
HETATM    9  C   UNL     1      44.055 -12.777   6.493  1.00  0.00     0.080 C 
BRANCH   9  10
HETATM   10  C   UNL     1      43.417 -14.141   6.340  1.00  0.00    -0.052 A 
HETATM   11  C   UNL     1      43.281 -14.734   5.078  1.00  0.00     0.049 A 
HETATM   12  C   UNL     1      42.689 -15.990   4.961  1.00  0.00     0.116 A 
HETATM   13  F   UNL     1      42.560 -16.539   3.747  1.00  0.00    -0.206 F 
HETATM   14  C   UNL     1      42.226 -16.673   6.077  1.00  0.00     0.042 A 
HETATM   15  C   UNL     1      42.355 -16.093   7.337  1.00  0.00     0.003 A 
HETATM   16  C   UNL     1      42.946 -14.834   7.468  1.00  0.00     0.007 A 
ENDBRANCH   9  10
ENDBRANCH   5   9
BRANCH   5  17
HETATM   17  C   UNL     1      43.679 -10.179   6.886  1.00  0.00     0.027 C 
HETATM   18  C   UNL     1      45.042 -10.237   7.599  1.00  0.00     0.035 C 
HETATM   19  C   UNL     1      45.006 -10.680   9.057  1.00  0.00     0.235 C 
HETATM   20  N   UNL     1      43.992  -9.893   9.846  1.00  0.00    -0.067 N 
HETATM   21  H   UNL     1      44.353  -8.930   9.900  1.00  0.00     0.280 HD
HETATM   22  C   UNL     1      42.624  -9.843   9.213  1.00  0.00     0.235 C 
HETATM   23  C   UNL     1      42.705  -9.376   7.771  1.00  0.00     0.035 C 
BRANCH  20  24
HETATM   24  C   UNL     1      43.866 -10.367  11.292  1.00  0.00     0.273 C 
BRANCH  24  25
HETATM   25  C   UNL     1      42.965  -9.533  12.160  1.00  0.00    -0.030 A 
HETATM   26  C   UNL     1      43.265  -8.191  12.432  1.00  0.00     0.048 A 
HETATM   27  C   UNL     1      42.432  -7.440  13.264  1.00  0.00     0.102 A 
HETATM   28  C   UNL     1      41.315  -8.029  13.861  1.00  0.00     0.102 A 
HETATM   29  O   UNL     1      42.779  -6.129  13.457  1.00  0.00    -0.346 OA
HETATM   30  O   UNL     1      40.478  -7.364  14.716  1.00  0.00    -0.346 OA
HETATM   31  C   UNL     1      41.000  -9.356  13.587  1.00  0.00     0.040 A 
HETATM   32  C   UNL     1      41.049  -6.129  15.165  1.00  0.00     0.202 C 
HETATM   33  C   UNL     1      41.685  -5.378  14.006  1.00  0.00     0.202 C 
HETATM   34  C   UNL     1      41.817 -10.105  12.739  1.00  0.00     0.012 A 
ENDBRANCH  24  25
ENDBRANCH  20  24
ENDBRANCH   5  17
BRANCH   1  35
HETATM   35  C   UNL     1      40.946 -11.817   3.251  1.00  0.00     0.140 C 
BRANCH  35  36
HETATM   36  C   UNL     1      41.206 -13.188   2.606  1.00  0.00    -0.004 C 
HETATM   37  C   UNL     1      41.387 -13.019   1.097  1.00  0.00     0.011 C 
HETATM   38  C   UNL     1      40.071 -14.173   2.890  1.00  0.00     0.011 C 
ENDBRANCH  35  36
ENDBRANCH   1  35
TORSDOF 7
ENDMDL
MODEL 10
REMARK VINA RESULT:      -8.9      3.126      6.115
REMARK  7 active torsions:
REMARK  status: ('A' for Active; 'I' for Inactive)
REMARK    1  A    between atoms: C_2  and  C_3 
REMARK    2  A    between atoms: C_3  and  N_4 
REMARK    3  A    between atoms: C_8  and  C_27 
REMARK    4  A    between atoms: C_8  and  C_9 
REMARK    5  A    between atoms: N_12  and  C_14 
REMARK    6  A    between atoms: C_14  and  C_15 
REMARK    7  A    between atoms: C_27  and  C_28 
ROOT
HETATM    1  N   UNL     1      43.353 -15.354   5.893  1.00  0.00    -0.268 N 
HETATM    2  C   UNL     1      42.982 -14.826   7.088  1.00  0.00     0.326 C 
HETATM    3  O   UNL     1      43.263 -15.215   8.208  1.00  0.00    -0.247 OA
HETATM    4  N   UNL     1      42.208 -13.706   6.858  1.00  0.00    -0.324 N 
HETATM    5  C   UNL     1      42.179 -13.333   5.457  1.00  0.00     0.123 C 
HETATM    6  C   UNL     1      42.901 -14.571   4.870  1.00  0.00     0.257 C 
HETATM    7  O   UNL     1      43.069 -14.756   3.672  1.00  0.00    -0.270 OA
HETATM    8  H   UNL     1      41.992 -13.126   7.659  1.00  0.00     0.165 HD
ENDROOT
BRANCH   5   9
HETATM    9  C   UNL     1      43.061 -12.096   5.159  1.00  0.00     0.080 C 
BRANCH   9  10
HETATM   10  C   UNL     1      43.878 -11.534   6.302  1.00  0.00    -0.052 A 
HETATM   11  C   UNL     1      43.257 -11.068   7.468  1.00  0.00     0.049 A 
HETATM   12  C   UNL     1      44.029 -10.553   8.508  1.00  0.00     0.116 A 
HETATM   13  F   UNL     1      43.419 -10.106   9.613  1.00  0.00    -0.206 F 
HETATM   14  C   UNL     1      45.412 -10.490   8.413  1.00  0.00     0.042 A 
HETATM   15  C   UNL     1      46.041 -10.949   7.258  1.00  0.00     0.003 A 
HETATM   16  C   UNL     1      45.278 -11.467   6.207  1.00  0.00     0.007 A 
ENDBRANCH   9  10
ENDBRANCH   5   9
BRANCH   5  17
HETATM   17  C   UNL     1      40.705 -13.294   4.916  1.00  0.00     0.027 C 
HETATM   18  C   UNL     1      40.470 -12.437   3.658  1.00  0.00     0.035 C 
HETATM   19  C   UNL     1      40.284 -10.944   3.902  1.00  0.00     0.235 C 
HETATM   20  N   UNL     1      39.244 -10.686   4.961  1.00  0.00    -0.067 N 
HETATM   21  H   UNL     1      38.342 -10.974   4.556  1.00  0.00     0.280 HD
HETATM   22  C   UNL     1      39.454 -11.467   6.234  1.00  0.00     0.235 C 
HETATM   23  C   UNL     1      39.612 -12.949   5.946  1.00  0.00     0.035 C 
BRANCH  20  24
HETATM   24  C   UNL     1      39.091  -9.203   5.295  1.00  0.00     0.273 C 
BRANCH  24  25
HETATM   25  C   UNL     1      40.020  -8.691   6.361  1.00  0.00    -0.030 A 
HETATM   26  C   UNL     1      39.627  -8.659   7.707  1.00  0.00     0.048 A 
HETATM   27  C   UNL     1      40.493  -8.153   8.678  1.00  0.00     0.102 A 
HETATM   28  C   UNL     1      41.739  -7.639   8.314  1.00  0.00     0.102 A 
HETATM   29  O   UNL     1      40.045  -8.183   9.973  1.00  0.00    -0.346 OA
HETATM   30  O   UNL     1      42.620  -7.093   9.208  1.00  0.00    -0.346 OA
HETATM   31  C   UNL     1      42.145  -7.679   6.984  1.00  0.00     0.040 A 
HETATM   32  C   UNL     1      41.999  -6.824  10.471  1.00  0.00     0.202 C 
HETATM   33  C   UNL     1      41.125  -7.992  10.900  1.00  0.00     0.202 C 
HETATM   34  C   UNL     1      41.293  -8.204   6.011  1.00  0.00     0.012 A 
ENDBRANCH  24  25
ENDBRANCH  20  24
ENDBRANCH   5  17
BRANCH   1  35
HETATM   35  C   UNL     1      44.228 -16.501   5.739  1.00  0.00     0.140 C 
BRANCH  35  36
HETATM   36  C   UNL     1      43.496 -17.763   5.257  1.00  0.00    -0.004 C 
HETATM   37  C   UNL     1      43.397 -18.769   6.406  1.00  0.00     0.011 C 
HETATM   38  C   UNL     1      44.199 -18.405   4.060  1.00  0.00     0.011 C 
ENDBRANCH  35  36
ENDBRANCH   1  35
TORSDOF 7
ENDMDL
