MODEL 1
REMARK VINA RESULT:      -9.5      0.000      0.000
REMARK  7 active torsions:
REMARK  status: ('A' for Active; 'I' for Inactive)
REMARK    1  A    between atoms: N_8  and  C_9 
REMARK    2  A    between atoms: C_9  and  C_10 
REMARK    3  A    between atoms: C_13  and  C_14 
REMARK       I    between atoms: C_14  and  N_15 
REMARK    4  A    between atoms: N_15  and  N_16 
REMARK    5  A    between atoms: C_17  and  C_18 
REMARK    6  A    between atoms: C_19  and  O_20 
REMARK    7  A    between atoms: C_22  and  O_23 
ROOT
HETATM    1  C   UNL     1      40.751 -10.006   6.837  1.00  0.00    -0.040 A 
HETATM    2  C   UNL     1      39.668 -10.880   6.666  1.00  0.00     0.010 A 
HETATM    3  C   UNL     1      39.834 -12.095   5.995  1.00  0.00     0.017 A 
HETATM    4  C   UNL     1      41.085 -12.459   5.483  1.00  0.00     0.033 A 
HETATM    5  C   UNL     1      42.175 -11.601   5.671  1.00  0.00     0.017 A 
HETATM    6  C   UNL     1      42.006 -10.382   6.337  1.00  0.00     0.010 A 
ENDROOT
BRANCH   4   7
HETATM    7  C   UNL     1      41.209 -13.779   4.798  1.00  0.00     0.271 C 
HETATM    8  N   UNL     1      42.393 -14.472   5.013  1.00  0.00    -0.243 N 
HETATM    9  H   UNL     1      43.165 -14.056   5.516  1.00  0.00     0.192 HD
HETATM   10  O   UNL     1      40.295 -14.177   4.080  1.00  0.00    -0.266 OA
BRANCH   8  11
HETATM   11  N   UNL     1      42.546 -15.702   4.449  1.00  0.00    -0.183 NA
HETATM   12  C   UNL     1      43.357 -16.512   5.051  1.00  0.00     0.153 C 
BRANCH  12  13
HETATM   13  C   UNL     1      43.581 -17.874   4.525  1.00  0.00     0.016 A 
HETATM   14  C   UNL     1      43.513 -18.164   3.155  1.00  0.00     0.080 A 
HETATM   15  C   UNL     1      43.723 -19.463   2.699  1.00  0.00     0.074 A 
HETATM   16  C   UNL     1      43.995 -20.472   3.618  1.00  0.00     0.068 A 
HETATM   17  C   UNL     1      44.065 -20.199   4.981  1.00  0.00     0.037 A 
HETATM   18  C   UNL     1      43.858 -18.896   5.440  1.00  0.00     0.018 A 
BRANCH  14  19
HETATM   19  O   UNL     1      43.246 -17.223   2.198  1.00  0.00    -0.360 OA
HETATM   20  H   UNL     1      43.999 -17.195   1.562  1.00  0.00     0.217 HD
ENDBRANCH  14  19
BRANCH  16  21
HETATM   21  O   UNL     1      44.203 -21.758   3.218  1.00  0.00    -0.361 OA
HETATM   22  H   UNL     1      45.020 -22.082   3.634  1.00  0.00     0.217 HD
ENDBRANCH  16  21
ENDBRANCH  12  13
ENDBRANCH   8  11
ENDBRANCH   4   7
BRANCH   1  23
HETATM   23  C   UNL     1      40.570  -8.705   7.586  1.00  0.00     0.171 C 
BRANCH  23  24
HETATM   24  N   UNL     1      40.719  -8.861   9.014  1.00  0.00    -0.309 N 
HETATM   25  C   UNL     1      41.925  -8.906   9.720  1.00  0.00     0.050 A 
HETATM   26  C   UNL     1      41.607  -9.105  11.044  1.00  0.00     0.017 A 
HETATM   27  C   UNL     1      43.246  -8.778   9.320  1.00  0.00     0.031 A 
HETATM   28  C   UNL     1      40.233  -9.184  11.175  1.00  0.00     0.045 A 
HETATM   29  C   UNL     1      42.509  -9.203  12.061  1.00  0.00    -0.023 A 
HETATM   30  C   UNL     1      39.675  -9.383  12.436  1.00  0.00     0.018 A 
HETATM   31  C   UNL     1      39.608  -9.029   9.876  1.00  0.00     0.259 A 
HETATM   32  C   UNL     1      40.573  -9.493  13.518  1.00  0.00     0.002 A 
HETATM   33  C   UNL     1      41.970  -9.405  13.345  1.00  0.00     0.012 A 
HETATM   34  O   UNL     1      38.430  -9.023   9.541  1.00  0.00    -0.267 OA
HETATM   35  C   UNL     1      43.863  -9.086  11.693  1.00  0.00     0.012 A 
HETATM   36  C   UNL     1      44.215  -8.877  10.342  1.00  0.00     0.003 A 
ENDBRANCH  23  24
ENDBRANCH   1  23
TORSDOF 7
ENDMDL
MODEL 2
REMARK VINA RESULT:      -9.4      2.264      2.973
REMARK  7 active torsions:
REMARK  status: ('A' for Active; 'I' for Inactive)
REMARK    1  A    between atoms: N_8  and  C_9 
REMARK    2  A    between atoms: C_9  and  C_10 
REMARK    3  A    between atoms: C_13  and  C_14 
REMARK       I    between atoms: C_14  and  N_15 
REMARK    4  A    between atoms: N_15  and  N_16 
REMARK    5  A    between atoms: C_17  and  C_18 
REMARK    6  A    between atoms: C_19  and  O_20 
REMARK    7  A    between atoms: C_22  and  O_23 
ROOT
HETATM    1  C   UNL     1      44.472  -9.978   8.052  1.00  0.00    -0.040 A 
HETATM    2  C   UNL     1      45.407 -10.940   7.644  1.00  0.00     0.010 A 
HETATM    3  C   UNL     1      45.034 -11.975   6.782  1.00  0.00     0.017 A 
HETATM    4  C   UNL     1      43.719 -12.068   6.312  1.00  0.00     0.033 A 
HETATM    5  C   UNL     1      42.786 -11.098   6.698  1.00  0.00     0.017 A 
HETATM    6  C   UNL     1      43.159 -10.066   7.565  1.00  0.00     0.010 A 
ENDROOT
BRANCH   4   7
HETATM    7  C   UNL     1      43.383 -13.179   5.375  1.00  0.00     0.271 C 
HETATM    8  N   UNL     1      43.404 -14.461   5.909  1.00  0.00    -0.243 N 
HETATM    9  H   UNL     1      43.732 -14.635   6.850  1.00  0.00     0.192 HD
HETATM   10  O   UNL     1      43.126 -12.924   4.200  1.00  0.00    -0.266 OA
BRANCH   8  11
HETATM   11  N   UNL     1      43.064 -15.511   5.113  1.00  0.00    -0.183 NA
HETATM   12  C   UNL     1      44.018 -16.329   4.803  1.00  0.00     0.153 C 
BRANCH  12  13
HETATM   13  C   UNL     1      43.748 -17.508   3.955  1.00  0.00     0.016 A 
HETATM   14  C   UNL     1      43.002 -17.418   2.770  1.00  0.00     0.080 A 
HETATM   15  C   UNL     1      42.762 -18.554   2.002  1.00  0.00     0.074 A 
HETATM   16  C   UNL     1      43.265 -19.781   2.424  1.00  0.00     0.068 A 
HETATM   17  C   UNL     1      44.006 -19.885   3.597  1.00  0.00     0.037 A 
HETATM   18  C   UNL     1      44.251 -18.746   4.369  1.00  0.00     0.018 A 
BRANCH  14  19
HETATM   19  O   UNL     1      42.475 -16.246   2.299  1.00  0.00    -0.360 OA
HETATM   20  H   UNL     1      42.485 -16.268   1.313  1.00  0.00     0.217 HD
ENDBRANCH  14  19
BRANCH  16  21
HETATM   21  O   UNL     1      43.051 -20.920   1.707  1.00  0.00    -0.361 OA
HETATM   22  H   UNL     1      42.092 -21.057   1.625  1.00  0.00     0.217 HD
ENDBRANCH  16  21
ENDBRANCH  12  13
ENDBRANCH   8  11
ENDBRANCH   4   7
BRANCH   1  23
HETATM   23  C   UNL     1      44.890  -8.847   8.964  1.00  0.00     0.171 C 
BRANCH  23  24
HETATM   24  N   UNL     1      44.045  -8.731  10.129  1.00  0.00    -0.309 N 
HETATM   25  C   UNL     1      43.254  -7.630  10.472  1.00  0.00     0.050 A 
HETATM   26  C   UNL     1      42.649  -7.929  11.672  1.00  0.00     0.017 A 
HETATM   27  C   UNL     1      43.011  -6.422   9.839  1.00  0.00     0.031 A 
HETATM   28  C   UNL     1      43.045  -9.190  12.079  1.00  0.00     0.045 A 
HETATM   29  C   UNL     1      41.792  -7.109  12.343  1.00  0.00    -0.023 A 
HETATM   30  C   UNL     1      42.554  -9.708  13.275  1.00  0.00     0.018 A 
HETATM   31  C   UNL     1      43.956  -9.755  11.103  1.00  0.00     0.259 A 
HETATM   32  C   UNL     1      41.666  -8.893  14.004  1.00  0.00     0.002 A 
HETATM   33  C   UNL     1      41.283  -7.611  13.555  1.00  0.00     0.012 A 
HETATM   34  O   UNL     1      44.529 -10.837  11.063  1.00  0.00    -0.267 OA
HETATM   35  C   UNL     1      41.527  -5.868  11.735  1.00  0.00     0.012 A 
HETATM   36  C   UNL     1      42.131  -5.540  10.502  1.00  0.00     0.003 A 
ENDBRANCH  23  24
ENDBRANCH   1  23
TORSDOF 7
ENDMDL
MODEL 3
REMARK VINA RESULT:      -9.3      2.492     10.683
REMARK  7 active torsions:
REMARK  status: ('A' for Active; 'I' for Inactive)
REMARK    1  A    between atoms: N_8  and  C_9 
REMARK    2  A    between atoms: C_9  and  C_10 
REMARK    3  A    between atoms: C_13  and  C_14 
REMARK       I    between atoms: C_14  and  N_15 
REMARK    4  A    between atoms: N_15  and  N_16 
REMARK    5  A    between atoms: C_17  and  C_18 
REMARK    6  A    between atoms: C_19  and  O_20 
REMARK    7  A    between atoms: C_22  and  O_23 
ROOT
HETATM    1  C   UNL     1      42.506 -12.629   4.731  1.00  0.00    -0.040 A 
HETATM    2  C   UNL     1      41.471 -12.119   5.528  1.00  0.00     0.010 A 
HETATM    3  C   UNL     1      41.753 -11.275   6.605  1.00  0.00     0.017 A 
HETATM    4  C   UNL     1      43.074 -10.925   6.906  1.00  0.00     0.033 A 
HETATM    5  C   UNL     1      44.110 -11.413   6.101  1.00  0.00     0.017 A 
HETATM    6  C   UNL     1      43.827 -12.262   5.026  1.00  0.00     0.010 A 
ENDROOT
BRANCH   4   7
HETATM    7  C   UNL     1      43.314 -10.000   8.053  1.00  0.00     0.271 C 
HETATM    8  N   UNL     1      42.405 -10.072   9.100  1.00  0.00    -0.243 N 
HETATM    9  H   UNL     1      41.571 -10.641   9.037  1.00  0.00     0.192 HD
HETATM   10  O   UNL     1      44.267  -9.225   8.017  1.00  0.00    -0.266 OA
BRANCH   8  11
HETATM   11  N   UNL     1      42.596  -9.283  10.193  1.00  0.00    -0.183 NA
HETATM   12  C   UNL     1      42.072  -9.700  11.300  1.00  0.00     0.153 C 
BRANCH  12  13
HETATM   13  C   UNL     1      42.236  -8.923  12.545  1.00  0.00     0.016 A 
HETATM   14  C   UNL     1      41.386  -9.096  13.648  1.00  0.00     0.080 A 
HETATM   15  C   UNL     1      41.568  -8.338  14.802  1.00  0.00     0.074 A 
HETATM   16  C   UNL     1      42.598  -7.404  14.849  1.00  0.00     0.068 A 
HETATM   17  C   UNL     1      43.449  -7.222  13.762  1.00  0.00     0.037 A 
HETATM   18  C   UNL     1      43.270  -7.983  12.604  1.00  0.00     0.018 A 
BRANCH  14  19
HETATM   19  O   UNL     1      40.352  -9.992  13.669  1.00  0.00    -0.360 OA
HETATM   20  H   UNL     1      39.520  -9.522  13.428  1.00  0.00     0.217 HD
ENDBRANCH  14  19
BRANCH  16  21
HETATM   21  O   UNL     1      42.811  -6.637  15.955  1.00  0.00    -0.361 OA
HETATM   22  H   UNL     1      41.960  -6.503  16.405  1.00  0.00     0.217 HD
ENDBRANCH  16  21
ENDBRANCH  12  13
ENDBRANCH   8  11
ENDBRANCH   4   7
BRANCH   1  23
HETATM   23  C   UNL     1      42.191 -13.521   3.551  1.00  0.00     0.171 C 
BRANCH  23  24
HETATM   24  N   UNL     1      42.625 -14.883   3.753  1.00  0.00    -0.309 N 
HETATM   25  C   UNL     1      42.714 -15.550   4.978  1.00  0.00     0.050 A 
HETATM   26  C   UNL     1      43.208 -16.808   4.715  1.00  0.00     0.017 A 
HETATM   27  C   UNL     1      42.397 -15.171   6.273  1.00  0.00     0.031 A 
HETATM   28  C   UNL     1      43.427 -16.936   3.356  1.00  0.00     0.045 A 
HETATM   29  C   UNL     1      43.439 -17.772   5.651  1.00  0.00    -0.023 A 
HETATM   30  C   UNL     1      43.929 -18.134   2.852  1.00  0.00     0.018 A 
HETATM   31  C   UNL     1      43.060 -15.704   2.684  1.00  0.00     0.259 A 
HETATM   32  C   UNL     1      44.183 -19.158   3.786  1.00  0.00     0.002 A 
HETATM   33  C   UNL     1      43.945 -18.991   5.167  1.00  0.00     0.012 A 
HETATM   34  O   UNL     1      43.083 -15.391   1.500  1.00  0.00    -0.267 OA
HETATM   35  C   UNL     1      43.136 -17.421   6.980  1.00  0.00     0.012 A 
HETATM   36  C   UNL     1      42.623 -16.139   7.276  1.00  0.00     0.003 A 
ENDBRANCH  23  24
ENDBRANCH   1  23
TORSDOF 7
ENDMDL
MODEL 4
REMARK VINA RESULT:      -9.0      2.535     10.548
REMARK  7 active torsions:
REMARK  status: ('A' for Active; 'I' for Inactive)
REMARK    1  A    between atoms: N_8  and  C_9 
REMARK    2  A    between atoms: C_9  and  C_10 
REMARK    3  A    between atoms: C_13  and  C_14 
REMARK       I    between atoms: C_14  and  N_15 
REMARK    4  A    between atoms: N_15  and  N_16 
REMARK    5  A    between atoms: C_17  and  C_18 
REMARK    6  A    between atoms: C_19  and  O_20 
REMARK    7  A    between atoms: C_22  and  O_23 
ROOT
HETATM    1  C   UNL     1      40.059 -11.801   4.753  1.00  0.00    -0.040 A 
HETATM    2  C   UNL     1      39.131 -11.621   5.788  1.00  0.00     0.010 A 
HETATM    3  C   UNL     1      39.439 -10.819   6.890  1.00  0.00     0.017 A 
HETATM    4  C   UNL     1      40.682 -10.181   6.978  1.00  0.00     0.033 A 
HETATM    5  C   UNL     1      41.605 -10.338   5.937  1.00  0.00     0.017 A 
HETATM    6  C   UNL     1      41.297 -11.146   4.837  1.00  0.00     0.010 A 
ENDROOT
BRANCH   4   7
HETATM    7  C   UNL     1      40.948  -9.317   8.165  1.00  0.00     0.271 C 
HETATM    8  N   UNL     1      41.715  -9.882   9.176  1.00  0.00    -0.243 N 
HETATM    9  H   UNL     1      41.984 -10.856   9.153  1.00  0.00     0.192 HD
HETATM   10  O   UNL     1      40.477  -8.183   8.206  1.00  0.00    -0.266 OA
BRANCH   8  11
HETATM   11  N   UNL     1      42.027  -9.127  10.265  1.00  0.00    -0.183 NA
HETATM   12  C   UNL     1      41.644  -9.588  11.412  1.00  0.00     0.153 C 
BRANCH  12  13
HETATM   13  C   UNL     1      41.947  -8.850  12.655  1.00  0.00     0.016 A 
HETATM   14  C   UNL     1      41.222  -9.054  13.838  1.00  0.00     0.080 A 
HETATM   15  C   UNL     1      41.533  -8.332  14.987  1.00  0.00     0.074 A 
HETATM   16  C   UNL     1      42.567  -7.402  14.949  1.00  0.00     0.068 A 
HETATM   17  C   UNL     1      43.295  -7.189  13.782  1.00  0.00     0.037 A 
HETATM   18  C   UNL     1      42.987  -7.914  12.628  1.00  0.00     0.018 A 
BRANCH  14  19
HETATM   19  O   UNL     1      40.191  -9.948  13.945  1.00  0.00    -0.360 OA
HETATM   20  H   UNL     1      40.392 -10.576  14.677  1.00  0.00     0.217 HD
ENDBRANCH  14  19
BRANCH  16  21
HETATM   21  O   UNL     1      42.904  -6.670  16.048  1.00  0.00    -0.361 OA
HETATM   22  H   UNL     1      43.111  -5.764  15.763  1.00  0.00     0.217 HD
ENDBRANCH  16  21
ENDBRANCH  12  13
ENDBRANCH   8  11
ENDBRANCH   4   7
BRANCH   1  23
HETATM   23  C   UNL     1      39.707 -12.649   3.552  1.00  0.00     0.171 C 
BRANCH  23  24
HETATM   24  N   UNL     1      40.586 -13.785   3.397  1.00  0.00    -0.309 N 
HETATM   25  C   UNL     1      40.939 -14.699   4.394  1.00  0.00     0.050 A 
HETATM   26  C   UNL     1      41.822 -15.590   3.826  1.00  0.00     0.017 A 
HETATM   27  C   UNL     1      40.557 -14.829   5.720  1.00  0.00     0.031 A 
HETATM   28  C   UNL     1      42.024 -15.249   2.502  1.00  0.00     0.045 A 
HETATM   29  C   UNL     1      42.399 -16.642   4.473  1.00  0.00    -0.023 A 
HETATM   30  C   UNL     1      42.885 -16.016   1.721  1.00  0.00     0.018 A 
HETATM   31  C   UNL     1      41.236 -14.077   2.174  1.00  0.00     0.259 A 
HETATM   32  C   UNL     1      43.505 -17.114   2.350  1.00  0.00     0.002 A 
HETATM   33  C   UNL     1      43.273 -17.432   3.705  1.00  0.00     0.012 A 
HETATM   34  O   UNL     1      41.110 -13.454   1.126  1.00  0.00    -0.267 OA
HETATM   35  C   UNL     1      42.042 -16.802   5.825  1.00  0.00     0.012 A 
HETATM   36  C   UNL     1      41.134 -15.904   6.430  1.00  0.00     0.003 A 
ENDBRANCH  23  24
ENDBRANCH   1  23
TORSDOF 7
ENDMDL
MODEL 5
REMARK VINA RESULT:      -9.0      6.830     10.992
REMARK  7 active torsions:
REMARK  status: ('A' for Active; 'I' for Inactive)
REMARK    1  A    between atoms: N_8  and  C_9 
REMARK    2  A    between atoms: C_9  and  C_10 
REMARK    3  A    between atoms: C_13  and  C_14 
REMARK       I    between atoms: C_14  and  N_15 
REMARK    4  A    between atoms: N_15  and  N_16 
REMARK    5  A    between atoms: C_17  and  C_18 
REMARK    6  A    between atoms: C_19  and  O_20 
REMARK    7  A    between atoms: C_22  and  O_23 
ROOT
HETATM    1  C   UNL     1      40.141 -14.601   1.438  1.00  0.00    -0.040 A 
HETATM    2  C   UNL     1      40.683 -13.329   1.678  1.00  0.00     0.010 A 
HETATM    3  C   UNL     1      40.976 -12.469   0.617  1.00  0.00     0.017 A 
HETATM    4  C   UNL     1      40.734 -12.863  -0.704  1.00  0.00     0.033 A 
HETATM    5  C   UNL     1      40.172 -14.122  -0.949  1.00  0.00     0.017 A 
HETATM    6  C   UNL     1      39.884 -14.984   0.114  1.00  0.00     0.010 A 
ENDROOT
BRANCH   4   7
HETATM    7  C   UNL     1      41.043 -11.894  -1.797  1.00  0.00     0.271 C 
HETATM    8  N   UNL     1      41.344 -10.598  -1.400  1.00  0.00    -0.243 N 
HETATM    9  H   UNL     1      41.253 -10.306  -0.436  1.00  0.00     0.192 HD
HETATM   10  O   UNL     1      41.002 -12.267  -2.966  1.00  0.00    -0.266 OA
BRANCH   8  11
HETATM   11  N   UNL     1      41.677  -9.680  -2.348  1.00  0.00    -0.183 NA
HETATM   12  C   UNL     1      41.104  -8.523  -2.254  1.00  0.00     0.153 C 
BRANCH  12  13
HETATM   13  C   UNL     1      41.410  -7.455  -3.227  1.00  0.00     0.016 A 
HETATM   14  C   UNL     1      41.389  -7.680  -4.611  1.00  0.00     0.080 A 
HETATM   15  C   UNL     1      41.690  -6.649  -5.497  1.00  0.00     0.074 A 
HETATM   16  C   UNL     1      42.017  -5.393  -4.995  1.00  0.00     0.068 A 
HETATM   17  C   UNL     1      42.043  -5.155  -3.623  1.00  0.00     0.037 A 
HETATM   18  C   UNL     1      41.738  -6.187  -2.733  1.00  0.00     0.018 A 
BRANCH  14  19
HETATM   19  O   UNL     1      41.080  -8.889  -5.173  1.00  0.00    -0.360 OA
HETATM   20  H   UNL     1      41.704  -9.062  -5.916  1.00  0.00     0.217 HD
ENDBRANCH  14  19
BRANCH  16  21
HETATM   21  O   UNL     1      42.324  -4.355  -5.823  1.00  0.00    -0.361 OA
HETATM   22  H   UNL     1      42.162  -4.635  -6.740  1.00  0.00     0.217 HD
ENDBRANCH  16  21
ENDBRANCH  12  13
ENDBRANCH   8  11
ENDBRANCH   4   7
BRANCH   1  23
HETATM   23  C   UNL     1      39.802 -15.515   2.594  1.00  0.00     0.171 C 
BRANCH  23  24
HETATM   24  N   UNL     1      40.924 -15.735   3.475  1.00  0.00    -0.309 N 
HETATM   25  C   UNL     1      41.944 -16.675   3.299  1.00  0.00     0.050 A 
HETATM   26  C   UNL     1      42.779 -16.570   4.389  1.00  0.00     0.017 A 
HETATM   27  C   UNL     1      42.210 -17.586   2.289  1.00  0.00     0.031 A 
HETATM   28  C   UNL     1      42.301 -15.587   5.235  1.00  0.00     0.045 A 
HETATM   29  C   UNL     1      43.900 -17.318   4.592  1.00  0.00    -0.023 A 
HETATM   30  C   UNL     1      42.991 -15.301   6.411  1.00  0.00     0.018 A 
HETATM   31  C   UNL     1      41.092 -15.011   4.681  1.00  0.00     0.259 A 
HETATM   32  C   UNL     1      44.156 -16.053   6.663  1.00  0.00     0.002 A 
HETATM   33  C   UNL     1      44.614 -17.048   5.774  1.00  0.00     0.012 A 
HETATM   34  O   UNL     1      40.360 -14.117   5.090  1.00  0.00    -0.267 OA
HETATM   35  C   UNL     1      44.199 -18.261   3.590  1.00  0.00     0.012 A 
HETATM   36  C   UNL     1      43.361 -18.384   2.460  1.00  0.00     0.003 A 
ENDBRANCH  23  24
ENDBRANCH   1  23
TORSDOF 7
ENDMDL
MODEL 6
REMARK VINA RESULT:      -8.7      2.489      3.577
REMARK  7 active torsions:
REMARK  status: ('A' for Active; 'I' for Inactive)
REMARK    1  A    between atoms: N_8  and  C_9 
REMARK    2  A    between atoms: C_9  and  C_10 
REMARK    3  A    between atoms: C_13  and  C_14 
REMARK       I    between atoms: C_14  and  N_15 
REMARK    4  A    between atoms: N_15  and  N_16 
REMARK    5  A    between atoms: C_17  and  C_18 
REMARK    6  A    between atoms: C_19  and  O_20 
REMARK    7  A    between atoms: C_22  and  O_23 
ROOT
HETATM    1  C   UNL     1      43.703  -8.013   8.744  1.00  0.00    -0.040 A 
HETATM    2  C   UNL     1      42.747  -8.772   8.055  1.00  0.00     0.010 A 
HETATM    3  C   UNL     1      43.088 -10.005   7.492  1.00  0.00     0.017 A 
HETATM    4  C   UNL     1      44.391 -10.502   7.607  1.00  0.00     0.033 A 
HETATM    5  C   UNL     1      45.345  -9.759   8.314  1.00  0.00     0.017 A 
HETATM    6  C   UNL     1      45.004  -8.522   8.871  1.00  0.00     0.010 A 
ENDROOT
BRANCH   4   7
HETATM    7  C   UNL     1      44.693 -11.835   7.009  1.00  0.00     0.271 C 
HETATM    8  N   UNL     1      43.739 -12.825   7.204  1.00  0.00    -0.243 N 
HETATM    9  H   UNL     1      42.940 -12.678   7.807  1.00  0.00     0.192 HD
HETATM   10  O   UNL     1      45.748 -12.002   6.402  1.00  0.00    -0.266 OA
BRANCH   8  11
HETATM   11  N   UNL     1      43.938 -14.050   6.644  1.00  0.00    -0.183 NA
HETATM   12  C   UNL     1      43.176 -14.355   5.643  1.00  0.00     0.153 C 
BRANCH  12  13
HETATM   13  C   UNL     1      43.323 -15.655   4.959  1.00  0.00     0.016 A 
HETATM   14  C   UNL     1      43.748 -16.808   5.634  1.00  0.00     0.080 A 
HETATM   15  C   UNL     1      43.882 -18.015   4.952  1.00  0.00     0.074 A 
HETATM   16  C   UNL     1      43.595 -18.064   3.592  1.00  0.00     0.068 A 
HETATM   17  C   UNL     1      43.172 -16.927   2.908  1.00  0.00     0.037 A 
HETATM   18  C   UNL     1      43.034 -15.716   3.591  1.00  0.00     0.018 A 
BRANCH  14  19
HETATM   19  O   UNL     1      44.051 -16.831   6.969  1.00  0.00    -0.360 OA
HETATM   20  H   UNL     1      44.306 -17.749   7.220  1.00  0.00     0.217 HD
ENDBRANCH  14  19
BRANCH  16  21
HETATM   21  O   UNL     1      43.716 -19.221   2.882  1.00  0.00    -0.361 OA
HETATM   22  H   UNL     1      44.653 -19.476   2.866  1.00  0.00     0.217 HD
ENDBRANCH  16  21
ENDBRANCH  12  13
ENDBRANCH   8  11
ENDBRANCH   4   7
BRANCH   1  23
HETATM   23  C   UNL     1      43.320  -6.692   9.372  1.00  0.00     0.171 C 
BRANCH  23  24
HETATM   24  N   UNL     1      42.158  -6.798  10.222  1.00  0.00    -0.309 N 
HETATM   25  C   UNL     1      42.103  -7.416  11.475  1.00  0.00     0.050 A 
HETATM   26  C   UNL     1      40.801  -7.322  11.912  1.00  0.00     0.017 A 
HETATM   27  C   UNL     1      43.069  -8.029  12.257  1.00  0.00     0.031 A 
HETATM   28  C   UNL     1      40.048  -6.659  10.960  1.00  0.00     0.045 A 
HETATM   29  C   UNL     1      40.335  -7.804  13.099  1.00  0.00    -0.023 A 
HETATM   30  C   UNL     1      38.691  -6.445  11.188  1.00  0.00     0.018 A 
HETATM   31  C   UNL     1      40.891  -6.296   9.838  1.00  0.00     0.259 A 
HETATM   32  C   UNL     1      38.166  -6.928  12.403  1.00  0.00     0.002 A 
HETATM   33  C   UNL     1      38.967  -7.599  13.352  1.00  0.00     0.012 A 
HETATM   34  O   UNL     1      40.640  -5.698   8.798  1.00  0.00    -0.267 OA
HETATM   35  C   UNL     1      41.286  -8.441  13.918  1.00  0.00     0.012 A 
HETATM   36  C   UNL     1      42.630  -8.546  13.495  1.00  0.00     0.003 A 
ENDBRANCH  23  24
ENDBRANCH   1  23
TORSDOF 7
ENDMDL
MODEL 7
REMARK VINA RESULT:      -8.7      3.983      5.252
REMARK  7 active torsions:
REMARK  status: ('A' for Active; 'I' for Inactive)
REMARK    1  A    between atoms: N_8  and  C_9 
REMARK    2  A    between atoms: C_9  and  C_10 
REMARK    3  A    between atoms: C_13  and  C_14 
REMARK       I    between atoms: C_14  and  N_15 
REMARK    4  A    between atoms: N_15  and  N_16 
REMARK    5  A    between atoms: C_17  and  C_18 
REMARK    6  A    between atoms: C_19  and  O_20 
REMARK    7  A    between atoms: C_22  and  O_23 
ROOT
HETATM    1  C   UNL     1      44.096 -10.710   7.745  1.00  0.00    -0.040 A 
HETATM    2  C   UNL     1      42.930 -10.091   7.270  1.00  0.00     0.010 A 
HETATM    3  C   UNL     1      42.143 -10.707   6.295  1.00  0.00     0.017 A 
HETATM    4  C   UNL     1      42.506 -11.955   5.774  1.00  0.00     0.033 A 
HETATM    5  C   UNL     1      43.656 -12.589   6.260  1.00  0.00     0.017 A 
HETATM    6  C   UNL     1      44.446 -11.968   7.233  1.00  0.00     0.010 A 
ENDROOT
BRANCH   4   7
HETATM    7  C   UNL     1      41.615 -12.578   4.752  1.00  0.00     0.271 C 
HETATM    8  N   UNL     1      41.985 -12.401   3.425  1.00  0.00    -0.243 N 
HETATM    9  H   UNL     1      42.754 -11.796   3.167  1.00  0.00     0.192 HD
HETATM   10  O   UNL     1      40.611 -13.187   5.114  1.00  0.00    -0.266 OA
BRANCH   8  11
HETATM   11  N   UNL     1      41.235 -12.983   2.449  1.00  0.00    -0.183 NA
HETATM   12  C   UNL     1      40.812 -12.202   1.508  1.00  0.00     0.153 C 
BRANCH  12  13
HETATM   13  C   UNL     1      40.003 -12.741   0.396  1.00  0.00     0.016 A 
HETATM   14  C   UNL     1      40.255 -14.000  -0.167  1.00  0.00     0.080 A 
HETATM   15  C   UNL     1      39.474 -14.470  -1.220  1.00  0.00     0.074 A 
HETATM   16  C   UNL     1      38.443 -13.674  -1.711  1.00  0.00     0.068 A 
HETATM   17  C   UNL     1      38.181 -12.423  -1.162  1.00  0.00     0.037 A 
HETATM   18  C   UNL     1      38.961 -11.950  -0.103  1.00  0.00     0.018 A 
BRANCH  14  19
HETATM   19  O   UNL     1      41.254 -14.831   0.262  1.00  0.00    -0.360 OA
HETATM   20  H   UNL     1      41.074 -15.741  -0.070  1.00  0.00     0.217 HD
ENDBRANCH  14  19
BRANCH  16  21
HETATM   21  O   UNL     1      37.656 -14.091  -2.743  1.00  0.00    -0.361 OA
HETATM   22  H   UNL     1      38.016 -14.925  -3.089  1.00  0.00     0.217 HD
ENDBRANCH  16  21
ENDBRANCH  12  13
ENDBRANCH   8  11
ENDBRANCH   4   7
BRANCH   1  23
HETATM   23  C   UNL     1      44.928 -10.048   8.820  1.00  0.00     0.171 C 
BRANCH  23  24
HETATM   24  N   UNL     1      44.127  -9.545   9.911  1.00  0.00    -0.309 N 
HETATM   25  C   UNL     1      43.626  -8.247  10.040  1.00  0.00     0.050 A 
HETATM   26  C   UNL     1      42.957  -8.194  11.242  1.00  0.00     0.017 A 
HETATM   27  C   UNL     1      43.689  -7.135   9.216  1.00  0.00     0.031 A 
HETATM   28  C   UNL     1      43.031  -9.428  11.860  1.00  0.00     0.045 A 
HETATM   29  C   UNL     1      42.320  -7.094  11.737  1.00  0.00    -0.023 A 
HETATM   30  C   UNL     1      42.419  -9.613  13.098  1.00  0.00     0.018 A 
HETATM   31  C   UNL     1      43.785 -10.346  11.028  1.00  0.00     0.259 A 
HETATM   32  C   UNL     1      41.750  -8.501  13.648  1.00  0.00     0.002 A 
HETATM   33  C   UNL     1      41.694  -7.256  12.987  1.00  0.00     0.012 A 
HETATM   34  O   UNL     1      44.077 -11.525  11.185  1.00  0.00    -0.267 OA
HETATM   35  C   UNL     1      42.368  -5.942  10.930  1.00  0.00     0.012 A 
HETATM   36  C   UNL     1      43.044  -5.973   9.690  1.00  0.00     0.003 A 
ENDBRANCH  23  24
ENDBRANCH   1  23
TORSDOF 7
ENDMDL
MODEL 8
REMARK VINA RESULT:      -8.4      5.473      9.139
REMARK  7 active torsions:
REMARK  status: ('A' for Active; 'I' for Inactive)
REMARK    1  A    between atoms: N_8  and  C_9 
REMARK    2  A    between atoms: C_9  and  C_10 
REMARK    3  A    between atoms: C_13  and  C_14 
REMARK       I    between atoms: C_14  and  N_15 
REMARK    4  A    between atoms: N_15  and  N_16 
REMARK    5  A    between atoms: C_17  and  C_18 
REMARK    6  A    between atoms: C_19  and  O_20 
REMARK    7  A    between atoms: C_22  and  O_23 
ROOT
HETATM    1  C   UNL     1      41.450  -7.818  15.892  1.00  0.00    -0.040 A 
HETATM    2  C   UNL     1      42.553  -7.043  15.503  1.00  0.00     0.010 A 
HETATM    3  C   UNL     1      43.114  -7.191  14.232  1.00  0.00     0.017 A 
HETATM    4  C   UNL     1      42.584  -8.116  13.325  1.00  0.00     0.033 A 
HETATM    5  C   UNL     1      41.469  -8.876  13.699  1.00  0.00     0.017 A 
HETATM    6  C   UNL     1      40.912  -8.731  14.974  1.00  0.00     0.010 A 
ENDROOT
BRANCH   4   7
HETATM    7  C   UNL     1      43.208  -8.214  11.973  1.00  0.00     0.271 C 
HETATM    8  N   UNL     1      43.903  -9.385  11.702  1.00  0.00    -0.243 N 
HETATM    9  H   UNL     1      44.066 -10.081  12.417  1.00  0.00     0.192 HD
HETATM   10  O   UNL     1      43.100  -7.276  11.187  1.00  0.00    -0.266 OA
BRANCH   8  11
HETATM   11  N   UNL     1      44.458  -9.550  10.469  1.00  0.00    -0.183 NA
HETATM   12  C   UNL     1      43.896 -10.427   9.700  1.00  0.00     0.153 C 
BRANCH  12  13
HETATM   13  C   UNL     1      44.414 -10.671   8.339  1.00  0.00     0.016 A 
HETATM   14  C   UNL     1      43.568 -10.981   7.265  1.00  0.00     0.080 A 
HETATM   15  C   UNL     1      44.095 -11.211   5.997  1.00  0.00     0.074 A 
HETATM   16  C   UNL     1      45.471 -11.136   5.807  1.00  0.00     0.068 A 
HETATM   17  C   UNL     1      46.323 -10.829   6.864  1.00  0.00     0.037 A 
HETATM   18  C   UNL     1      45.797 -10.595   8.137  1.00  0.00     0.018 A 
BRANCH  14  19
HETATM   19  O   UNL     1      42.207 -11.075   7.380  1.00  0.00    -0.360 OA
HETATM   20  H   UNL     1      41.992 -11.522   8.232  1.00  0.00     0.217 HD
ENDBRANCH  14  19
BRANCH  16  21
HETATM   21  O   UNL     1      46.033 -11.358   4.585  1.00  0.00    -0.361 OA
HETATM   22  H   UNL     1      45.413 -11.884   4.052  1.00  0.00     0.217 HD
ENDBRANCH  16  21
ENDBRANCH  12  13
ENDBRANCH   8  11
ENDBRANCH   4   7
BRANCH   1  23
HETATM   23  C   UNL     1      40.833  -7.633  17.260  1.00  0.00     0.171 C 
BRANCH  23  24
HETATM   24  N   UNL     1      40.458  -6.263  17.519  1.00  0.00    -0.309 N 
HETATM   25  C   UNL     1      39.470  -5.534  16.851  1.00  0.00     0.050 A 
HETATM   26  C   UNL     1      39.475  -4.267  17.388  1.00  0.00     0.017 A 
HETATM   27  C   UNL     1      38.578  -5.874  15.846  1.00  0.00     0.031 A 
HETATM   28  C   UNL     1      40.441  -4.194  18.374  1.00  0.00     0.045 A 
HETATM   29  C   UNL     1      38.650  -3.251  17.007  1.00  0.00    -0.023 A 
HETATM   30  C   UNL     1      40.627  -2.997  19.063  1.00  0.00     0.018 A 
HETATM   31  C   UNL     1      41.110  -5.474  18.498  1.00  0.00     0.259 A 
HETATM   32  C   UNL     1      39.797  -1.919  18.700  1.00  0.00     0.002 A 
HETATM   33  C   UNL     1      38.819  -2.032  17.689  1.00  0.00     0.012 A 
HETATM   34  O   UNL     1      42.007  -5.849  19.243  1.00  0.00    -0.267 OA
HETATM   35  C   UNL     1      37.734  -3.555  15.982  1.00  0.00     0.012 A 
HETATM   36  C   UNL     1      37.707  -4.850  15.418  1.00  0.00     0.003 A 
ENDBRANCH  23  24
ENDBRANCH   1  23
TORSDOF 7
ENDMDL
MODEL 9
REMARK VINA RESULT:      -8.4      6.253     10.588
REMARK  7 active torsions:
REMARK  status: ('A' for Active; 'I' for Inactive)
REMARK    1  A    between atoms: N_8  and  C_9 
REMARK    2  A    between atoms: C_9  and  C_10 
REMARK    3  A    between atoms: C_13  and  C_14 
REMARK       I    between atoms: C_14  and  N_15 
REMARK    4  A    between atoms: N_15  and  N_16 
REMARK    5  A    between atoms: C_17  and  C_18 
REMARK    6  A    between atoms: C_19  and  O_20 
REMARK    7  A    between atoms: C_22  and  O_23 
ROOT
HETATM    1  C   UNL     1      40.542 -12.946   3.866  1.00  0.00    -0.040 A 
HETATM    2  C   UNL     1      39.478 -12.446   3.100  1.00  0.00     0.010 A 
HETATM    3  C   UNL     1      39.658 -11.335   2.272  1.00  0.00     0.017 A 
HETATM    4  C   UNL     1      40.904 -10.703   2.193  1.00  0.00     0.033 A 
HETATM    5  C   UNL     1      41.976 -11.211   2.937  1.00  0.00     0.017 A 
HETATM    6  C   UNL     1      41.793 -12.320   3.770  1.00  0.00     0.010 A 
ENDROOT
BRANCH   4   7
HETATM    7  C   UNL     1      41.046  -9.536   1.273  1.00  0.00     0.271 C 
HETATM    8  N   UNL     1      42.092  -9.596   0.363  1.00  0.00    -0.243 N 
HETATM    9  H   UNL     1      42.779 -10.338   0.395  1.00  0.00     0.192 HD
HETATM   10  O   UNL     1      40.266  -8.592   1.369  1.00  0.00    -0.266 OA
BRANCH   8  11
HETATM   11  N   UNL     1      42.246  -8.581  -0.531  1.00  0.00    -0.183 NA
HETATM   12  C   UNL     1      41.866  -8.822  -1.745  1.00  0.00     0.153 C 
BRANCH  12  13
HETATM   13  C   UNL     1      41.978  -7.780  -2.785  1.00  0.00     0.016 A 
HETATM   14  C   UNL     1      41.664  -8.033  -4.129  1.00  0.00     0.080 A 
HETATM   15  C   UNL     1      41.790  -7.027  -5.083  1.00  0.00     0.074 A 
HETATM   16  C   UNL     1      42.235  -5.768  -4.690  1.00  0.00     0.068 A 
HETATM   17  C   UNL     1      42.551  -5.503  -3.361  1.00  0.00     0.037 A 
HETATM   18  C   UNL     1      42.422  -6.510  -2.401  1.00  0.00     0.018 A 
BRANCH  14  19
HETATM   19  O   UNL     1      41.224  -9.247  -4.584  1.00  0.00    -0.360 OA
HETATM   20  H   UNL     1      40.483  -9.098  -5.217  1.00  0.00     0.217 HD
ENDBRANCH  14  19
BRANCH  16  21
HETATM   21  O   UNL     1      42.378  -4.754  -5.590  1.00  0.00    -0.361 OA
HETATM   22  H   UNL     1      41.524  -4.610  -6.030  1.00  0.00     0.217 HD
ENDBRANCH  16  21
ENDBRANCH  12  13
ENDBRANCH   8  11
ENDBRANCH   4   7
BRANCH   1  23
HETATM   23  C   UNL     1      40.345 -14.165   4.740  1.00  0.00     0.171 C 
BRANCH  23  24
HETATM   24  N   UNL     1      41.207 -15.261   4.365  1.00  0.00    -0.309 N 
HETATM   25  C   UNL     1      42.353 -15.683   5.047  1.00  0.00     0.050 A 
HETATM   26  C   UNL     1      42.887 -16.726   4.325  1.00  0.00     0.017 A 
HETATM   27  C   UNL     1      42.951 -15.255   6.221  1.00  0.00     0.031 A 
HETATM   28  C   UNL     1      42.099 -16.962   3.214  1.00  0.00     0.045 A 
HETATM   29  C   UNL     1      44.013 -17.417   4.662  1.00  0.00    -0.023 A 
HETATM   30  C   UNL     1      42.447 -17.981   2.331  1.00  0.00     0.018 A 
HETATM   31  C   UNL     1      40.988 -16.030   3.197  1.00  0.00     0.259 A 
HETATM   32  C   UNL     1      43.606 -18.721   2.639  1.00  0.00     0.002 A 
HETATM   33  C   UNL     1      44.385 -18.452   3.785  1.00  0.00     0.012 A 
HETATM   34  O   UNL     1      40.058 -15.896   2.411  1.00  0.00    -0.267 OA
HETATM   35  C   UNL     1      44.654 -17.006   5.846  1.00  0.00     0.012 A 
HETATM   36  C   UNL     1      44.123 -15.941   6.607  1.00  0.00     0.003 A 
ENDBRANCH  23  24
ENDBRANCH   1  23
TORSDOF 7
ENDMDL
MODEL 10
REMARK VINA RESULT:      -8.4      1.500      2.342
REMARK  7 active torsions:
REMARK  status: ('A' for Active; 'I' for Inactive)
REMARK    1  A    between atoms: N_8  and  C_9 
REMARK    2  A    between atoms: C_9  and  C_10 
REMARK    3  A    between atoms: C_13  and  C_14 
REMARK       I    between atoms: C_14  and  N_15 
REMARK    4  A    between atoms: N_15  and  N_16 
REMARK    5  A    between atoms: C_17  and  C_18 
REMARK    6  A    between atoms: C_19  and  O_20 
REMARK    7  A    between atoms: C_22  and  O_23 
ROOT
HETATM    1  C   UNL     1      41.385  -9.320   7.098  1.00  0.00    -0.040 A 
HETATM    2  C   UNL     1      40.205 -10.078   7.086  1.00  0.00     0.010 A 
HETATM    3  C   UNL     1      40.181 -11.347   6.502  1.00  0.00     0.017 A 
HETATM    4  C   UNL     1      41.335 -11.883   5.920  1.00  0.00     0.033 A 
HETATM    5  C   UNL     1      42.522 -11.141   5.948  1.00  0.00     0.017 A 
HETATM    6  C   UNL     1      42.543  -9.867   6.528  1.00  0.00     0.010 A 
ENDROOT
BRANCH   4   7
HETATM    7  C   UNL     1      41.258 -13.253   5.333  1.00  0.00     0.271 C 
HETATM    8  N   UNL     1      42.383 -13.692   4.648  1.00  0.00    -0.243 N 
HETATM    9  H   UNL     1      43.166 -13.076   4.468  1.00  0.00     0.192 HD
HETATM   10  O   UNL     1      40.227 -13.909   5.461  1.00  0.00    -0.266 OA
BRANCH   8  11
HETATM   11  N   UNL     1      42.389 -14.950   4.128  1.00  0.00    -0.183 NA
HETATM   12  C   UNL     1      43.418 -15.683   4.408  1.00  0.00     0.153 C 
BRANCH  12  13
HETATM   13  C   UNL     1      43.511 -17.067   3.903  1.00  0.00     0.016 A 
HETATM   14  C   UNL     1      42.970 -17.446   2.666  1.00  0.00     0.080 A 
HETATM   15  C   UNL     1      43.071 -18.764   2.227  1.00  0.00     0.074 A 
HETATM   16  C   UNL     1      43.711 -19.702   3.031  1.00  0.00     0.068 A 
HETATM   17  C   UNL     1      44.253 -19.340   4.261  1.00  0.00     0.037 A 
HETATM   18  C   UNL     1      44.155 -18.018   4.702  1.00  0.00     0.018 A 
BRANCH  14  19
HETATM   19  O   UNL     1      42.324 -16.578   1.828  1.00  0.00    -0.360 OA
HETATM   20  H   UNL     1      41.408 -16.436   2.163  1.00  0.00     0.217 HD
ENDBRANCH  14  19
BRANCH  16  21
HETATM   21  O   UNL     1      43.830 -21.004   2.646  1.00  0.00    -0.361 OA
HETATM   22  H   UNL     1      44.324 -21.034   1.809  1.00  0.00     0.217 HD
ENDBRANCH  16  21
ENDBRANCH  12  13
ENDBRANCH   8  11
ENDBRANCH   4   7
BRANCH   1  23
HETATM   23  C   UNL     1      41.409  -7.958   7.754  1.00  0.00     0.171 C 
BRANCH  23  24
HETATM   24  N   UNL     1      41.598  -8.034   9.184  1.00  0.00    -0.309 N 
HETATM   25  C   UNL     1      40.605  -7.904  10.158  1.00  0.00     0.050 A 
HETATM   26  C   UNL     1      41.228  -8.002  11.382  1.00  0.00     0.017 A 
HETATM   27  C   UNL     1      39.233  -7.723  10.075  1.00  0.00     0.031 A 
HETATM   28  C   UNL     1      42.583  -8.192  11.188  1.00  0.00     0.045 A 
HETATM   29  C   UNL     1      40.600  -7.929  12.590  1.00  0.00    -0.023 A 
HETATM   30  C   UNL     1      43.422  -8.321  12.293  1.00  0.00     0.018 A 
HETATM   31  C   UNL     1      42.875  -8.221   9.768  1.00  0.00     0.259 A 
HETATM   32  C   UNL     1      42.815  -8.249  13.563  1.00  0.00     0.002 A 
HETATM   33  C   UNL     1      41.426  -8.057  13.721  1.00  0.00     0.012 A 
HETATM   34  O   UNL     1      43.928  -8.375   9.162  1.00  0.00    -0.267 OA
HETATM   35  C   UNL     1      39.206  -7.738  12.546  1.00  0.00     0.012 A 
HETATM   36  C   UNL     1      38.543  -7.639  11.303  1.00  0.00     0.003 A 
ENDBRANCH  23  24
ENDBRANCH   1  23
TORSDOF 7
ENDMDL
