MODEL 1
REMARK VINA RESULT:      -7.6      0.000      0.000
REMARK  8 active torsions:
REMARK  status: ('A' for Active; 'I' for Inactive)
REMARK    1  A    between atoms: C_2  and  N_3 
REMARK    2  A    between atoms: C_2  and  C_17 
REMARK    3  A    between atoms: N_3  and  C_6 
REMARK    4  A    between atoms: C_6  and  C_7 
REMARK    5  A    between atoms: C_7  and  O_8 
REMARK    6  A    between atoms: C_7  and  C_9 
REMARK    7  A    between atoms: C_11  and  O_12 
REMARK    8  A    between atoms: C_17  and  C_18 
ROOT
HETATM    1  N   UNL     1      40.828 -15.117   3.850  1.00  0.00    -0.068 N 
HETATM    2  H   UNL     1      41.374 -15.905   3.441  1.00  0.00     0.277 HD
HETATM    3  H   UNL     1      39.956 -15.570   4.176  1.00  0.00     0.277 HD
ENDROOT
BRANCH   1   4
HETATM    4  C   UNL     1      41.653 -14.541   4.967  1.00  0.00     0.188 C 
HETATM    5  C   UNL     1      41.185 -15.125   6.296  1.00  0.00     0.040 C 
BRANCH   4   6
HETATM    6  C   UNL     1      43.148 -14.850   4.735  1.00  0.00     0.099 C 
BRANCH   6   7
HETATM    7  C   UNL     1      43.367 -16.300   4.414  1.00  0.00     0.078 A 
HETATM    8  S   UNL     1      43.954 -17.380   5.602  1.00  0.00    -0.073 SA
HETATM    9  C   UNL     1      43.853 -18.677   4.475  1.00  0.00     0.035 A 
HETATM   10  C   UNL     1      43.372 -18.186   3.258  1.00  0.00     0.074 A 
HETATM   11  C   UNL     1      44.173 -20.032   4.655  1.00  0.00     0.021 A 
HETATM   12  N   UNL     1      43.096 -16.821   3.233  1.00  0.00    -0.245 NA
HETATM   13  C   UNL     1      43.207 -19.084   2.183  1.00  0.00     0.033 A 
HETATM   14  C   UNL     1      43.524 -20.435   2.353  1.00  0.00     0.002 A 
HETATM   15  C   UNL     1      44.001 -20.901   3.575  1.00  0.00     0.002 A 
ENDBRANCH   6   7
ENDBRANCH   4   6
ENDBRANCH   1   4
BRANCH   1  16
HETATM   16  C   UNL     1      40.441 -14.206   2.718  1.00  0.00     0.269 C 
BRANCH  16  17
HETATM   17  C   UNL     1      40.584 -14.999   1.402  1.00  0.00     0.177 C 
BRANCH  17  18
HETATM   18  O   UNL     1      39.531 -15.976   1.368  1.00  0.00    -0.389 OA
HETATM   19  H   UNL     1      39.965 -16.853   1.333  1.00  0.00     0.210 HD
ENDBRANCH  17  18
BRANCH  17  20
HETATM   20  C   UNL     1      40.544 -14.099   0.193  1.00  0.00    -0.025 A 
HETATM   21  C   UNL     1      40.030 -14.550  -1.039  1.00  0.00     0.046 A 
HETATM   22  C   UNL     1      39.971 -13.696  -2.143  1.00  0.00     0.068 A 
HETATM   23  C   UNL     1      40.407 -12.378  -2.010  1.00  0.00     0.037 A 
HETATM   24  C   UNL     1      40.914 -11.915  -0.797  1.00  0.00     0.003 A 
HETATM   25  C   UNL     1      40.983 -12.772   0.300  1.00  0.00     0.010 A 
BRANCH  22  26
HETATM   26  O   UNL     1      39.499 -14.019  -3.383  1.00  0.00    -0.356 OA
HETATM   27  C   UNL     1      38.198 -14.587  -3.460  1.00  0.00     0.210 C 
ENDBRANCH  22  26
ENDBRANCH  17  20
ENDBRANCH  16  17
ENDBRANCH   1  16
TORSDOF 8
ENDMDL
MODEL 2
REMARK VINA RESULT:      -7.5      3.003      7.753
REMARK  8 active torsions:
REMARK  status: ('A' for Active; 'I' for Inactive)
REMARK    1  A    between atoms: C_2  and  N_3 
REMARK    2  A    between atoms: C_2  and  C_17 
REMARK    3  A    between atoms: N_3  and  C_6 
REMARK    4  A    between atoms: C_6  and  C_7 
REMARK    5  A    between atoms: C_7  and  O_8 
REMARK    6  A    between atoms: C_7  and  C_9 
REMARK    7  A    between atoms: C_11  and  O_12 
REMARK    8  A    between atoms: C_17  and  C_18 
ROOT
HETATM    1  N   UNL     1      39.539 -14.596   2.544  1.00  0.00    -0.068 N 
HETATM    2  H   UNL     1      38.527 -14.829   2.632  1.00  0.00     0.277 HD
HETATM    3  H   UNL     1      39.734 -14.735   1.537  1.00  0.00     0.277 HD
ENDROOT
BRANCH   1   4
HETATM    4  C   UNL     1      39.705 -13.170   2.990  1.00  0.00     0.188 C 
HETATM    5  C   UNL     1      40.711 -13.110   4.134  1.00  0.00     0.040 C 
BRANCH   4   6
HETATM    6  C   UNL     1      40.177 -12.297   1.806  1.00  0.00     0.099 C 
BRANCH   6   7
HETATM    7  C   UNL     1      39.502 -12.694   0.526  1.00  0.00     0.078 A 
HETATM    8  S   UNL     1      38.200 -11.777  -0.098  1.00  0.00    -0.073 SA
HETATM    9  C   UNL     1      38.109 -12.829  -1.457  1.00  0.00     0.035 A 
HETATM   10  C   UNL     1      39.091 -13.815  -1.336  1.00  0.00     0.074 A 
HETATM   11  C   UNL     1      37.232 -12.783  -2.553  1.00  0.00     0.021 A 
HETATM   12  N   UNL     1      39.886 -13.729  -0.196  1.00  0.00    -0.245 NA
HETATM   13  C   UNL     1      39.200 -14.791  -2.348  1.00  0.00     0.033 A 
HETATM   14  C   UNL     1      38.330 -14.754  -3.444  1.00  0.00     0.002 A 
HETATM   15  C   UNL     1      37.361 -13.762  -3.542  1.00  0.00     0.002 A 
ENDBRANCH   6   7
ENDBRANCH   4   6
ENDBRANCH   1   4
BRANCH   1  16
HETATM   16  C   UNL     1      40.308 -15.658   3.281  1.00  0.00     0.269 C 
BRANCH  16  17
HETATM   17  C   UNL     1      41.205 -16.387   2.260  1.00  0.00     0.177 C 
BRANCH  17  18
HETATM   18  O   UNL     1      41.667 -15.409   1.312  1.00  0.00    -0.389 OA
HETATM   19  H   UNL     1      41.122 -14.608   1.450  1.00  0.00     0.210 HD
ENDBRANCH  17  18
BRANCH  17  20
HETATM   20  C   UNL     1      42.355 -17.100   2.925  1.00  0.00    -0.025 A 
HETATM   21  C   UNL     1      42.843 -16.689   4.182  1.00  0.00     0.046 A 
HETATM   22  C   UNL     1      43.889 -17.377   4.800  1.00  0.00     0.068 A 
HETATM   23  C   UNL     1      44.438 -18.495   4.171  1.00  0.00     0.037 A 
HETATM   24  C   UNL     1      43.964 -18.915   2.930  1.00  0.00     0.003 A 
HETATM   25  C   UNL     1      42.928 -18.221   2.309  1.00  0.00     0.010 A 
BRANCH  22  26
HETATM   26  O   UNL     1      44.446 -17.073   6.010  1.00  0.00    -0.356 OA
HETATM   27  C   UNL     1      43.576 -17.010   7.133  1.00  0.00     0.210 C 
ENDBRANCH  22  26
ENDBRANCH  17  20
ENDBRANCH  16  17
ENDBRANCH   1  16
TORSDOF 8
ENDMDL
MODEL 3
REMARK VINA RESULT:      -7.5      3.418      6.083
REMARK  8 active torsions:
REMARK  status: ('A' for Active; 'I' for Inactive)
REMARK    1  A    between atoms: C_2  and  N_3 
REMARK    2  A    between atoms: C_2  and  C_17 
REMARK    3  A    between atoms: N_3  and  C_6 
REMARK    4  A    between atoms: C_6  and  C_7 
REMARK    5  A    between atoms: C_7  and  O_8 
REMARK    6  A    between atoms: C_7  and  C_9 
REMARK    7  A    between atoms: C_11  and  O_12 
REMARK    8  A    between atoms: C_17  and  C_18 
ROOT
HETATM    1  N   UNL     1      39.278 -13.999   2.646  1.00  0.00    -0.068 N 
HETATM    2  H   UNL     1      38.241 -14.097   2.632  1.00  0.00     0.277 HD
HETATM    3  H   UNL     1      39.556 -14.488   3.515  1.00  0.00     0.277 HD
ENDROOT
BRANCH   1   4
HETATM    4  C   UNL     1      39.801 -14.659   1.400  1.00  0.00     0.188 C 
HETATM    5  C   UNL     1      40.841 -13.756   0.747  1.00  0.00     0.040 C 
BRANCH   4   6
HETATM    6  C   UNL     1      40.416 -16.032   1.747  1.00  0.00     0.099 C 
BRANCH   6   7
HETATM    7  C   UNL     1      41.185 -15.982   3.034  1.00  0.00     0.078 A 
HETATM    8  S   UNL     1      42.886 -15.799   3.031  1.00  0.00    -0.073 SA
HETATM    9  C   UNL     1      42.890 -15.796   4.752  1.00  0.00     0.035 A 
HETATM   10  C   UNL     1      41.577 -15.935   5.211  1.00  0.00     0.074 A 
HETATM   11  C   UNL     1      43.976 -15.676   5.633  1.00  0.00     0.021 A 
HETATM   12  N   UNL     1      40.607 -16.041   4.218  1.00  0.00    -0.245 NA
HETATM   13  C   UNL     1      41.344 -15.956   6.601  1.00  0.00     0.033 A 
HETATM   14  C   UNL     1      42.421 -15.838   7.487  1.00  0.00     0.002 A 
HETATM   15  C   UNL     1      43.719 -15.700   7.006  1.00  0.00     0.002 A 
ENDBRANCH   6   7
ENDBRANCH   4   6
ENDBRANCH   1   4
BRANCH   1  16
HETATM   16  C   UNL     1      39.587 -12.543   2.855  1.00  0.00     0.269 C 
BRANCH  16  17
HETATM   17  C   UNL     1      39.870 -12.329   4.356  1.00  0.00     0.177 C 
BRANCH  17  18
HETATM   18  O   UNL     1      39.314 -13.449   5.066  1.00  0.00    -0.389 OA
HETATM   19  H   UNL     1      39.410 -14.227   4.479  1.00  0.00     0.210 HD
ENDBRANCH  17  18
BRANCH  17  20
HETATM   20  C   UNL     1      41.343 -12.171   4.637  1.00  0.00    -0.025 A 
HETATM   21  C   UNL     1      41.849 -12.239   5.951  1.00  0.00     0.046 A 
HETATM   22  C   UNL     1      43.219 -12.120   6.193  1.00  0.00     0.068 A 
HETATM   23  C   UNL     1      44.092 -11.957   5.117  1.00  0.00     0.037 A 
HETATM   24  C   UNL     1      43.607 -11.892   3.813  1.00  0.00     0.003 A 
HETATM   25  C   UNL     1      42.239 -11.998   3.573  1.00  0.00     0.010 A 
BRANCH  22  26
HETATM   26  O   UNL     1      43.825 -12.167   7.417  1.00  0.00    -0.356 OA
HETATM   27  C   UNL     1      44.012 -10.934   8.101  1.00  0.00     0.210 C 
ENDBRANCH  22  26
ENDBRANCH  17  20
ENDBRANCH  16  17
ENDBRANCH   1  16
TORSDOF 8
ENDMDL
MODEL 4
REMARK VINA RESULT:      -7.4      3.355      6.756
REMARK  8 active torsions:
REMARK  status: ('A' for Active; 'I' for Inactive)
REMARK    1  A    between atoms: C_2  and  N_3 
REMARK    2  A    between atoms: C_2  and  C_17 
REMARK    3  A    between atoms: N_3  and  C_6 
REMARK    4  A    between atoms: C_6  and  C_7 
REMARK    5  A    between atoms: C_7  and  O_8 
REMARK    6  A    between atoms: C_7  and  C_9 
REMARK    7  A    between atoms: C_11  and  O_12 
REMARK    8  A    between atoms: C_17  and  C_18 
ROOT
HETATM    1  N   UNL     1      42.293 -13.430   6.773  1.00  0.00    -0.068 N 
HETATM    2  H   UNL     1      42.074 -13.276   7.779  1.00  0.00     0.277 HD
HETATM    3  H   UNL     1      41.436 -13.879   6.404  1.00  0.00     0.277 HD
ENDROOT
BRANCH   1   4
HETATM    4  C   UNL     1      42.564 -12.081   6.168  1.00  0.00     0.188 C 
HETATM    5  C   UNL     1      43.745 -12.183   5.210  1.00  0.00     0.040 C 
BRANCH   4   6
HETATM    6  C   UNL     1      41.308 -11.571   5.427  1.00  0.00     0.099 C 
BRANCH   6   7
HETATM    7  C   UNL     1      40.999 -12.411   4.222  1.00  0.00     0.078 A 
HETATM    8  S   UNL     1      41.218 -11.791   2.644  1.00  0.00    -0.073 SA
HETATM    9  C   UNL     1      40.719 -13.299   1.981  1.00  0.00     0.035 A 
HETATM   10  C   UNL     1      40.419 -14.178   3.025  1.00  0.00     0.074 A 
HETATM   11  C   UNL     1      40.603 -13.678   0.634  1.00  0.00     0.021 A 
HETATM   12  N   UNL     1      40.583 -13.660   4.307  1.00  0.00    -0.245 NA
HETATM   13  C   UNL     1      39.987 -15.483   2.709  1.00  0.00     0.033 A 
HETATM   14  C   UNL     1      39.868 -15.870   1.370  1.00  0.00     0.002 A 
HETATM   15  C   UNL     1      40.174 -14.977   0.348  1.00  0.00     0.002 A 
ENDBRANCH   6   7
ENDBRANCH   4   6
ENDBRANCH   1   4
BRANCH   1  16
HETATM   16  C   UNL     1      43.382 -14.464   6.704  1.00  0.00     0.269 C 
BRANCH  16  17
HETATM   17  C   UNL     1      42.717 -15.856   6.728  1.00  0.00     0.177 C 
BRANCH  17  18
HETATM   18  O   UNL     1      41.293 -15.656   6.738  1.00  0.00    -0.389 OA
HETATM   19  H   UNL     1      41.147 -14.689   6.679  1.00  0.00     0.210 HD
ENDBRANCH  17  18
BRANCH  17  20
HETATM   20  C   UNL     1      43.148 -16.709   5.562  1.00  0.00    -0.025 A 
HETATM   21  C   UNL     1      43.582 -18.036   5.746  1.00  0.00     0.046 A 
HETATM   22  C   UNL     1      43.950 -18.824   4.654  1.00  0.00     0.068 A 
HETATM   23  C   UNL     1      43.862 -18.292   3.367  1.00  0.00     0.037 A 
HETATM   24  C   UNL     1      43.430 -16.982   3.168  1.00  0.00     0.003 A 
HETATM   25  C   UNL     1      43.075 -16.193   4.260  1.00  0.00     0.010 A 
BRANCH  22  26
HETATM   26  O   UNL     1      44.388 -20.117   4.707  1.00  0.00    -0.356 OA
HETATM   27  C   UNL     1      43.934 -21.004   3.693  1.00  0.00     0.210 C 
ENDBRANCH  22  26
ENDBRANCH  17  20
ENDBRANCH  16  17
ENDBRANCH   1  16
TORSDOF 8
ENDMDL
MODEL 5
REMARK VINA RESULT:      -7.4      1.207      2.093
REMARK  8 active torsions:
REMARK  status: ('A' for Active; 'I' for Inactive)
REMARK    1  A    between atoms: C_2  and  N_3 
REMARK    2  A    between atoms: C_2  and  C_17 
REMARK    3  A    between atoms: N_3  and  C_6 
REMARK    4  A    between atoms: C_6  and  C_7 
REMARK    5  A    between atoms: C_7  and  O_8 
REMARK    6  A    between atoms: C_7  and  C_9 
REMARK    7  A    between atoms: C_11  and  O_12 
REMARK    8  A    between atoms: C_17  and  C_18 
ROOT
HETATM    1  N   UNL     1      40.883 -13.559   3.449  1.00  0.00    -0.068 N 
HETATM    2  H   UNL     1      40.521 -14.071   4.281  1.00  0.00     0.277 HD
HETATM    3  H   UNL     1      40.899 -12.571   3.759  1.00  0.00     0.277 HD
ENDROOT
BRANCH   1   4
HETATM    4  C   UNL     1      42.249 -14.111   3.149  1.00  0.00     0.188 C 
HETATM    5  C   UNL     1      43.153 -12.986   2.656  1.00  0.00     0.040 C 
BRANCH   4   6
HETATM    6  C   UNL     1      42.843 -14.768   4.415  1.00  0.00     0.099 C 
BRANCH   6   7
HETATM    7  C   UNL     1      43.151 -16.219   4.189  1.00  0.00     0.078 A 
HETATM    8  S   UNL     1      43.808 -17.180   5.442  1.00  0.00    -0.073 SA
HETATM    9  C   UNL     1      43.784 -18.552   4.404  1.00  0.00     0.035 A 
HETATM   10  C   UNL     1      43.269 -18.174   3.161  1.00  0.00     0.074 A 
HETATM   11  C   UNL     1      44.190 -19.870   4.672  1.00  0.00     0.021 A 
HETATM   12  N   UNL     1      42.909 -16.835   3.047  1.00  0.00    -0.245 NA
HETATM   13  C   UNL     1      43.158 -19.150   2.149  1.00  0.00     0.033 A 
HETATM   14  C   UNL     1      43.560 -20.465   2.406  1.00  0.00     0.002 A 
HETATM   15  C   UNL     1      44.068 -20.818   3.652  1.00  0.00     0.002 A 
ENDBRANCH   6   7
ENDBRANCH   4   6
ENDBRANCH   1   4
BRANCH   1  16
HETATM   16  C   UNL     1      39.835 -13.654   2.375  1.00  0.00     0.269 C 
BRANCH  16  17
HETATM   17  C   UNL     1      40.349 -14.629   1.296  1.00  0.00     0.177 C 
BRANCH  17  18
HETATM   18  O   UNL     1      39.592 -15.846   1.416  1.00  0.00    -0.389 OA
HETATM   19  H   UNL     1      39.725 -16.168   2.331  1.00  0.00     0.210 HD
ENDBRANCH  17  18
BRANCH  17  20
HETATM   20  C   UNL     1      40.243 -14.046  -0.090  1.00  0.00    -0.025 A 
HETATM   21  C   UNL     1      40.869 -12.828  -0.423  1.00  0.00     0.046 A 
HETATM   22  C   UNL     1      40.787 -12.315  -1.719  1.00  0.00     0.068 A 
HETATM   23  C   UNL     1      40.095 -13.032  -2.695  1.00  0.00     0.037 A 
HETATM   24  C   UNL     1      39.474 -14.239  -2.383  1.00  0.00     0.003 A 
HETATM   25  C   UNL     1      39.546 -14.745  -1.087  1.00  0.00     0.010 A 
BRANCH  22  26
HETATM   26  O   UNL     1      41.347 -11.149  -2.157  1.00  0.00    -0.356 OA
HETATM   27  C   UNL     1      41.570 -10.127  -1.194  1.00  0.00     0.210 C 
ENDBRANCH  22  26
ENDBRANCH  17  20
ENDBRANCH  16  17
ENDBRANCH   1  16
TORSDOF 8
ENDMDL
MODEL 6
REMARK VINA RESULT:      -7.3      5.077      7.964
REMARK  8 active torsions:
REMARK  status: ('A' for Active; 'I' for Inactive)
REMARK    1  A    between atoms: C_2  and  N_3 
REMARK    2  A    between atoms: C_2  and  C_17 
REMARK    3  A    between atoms: N_3  and  C_6 
REMARK    4  A    between atoms: C_6  and  C_7 
REMARK    5  A    between atoms: C_7  and  O_8 
REMARK    6  A    between atoms: C_7  and  C_9 
REMARK    7  A    between atoms: C_11  and  O_12 
REMARK    8  A    between atoms: C_17  and  C_18 
ROOT
HETATM    1  N   UNL     1      43.688 -12.324   4.348  1.00  0.00    -0.068 N 
HETATM    2  H   UNL     1      44.682 -12.545   4.127  1.00  0.00     0.277 HD
HETATM    3  H   UNL     1      43.365 -11.800   3.516  1.00  0.00     0.277 HD
ENDROOT
BRANCH   1   4
HETATM    4  C   UNL     1      42.976 -13.635   4.539  1.00  0.00     0.188 C 
HETATM    5  C   UNL     1      41.654 -13.393   5.260  1.00  0.00     0.040 C 
BRANCH   4   6
HETATM    6  C   UNL     1      42.732 -14.308   3.171  1.00  0.00     0.099 C 
BRANCH   6   7
HETATM    7  C   UNL     1      42.985 -15.786   3.231  1.00  0.00     0.078 A 
HETATM    8  S   UNL     1      42.750 -16.771   1.853  1.00  0.00    -0.073 SA
HETATM    9  C   UNL     1      43.272 -18.147   2.745  1.00  0.00     0.035 A 
HETATM   10  C   UNL     1      43.593 -17.750   4.047  1.00  0.00     0.074 A 
HETATM   11  C   UNL     1      43.391 -19.481   2.324  1.00  0.00     0.021 A 
HETATM   12  N   UNL     1      43.425 -16.395   4.316  1.00  0.00    -0.245 NA
HETATM   13  C   UNL     1      44.048 -18.725   4.958  1.00  0.00     0.033 A 
HETATM   14  C   UNL     1      44.170 -20.057   4.548  1.00  0.00     0.002 A 
HETATM   15  C   UNL     1      43.845 -20.427   3.247  1.00  0.00     0.002 A 
ENDBRANCH   6   7
ENDBRANCH   4   6
ENDBRANCH   1   4
BRANCH   1  16
HETATM   16  C   UNL     1      43.691 -11.351   5.495  1.00  0.00     0.269 C 
BRANCH  16  17
HETATM   17  C   UNL     1      45.025 -11.515   6.252  1.00  0.00     0.177 C 
BRANCH  17  18
HETATM   18  O   UNL     1      46.074 -11.047   5.388  1.00  0.00    -0.389 OA
HETATM   19  H   UNL     1      46.446 -11.838   4.946  1.00  0.00     0.210 HD
ENDBRANCH  17  18
BRANCH  17  20
HETATM   20  C   UNL     1      45.022 -10.779   7.568  1.00  0.00    -0.025 A 
HETATM   21  C   UNL     1      44.040 -11.031   8.546  1.00  0.00     0.046 A 
HETATM   22  C   UNL     1      44.067 -10.363   9.772  1.00  0.00     0.068 A 
HETATM   23  C   UNL     1      45.093  -9.455  10.033  1.00  0.00     0.037 A 
HETATM   24  C   UNL     1      46.074  -9.198   9.077  1.00  0.00     0.003 A 
HETATM   25  C   UNL     1      46.039  -9.856   7.850  1.00  0.00     0.010 A 
BRANCH  22  26
HETATM   26  O   UNL     1      43.172 -10.521  10.792  1.00  0.00    -0.356 OA
HETATM   27  C   UNL     1      43.275  -9.631  11.896  1.00  0.00     0.210 C 
ENDBRANCH  22  26
ENDBRANCH  17  20
ENDBRANCH  16  17
ENDBRANCH   1  16
TORSDOF 8
ENDMDL
MODEL 7
REMARK VINA RESULT:      -7.2      3.145      7.914
REMARK  8 active torsions:
REMARK  status: ('A' for Active; 'I' for Inactive)
REMARK    1  A    between atoms: C_2  and  N_3 
REMARK    2  A    between atoms: C_2  and  C_17 
REMARK    3  A    between atoms: N_3  and  C_6 
REMARK    4  A    between atoms: C_6  and  C_7 
REMARK    5  A    between atoms: C_7  and  O_8 
REMARK    6  A    between atoms: C_7  and  C_9 
REMARK    7  A    between atoms: C_11  and  O_12 
REMARK    8  A    between atoms: C_17  and  C_18 
ROOT
HETATM    1  N   UNL     1      41.817 -16.414   4.225  1.00  0.00    -0.068 N 
HETATM    2  H   UNL     1      40.833 -16.403   4.567  1.00  0.00     0.277 HD
HETATM    3  H   UNL     1      42.001 -17.416   4.046  1.00  0.00     0.277 HD
ENDROOT
BRANCH   1   4
HETATM    4  C   UNL     1      41.862 -15.569   2.982  1.00  0.00     0.188 C 
HETATM    5  C   UNL     1      42.676 -16.287   1.911  1.00  0.00     0.040 C 
BRANCH   4   6
HETATM    6  C   UNL     1      40.429 -15.292   2.479  1.00  0.00     0.099 C 
BRANCH   6   7
HETATM    7  C   UNL     1      40.435 -14.483   1.215  1.00  0.00     0.078 A 
HETATM    8  S   UNL     1      41.093 -12.905   1.190  1.00  0.00    -0.073 SA
HETATM    9  C   UNL     1      40.748 -12.787  -0.492  1.00  0.00     0.035 A 
HETATM   10  C   UNL     1      40.149 -13.975  -0.919  1.00  0.00     0.074 A 
HETATM   11  C   UNL     1      40.993 -11.720  -1.372  1.00  0.00     0.021 A 
HETATM   12  N   UNL     1      39.973 -14.942   0.068  1.00  0.00    -0.245 NA
HETATM   13  C   UNL     1      39.780 -14.099  -2.274  1.00  0.00     0.033 A 
HETATM   14  C   UNL     1      40.019 -13.042  -3.158  1.00  0.00     0.002 A 
HETATM   15  C   UNL     1      40.618 -11.869  -2.710  1.00  0.00     0.002 A 
ENDBRANCH   6   7
ENDBRANCH   4   6
ENDBRANCH   1   4
BRANCH   1  16
HETATM   16  C   UNL     1      42.696 -16.016   5.379  1.00  0.00     0.269 C 
BRANCH  16  17
HETATM   17  C   UNL     1      44.048 -16.741   5.216  1.00  0.00     0.177 C 
BRANCH  17  18
HETATM   18  O   UNL     1      44.884 -16.354   6.320  1.00  0.00    -0.389 OA
HETATM   19  H   UNL     1      44.287 -15.995   7.009  1.00  0.00     0.210 HD
ENDBRANCH  17  18
BRANCH  17  20
HETATM   20  C   UNL     1      43.882 -18.238   5.145  1.00  0.00    -0.025 A 
HETATM   21  C   UNL     1      44.044 -18.936   3.932  1.00  0.00     0.046 A 
HETATM   22  C   UNL     1      43.917 -20.326   3.887  1.00  0.00     0.068 A 
HETATM   23  C   UNL     1      43.649 -21.026   5.063  1.00  0.00     0.037 A 
HETATM   24  C   UNL     1      43.490 -20.350   6.271  1.00  0.00     0.003 A 
HETATM   25  C   UNL     1      43.606 -18.962   6.313  1.00  0.00     0.010 A 
BRANCH  22  26
HETATM   26  O   UNL     1      44.048 -21.109   2.775  1.00  0.00    -0.356 OA
HETATM   27  C   UNL     1      43.558 -20.587   1.546  1.00  0.00     0.210 C 
ENDBRANCH  22  26
ENDBRANCH  17  20
ENDBRANCH  16  17
ENDBRANCH   1  16
TORSDOF 8
ENDMDL
MODEL 8
REMARK VINA RESULT:      -7.2      2.853      5.667
REMARK  8 active torsions:
REMARK  status: ('A' for Active; 'I' for Inactive)
REMARK    1  A    between atoms: C_2  and  N_3 
REMARK    2  A    between atoms: C_2  and  C_17 
REMARK    3  A    between atoms: N_3  and  C_6 
REMARK    4  A    between atoms: C_6  and  C_7 
REMARK    5  A    between atoms: C_7  and  O_8 
REMARK    6  A    between atoms: C_7  and  C_9 
REMARK    7  A    between atoms: C_11  and  O_12 
REMARK    8  A    between atoms: C_17  and  C_18 
ROOT
HETATM    1  N   UNL     1      41.230 -13.887   2.790  1.00  0.00    -0.068 N 
HETATM    2  H   UNL     1      42.065 -13.858   3.411  1.00  0.00     0.277 HD
HETATM    3  H   UNL     1      41.229 -12.954   2.340  1.00  0.00     0.277 HD
ENDROOT
BRANCH   1   4
HETATM    4  C   UNL     1      41.440 -15.015   1.818  1.00  0.00     0.188 C 
HETATM    5  C   UNL     1      40.911 -14.608   0.447  1.00  0.00     0.040 C 
BRANCH   4   6
HETATM    6  C   UNL     1      42.941 -15.371   1.737  1.00  0.00     0.099 C 
BRANCH   6   7
HETATM    7  C   UNL     1      43.246 -16.644   2.470  1.00  0.00     0.078 A 
HETATM    8  S   UNL     1      43.598 -16.627   4.143  1.00  0.00    -0.073 SA
HETATM    9  C   UNL     1      43.751 -18.341   4.129  1.00  0.00     0.035 A 
HETATM   10  C   UNL     1      43.517 -18.809   2.833  1.00  0.00     0.074 A 
HETATM   11  C   UNL     1      44.052 -19.211   5.190  1.00  0.00     0.021 A 
HETATM   12  N   UNL     1      43.229 -17.828   1.888  1.00  0.00    -0.245 NA
HETATM   13  C   UNL     1      43.589 -20.196   2.590  1.00  0.00     0.033 A 
HETATM   14  C   UNL     1      43.889 -21.070   3.640  1.00  0.00     0.002 A 
HETATM   15  C   UNL     1      44.117 -20.581   4.922  1.00  0.00     0.002 A 
ENDBRANCH   6   7
ENDBRANCH   4   6
ENDBRANCH   1   4
BRANCH   1  16
HETATM   16  C   UNL     1      40.015 -13.938   3.675  1.00  0.00     0.269 C 
BRANCH  16  17
HETATM   17  C   UNL     1      40.220 -12.923   4.819  1.00  0.00     0.177 C 
BRANCH  17  18
HETATM   18  O   UNL     1      39.174 -13.138   5.782  1.00  0.00    -0.389 OA
HETATM   19  H   UNL     1      38.327 -13.032   5.302  1.00  0.00     0.210 HD
ENDBRANCH  17  18
BRANCH  17  20
HETATM   20  C   UNL     1      41.585 -13.047   5.447  1.00  0.00    -0.025 A 
HETATM   21  C   UNL     1      42.596 -12.099   5.196  1.00  0.00     0.046 A 
HETATM   22  C   UNL     1      43.846 -12.210   5.809  1.00  0.00     0.068 A 
HETATM   23  C   UNL     1      44.082 -13.262   6.695  1.00  0.00     0.037 A 
HETATM   24  C   UNL     1      43.090 -14.205   6.956  1.00  0.00     0.003 A 
HETATM   25  C   UNL     1      41.848 -14.100   6.336  1.00  0.00     0.010 A 
BRANCH  22  26
HETATM   26  O   UNL     1      44.901 -11.358   5.642  1.00  0.00    -0.356 OA
HETATM   27  C   UNL     1      45.699 -11.073   6.783  1.00  0.00     0.210 C 
ENDBRANCH  22  26
ENDBRANCH  17  20
ENDBRANCH  16  17
ENDBRANCH   1  16
TORSDOF 8
ENDMDL
MODEL 9
REMARK VINA RESULT:      -7.2      4.502      6.770
REMARK  8 active torsions:
REMARK  status: ('A' for Active; 'I' for Inactive)
REMARK    1  A    between atoms: C_2  and  N_3 
REMARK    2  A    between atoms: C_2  and  C_17 
REMARK    3  A    between atoms: N_3  and  C_6 
REMARK    4  A    between atoms: C_6  and  C_7 
REMARK    5  A    between atoms: C_7  and  O_8 
REMARK    6  A    between atoms: C_7  and  C_9 
REMARK    7  A    between atoms: C_11  and  O_12 
REMARK    8  A    between atoms: C_17  and  C_18 
ROOT
HETATM    1  N   UNL     1      41.559 -13.350   4.996  1.00  0.00    -0.068 N 
HETATM    2  H   UNL     1      42.464 -13.606   4.547  1.00  0.00     0.277 HD
HETATM    3  H   UNL     1      40.849 -13.734   4.348  1.00  0.00     0.277 HD
ENDROOT
BRANCH   1   4
HETATM    4  C   UNL     1      41.540 -13.998   6.353  1.00  0.00     0.188 C 
HETATM    5  C   UNL     1      40.508 -15.121   6.363  1.00  0.00     0.040 C 
BRANCH   4   6
HETATM    6  C   UNL     1      42.942 -14.547   6.696  1.00  0.00     0.099 C 
BRANCH   6   7
HETATM    7  C   UNL     1      43.226 -15.829   5.969  1.00  0.00     0.078 A 
HETATM    8  S   UNL     1      43.581 -17.263   6.830  1.00  0.00    -0.073 SA
HETATM    9  C   UNL     1      43.703 -18.125   5.345  1.00  0.00     0.035 A 
HETATM   10  C   UNL     1      43.460 -17.245   4.286  1.00  0.00     0.074 A 
HETATM   11  C   UNL     1      43.991 -19.483   5.132  1.00  0.00     0.021 A 
HETATM   12  N   UNL     1      43.187 -15.931   4.654  1.00  0.00    -0.245 NA
HETATM   13  C   UNL     1      43.507 -17.743   2.968  1.00  0.00     0.033 A 
HETATM   14  C   UNL     1      43.793 -19.094   2.745  1.00  0.00     0.002 A 
HETATM   15  C   UNL     1      44.031 -19.950   3.816  1.00  0.00     0.002 A 
ENDBRANCH   6   7
ENDBRANCH   4   6
ENDBRANCH   1   4
BRANCH   1  16
HETATM   16  C   UNL     1      41.435 -11.853   4.930  1.00  0.00     0.269 C 
BRANCH  16  17
HETATM   17  C   UNL     1      42.823 -11.277   4.584  1.00  0.00     0.177 C 
BRANCH  17  18
HETATM   18  O   UNL     1      42.617 -10.042   3.878  1.00  0.00    -0.389 OA
HETATM   19  H   UNL     1      43.156  -9.365   4.336  1.00  0.00     0.210 HD
ENDBRANCH  17  18
BRANCH  17  20
HETATM   20  C   UNL     1      43.674 -11.076   5.813  1.00  0.00    -0.025 A 
HETATM   21  C   UNL     1      43.117 -10.616   7.023  1.00  0.00     0.046 A 
HETATM   22  C   UNL     1      43.912 -10.464   8.161  1.00  0.00     0.068 A 
HETATM   23  C   UNL     1      45.266 -10.793   8.098  1.00  0.00     0.037 A 
HETATM   24  C   UNL     1      45.831 -11.253   6.910  1.00  0.00     0.003 A 
HETATM   25  C   UNL     1      45.039 -11.394   5.772  1.00  0.00     0.010 A 
BRANCH  22  26
HETATM   26  O   UNL     1      43.487 -10.025   9.383  1.00  0.00    -0.356 OA
HETATM   27  C   UNL     1      44.414 -10.092  10.460  1.00  0.00     0.210 C 
ENDBRANCH  22  26
ENDBRANCH  17  20
ENDBRANCH  16  17
ENDBRANCH   1  16
TORSDOF 8
ENDMDL
MODEL 10
REMARK VINA RESULT:      -7.2      2.636      7.074
REMARK  8 active torsions:
REMARK  status: ('A' for Active; 'I' for Inactive)
REMARK    1  A    between atoms: C_2  and  N_3 
REMARK    2  A    between atoms: C_2  and  C_17 
REMARK    3  A    between atoms: N_3  and  C_6 
REMARK    4  A    between atoms: C_6  and  C_7 
REMARK    5  A    between atoms: C_7  and  O_8 
REMARK    6  A    between atoms: C_7  and  C_9 
REMARK    7  A    between atoms: C_11  and  O_12 
REMARK    8  A    between atoms: C_17  and  C_18 
ROOT
HETATM    1  N   UNL     1      42.232 -12.881   3.874  1.00  0.00    -0.068 N 
HETATM    2  H   UNL     1      42.239 -11.941   3.426  1.00  0.00     0.277 HD
HETATM    3  H   UNL     1      42.635 -12.706   4.812  1.00  0.00     0.277 HD
ENDROOT
BRANCH   1   4
HETATM    4  C   UNL     1      40.801 -13.340   3.919  1.00  0.00     0.188 C 
HETATM    5  C   UNL     1      40.361 -13.488   5.371  1.00  0.00     0.040 C 
BRANCH   4   6
HETATM    6  C   UNL     1      39.898 -12.327   3.179  1.00  0.00     0.099 C 
BRANCH   6   7
HETATM    7  C   UNL     1      40.057 -12.431   1.691  1.00  0.00     0.078 A 
HETATM    8  S   UNL     1      40.808 -11.178   0.802  1.00  0.00    -0.073 SA
HETATM    9  C   UNL     1      40.612 -12.087  -0.646  1.00  0.00     0.035 A 
HETATM   10  C   UNL     1      39.981 -13.297  -0.343  1.00  0.00     0.074 A 
HETATM   11  C   UNL     1      40.991 -11.755  -1.957  1.00  0.00     0.021 A 
HETATM   12  N   UNL     1      39.667 -13.486   1.000  1.00  0.00    -0.245 NA
HETATM   13  C   UNL     1      39.720 -14.206  -1.389  1.00  0.00     0.033 A 
HETATM   14  C   UNL     1      40.094 -13.884  -2.698  1.00  0.00     0.002 A 
HETATM   15  C   UNL     1      40.722 -12.674  -2.975  1.00  0.00     0.002 A 
ENDBRANCH   6   7
ENDBRANCH   4   6
ENDBRANCH   1   4
BRANCH   1  16
HETATM   16  C   UNL     1      43.223 -13.737   3.135  1.00  0.00     0.269 C 
BRANCH  16  17
HETATM   17  C   UNL     1      42.468 -14.962   2.578  1.00  0.00     0.177 C 
BRANCH  17  18
HETATM   18  O   UNL     1      42.584 -14.930   1.146  1.00  0.00    -0.389 OA
HETATM   19  H   UNL     1      43.513 -15.160   0.936  1.00  0.00     0.210 HD
ENDBRANCH  17  18
BRANCH  17  20
HETATM   20  C   UNL     1      42.993 -16.256   3.147  1.00  0.00    -0.025 A 
HETATM   21  C   UNL     1      42.998 -17.442   2.386  1.00  0.00     0.046 A 
HETATM   22  C   UNL     1      43.515 -18.627   2.915  1.00  0.00     0.068 A 
HETATM   23  C   UNL     1      44.051 -18.623   4.203  1.00  0.00     0.037 A 
HETATM   24  C   UNL     1      44.056 -17.457   4.967  1.00  0.00     0.003 A 
HETATM   25  C   UNL     1      43.530 -16.279   4.442  1.00  0.00     0.010 A 
BRANCH  22  26
HETATM   26  O   UNL     1      43.572 -19.833   2.278  1.00  0.00    -0.356 OA
HETATM   27  C   UNL     1      43.950 -20.965   3.051  1.00  0.00     0.210 C 
ENDBRANCH  22  26
ENDBRANCH  17  20
ENDBRANCH  16  17
ENDBRANCH   1  16
TORSDOF 8
ENDMDL
