MODEL 1
REMARK VINA RESULT:      -9.2      0.000      0.000
REMARK  8 active torsions:
REMARK  status: ('A' for Active; 'I' for Inactive)
REMARK    1  A    between atoms: C_2  and  N_3 
REMARK    2  A    between atoms: C_2  and  C_23 
REMARK       I    between atoms: N_3  and  C_4 
REMARK    3  A    between atoms: N_3  and  C_16 
REMARK    4  A    between atoms: C_4  and  C_5 
REMARK    5  A    between atoms: C_5  and  N_6 
REMARK    6  A    between atoms: C_16  and  C_17 
REMARK       I    between atoms: C_23  and  N_24 
REMARK    7  A    between atoms: N_24  and  C_25 
REMARK    8  A    between atoms: C_28  and  O_29 
ROOT
HETATM    1  N   UNL     1      41.626 -15.096   3.521  1.00  0.00    -0.333 N 
HETATM    2  C   UNL     1      40.730 -14.834   2.484  1.00  0.00     0.240 C 
HETATM    3  O   UNL     1      39.585 -14.441   2.729  1.00  0.00    -0.271 OA
ENDROOT
BRANCH   1   4
HETATM    4  C   UNL     1      41.133 -14.966   4.918  1.00  0.00     0.176 C 
HETATM    5  C   UNL     1      40.594 -16.281   5.485  1.00  0.00     0.042 C 
BRANCH   4   6
HETATM    6  C   UNL     1      42.083 -14.265   5.934  1.00  0.00     0.244 C 
HETATM    7  N   UNL     1      42.495 -12.996   5.557  1.00  0.00    -0.325 N 
HETATM    8  H   UNL     1      42.289 -12.713   4.605  1.00  0.00     0.169 HD
HETATM    9  O   UNL     1      42.285 -14.778   7.035  1.00  0.00    -0.271 OA
BRANCH   7  10
HETATM   10  C   UNL     1      43.303 -12.108   6.305  1.00  0.00     0.035 A 
HETATM   11  C   UNL     1      44.659 -12.315   6.564  1.00  0.00     0.032 A 
HETATM   12  C   UNL     1      45.395 -11.383   7.304  1.00  0.00     0.039 A 
HETATM   13  C   UNL     1      44.795 -10.221   7.785  1.00  0.00     0.068 A 
HETATM   14  C   UNL     1      43.438 -10.012   7.548  1.00  0.00     0.039 A 
HETATM   15  C   UNL     1      42.698 -10.951   6.814  1.00  0.00     0.032 A 
BRANCH  13  16
HETATM   16  O   UNL     1      45.625  -9.390   8.485  1.00  0.00    -0.356 OA
HETATM   17  C   UNL     1      45.411  -9.328   9.889  1.00  0.00     0.210 C 
ENDBRANCH  13  16
ENDBRANCH   7  10
ENDBRANCH   4   6
ENDBRANCH   1   4
BRANCH   1  18
HETATM   18  C   UNL     1      43.039 -15.472   3.347  1.00  0.00     0.165 C 
BRANCH  18  19
HETATM   19  C   UNL     1      43.330 -16.954   3.370  1.00  0.00    -0.040 A 
HETATM   20  C   UNL     1      43.020 -17.798   2.294  1.00  0.00     0.009 A 
HETATM   21  C   UNL     1      43.313 -19.163   2.347  1.00  0.00     0.001 A 
HETATM   22  C   UNL     1      43.934 -19.702   3.471  1.00  0.00     0.000 A 
HETATM   23  C   UNL     1      44.274 -18.874   4.537  1.00  0.00     0.001 A 
HETATM   24  C   UNL     1      43.985 -17.510   4.481  1.00  0.00     0.009 A 
ENDBRANCH  18  19
ENDBRANCH   1  18
BRANCH   2  25
HETATM   25  C   UNL     1      41.139 -14.995   1.033  1.00  0.00     0.250 C 
BRANCH  25  26
HETATM   26  N   UNL     1      40.775 -13.886   0.180  1.00  0.00    -0.263 N 
HETATM   27  N   UNL     1      41.210 -12.634   0.438  1.00  0.00     0.006 NA
HETATM   28  N   UNL     1      40.632 -11.822  -0.438  1.00  0.00    -0.158 NA
HETATM   29  C   UNL     1      39.859 -12.579  -1.277  1.00  0.00     0.102 A 
HETATM   30  C   UNL     1      39.950 -13.919  -0.916  1.00  0.00     0.079 A 
HETATM   31  C   UNL     1      39.043 -12.210  -2.356  1.00  0.00     0.035 A 
HETATM   32  C   UNL     1      39.273 -14.939  -1.593  1.00  0.00     0.033 A 
HETATM   33  C   UNL     1      38.465 -14.553  -2.669  1.00  0.00     0.002 A 
HETATM   34  C   UNL     1      38.347 -13.213  -3.044  1.00  0.00     0.002 A 
ENDBRANCH  25  26
ENDBRANCH   2  25
TORSDOF 8
ENDMDL
MODEL 2
REMARK VINA RESULT:      -8.8      0.994      1.815
REMARK  8 active torsions:
REMARK  status: ('A' for Active; 'I' for Inactive)
REMARK    1  A    between atoms: C_2  and  N_3 
REMARK    2  A    between atoms: C_2  and  C_23 
REMARK       I    between atoms: N_3  and  C_4 
REMARK    3  A    between atoms: N_3  and  C_16 
REMARK    4  A    between atoms: C_4  and  C_5 
REMARK    5  A    between atoms: C_5  and  N_6 
REMARK    6  A    between atoms: C_16  and  C_17 
REMARK       I    between atoms: C_23  and  N_24 
REMARK    7  A    between atoms: N_24  and  C_25 
REMARK    8  A    between atoms: C_28  and  O_29 
ROOT
HETATM    1  N   UNL     1      41.644 -15.072   3.384  1.00  0.00    -0.333 N 
HETATM    2  C   UNL     1      40.722 -14.822   2.367  1.00  0.00     0.240 C 
HETATM    3  O   UNL     1      39.584 -14.425   2.637  1.00  0.00    -0.271 OA
ENDROOT
BRANCH   1   4
HETATM    4  C   UNL     1      41.188 -14.926   4.791  1.00  0.00     0.176 C 
HETATM    5  C   UNL     1      40.615 -16.221   5.370  1.00  0.00     0.042 C 
BRANCH   4   6
HETATM    6  C   UNL     1      42.185 -14.260   5.785  1.00  0.00     0.244 C 
HETATM    7  N   UNL     1      42.473 -12.932   5.510  1.00  0.00    -0.325 N 
HETATM    8  H   UNL     1      42.156 -12.572   4.616  1.00  0.00     0.169 HD
HETATM    9  O   UNL     1      42.528 -14.864   6.803  1.00  0.00    -0.271 OA
BRANCH   7  10
HETATM   10  C   UNL     1      43.290 -12.064   6.271  1.00  0.00     0.035 A 
HETATM   11  C   UNL     1      44.639 -12.299   6.543  1.00  0.00     0.032 A 
HETATM   12  C   UNL     1      45.385 -11.385   7.296  1.00  0.00     0.039 A 
HETATM   13  C   UNL     1      44.803 -10.216   7.779  1.00  0.00     0.068 A 
HETATM   14  C   UNL     1      43.452  -9.979   7.531  1.00  0.00     0.039 A 
HETATM   15  C   UNL     1      42.702 -10.900   6.782  1.00  0.00     0.032 A 
BRANCH  13  16
HETATM   16  O   UNL     1      45.641  -9.405   8.493  1.00  0.00    -0.356 OA
HETATM   17  C   UNL     1      45.407  -9.339   9.894  1.00  0.00     0.210 C 
ENDBRANCH  13  16
ENDBRANCH   7  10
ENDBRANCH   4   6
ENDBRANCH   1   4
BRANCH   1  18
HETATM   18  C   UNL     1      43.052 -15.451   3.177  1.00  0.00     0.165 C 
BRANCH  18  19
HETATM   19  C   UNL     1      43.353 -16.930   3.266  1.00  0.00    -0.040 A 
HETATM   20  C   UNL     1      43.922 -17.514   4.406  1.00  0.00     0.009 A 
HETATM   21  C   UNL     1      44.176 -18.887   4.456  1.00  0.00     0.001 A 
HETATM   22  C   UNL     1      43.853 -19.698   3.371  1.00  0.00     0.000 A 
HETATM   23  C   UNL     1      43.262 -19.139   2.242  1.00  0.00     0.001 A 
HETATM   24  C   UNL     1      43.003 -17.768   2.195  1.00  0.00     0.009 A 
ENDBRANCH  18  19
ENDBRANCH   1  18
BRANCH   2  25
HETATM   25  C   UNL     1      41.093 -15.001   0.908  1.00  0.00     0.250 C 
BRANCH  25  26
HETATM   26  N   UNL     1      40.351 -14.163  -0.008  1.00  0.00    -0.263 N 
HETATM   27  N   UNL     1      39.476 -14.695  -0.888  1.00  0.00     0.006 NA
HETATM   28  N   UNL     1      39.038 -13.709  -1.661  1.00  0.00    -0.158 NA
HETATM   29  C   UNL     1      39.613 -12.543  -1.232  1.00  0.00     0.102 A 
HETATM   30  C   UNL     1      40.449 -12.802  -0.152  1.00  0.00     0.079 A 
HETATM   31  C   UNL     1      39.492 -11.230  -1.710  1.00  0.00     0.035 A 
HETATM   32  C   UNL     1      41.175 -11.805   0.508  1.00  0.00     0.033 A 
HETATM   33  C   UNL     1      41.041 -10.500   0.019  1.00  0.00     0.002 A 
HETATM   34  C   UNL     1      40.217 -10.215  -1.072  1.00  0.00     0.002 A 
ENDBRANCH  25  26
ENDBRANCH   2  25
TORSDOF 8
ENDMDL
MODEL 3
REMARK VINA RESULT:      -8.8      2.013      7.921
REMARK  8 active torsions:
REMARK  status: ('A' for Active; 'I' for Inactive)
REMARK    1  A    between atoms: C_2  and  N_3 
REMARK    2  A    between atoms: C_2  and  C_23 
REMARK       I    between atoms: N_3  and  C_4 
REMARK    3  A    between atoms: N_3  and  C_16 
REMARK    4  A    between atoms: C_4  and  C_5 
REMARK    5  A    between atoms: C_5  and  N_6 
REMARK    6  A    between atoms: C_16  and  C_17 
REMARK       I    between atoms: C_23  and  N_24 
REMARK    7  A    between atoms: N_24  and  C_25 
REMARK    8  A    between atoms: C_28  and  O_29 
ROOT
HETATM    1  N   UNL     1      42.257 -12.699   5.439  1.00  0.00    -0.333 N 
HETATM    2  C   UNL     1      42.122 -13.967   6.007  1.00  0.00     0.240 C 
HETATM    3  O   UNL     1      41.006 -14.481   6.136  1.00  0.00    -0.271 OA
ENDROOT
BRANCH   1   4
HETATM    4  C   UNL     1      41.018 -11.963   5.074  1.00  0.00     0.176 C 
HETATM    5  C   UNL     1      41.191 -10.443   5.123  1.00  0.00     0.042 C 
BRANCH   4   6
HETATM    6  C   UNL     1      40.300 -12.404   3.764  1.00  0.00     0.244 C 
HETATM    7  N   UNL     1      41.152 -12.694   2.710  1.00  0.00    -0.325 N 
HETATM    8  H   UNL     1      42.126 -12.435   2.826  1.00  0.00     0.169 HD
HETATM    9  O   UNL     1      39.087 -12.616   3.774  1.00  0.00    -0.271 OA
BRANCH   7  10
HETATM   10  C   UNL     1      40.788 -13.174   1.430  1.00  0.00     0.035 A 
HETATM   11  C   UNL     1      40.292 -14.457   1.189  1.00  0.00     0.032 A 
HETATM   12  C   UNL     1      39.943 -14.855  -0.107  1.00  0.00     0.039 A 
HETATM   13  C   UNL     1      40.069 -13.978  -1.181  1.00  0.00     0.068 A 
HETATM   14  C   UNL     1      40.581 -12.701  -0.955  1.00  0.00     0.039 A 
HETATM   15  C   UNL     1      40.939 -12.304   0.342  1.00  0.00     0.032 A 
BRANCH  13  16
HETATM   16  O   UNL     1      39.687 -14.487  -2.391  1.00  0.00    -0.356 OA
HETATM   17  C   UNL     1      38.352 -14.208  -2.794  1.00  0.00     0.210 C 
ENDBRANCH  13  16
ENDBRANCH   7  10
ENDBRANCH   4   6
ENDBRANCH   1   4
BRANCH   1  18
HETATM   18  C   UNL     1      43.537 -12.033   5.146  1.00  0.00     0.165 C 
BRANCH  18  19
HETATM   19  C   UNL     1      44.268 -11.465   6.341  1.00  0.00    -0.040 A 
HETATM   20  C   UNL     1      43.614 -11.139   7.537  1.00  0.00     0.009 A 
HETATM   21  C   UNL     1      44.325 -10.625   8.624  1.00  0.00     0.001 A 
HETATM   22  C   UNL     1      45.703 -10.443   8.536  1.00  0.00     0.000 A 
HETATM   23  C   UNL     1      46.372 -10.788   7.366  1.00  0.00     0.001 A 
HETATM   24  C   UNL     1      45.662 -11.306   6.281  1.00  0.00     0.009 A 
ENDBRANCH  18  19
ENDBRANCH   1  18
BRANCH   2  25
HETATM   25  C   UNL     1      43.334 -14.760   6.455  1.00  0.00     0.250 C 
BRANCH  25  26
HETATM   26  N   UNL     1      43.421 -16.091   5.896  1.00  0.00    -0.263 N 
HETATM   27  N   UNL     1      43.637 -17.166   6.684  1.00  0.00     0.006 NA
HETATM   28  N   UNL     1      43.780 -18.221   5.890  1.00  0.00    -0.158 NA
HETATM   29  C   UNL     1      43.610 -17.807   4.596  1.00  0.00     0.102 A 
HETATM   30  C   UNL     1      43.355 -16.440   4.571  1.00  0.00     0.079 A 
HETATM   31  C   UNL     1      43.669 -18.519   3.390  1.00  0.00     0.035 A 
HETATM   32  C   UNL     1      43.134 -15.727   3.388  1.00  0.00     0.033 A 
HETATM   33  C   UNL     1      43.195 -16.454   2.193  1.00  0.00     0.002 A 
HETATM   34  C   UNL     1      43.461 -17.824   2.191  1.00  0.00     0.002 A 
ENDBRANCH  25  26
ENDBRANCH   2  25
TORSDOF 8
ENDMDL
MODEL 4
REMARK VINA RESULT:      -8.4      2.807      6.191
REMARK  8 active torsions:
REMARK  status: ('A' for Active; 'I' for Inactive)
REMARK    1  A    between atoms: C_2  and  N_3 
REMARK    2  A    between atoms: C_2  and  C_23 
REMARK       I    between atoms: N_3  and  C_4 
REMARK    3  A    between atoms: N_3  and  C_16 
REMARK    4  A    between atoms: C_4  and  C_5 
REMARK    5  A    between atoms: C_5  and  N_6 
REMARK    6  A    between atoms: C_16  and  C_17 
REMARK       I    between atoms: C_23  and  N_24 
REMARK    7  A    between atoms: N_24  and  C_25 
REMARK    8  A    between atoms: C_28  and  O_29 
ROOT
HETATM    1  N   UNL     1      41.529 -12.746   2.599  1.00  0.00    -0.333 N 
HETATM    2  C   UNL     1      42.279 -13.920   2.512  1.00  0.00     0.240 C 
HETATM    3  O   UNL     1      43.512 -13.873   2.444  1.00  0.00    -0.271 OA
ENDROOT
BRANCH   1   4
HETATM    4  C   UNL     1      42.253 -11.450   2.525  1.00  0.00     0.176 C 
HETATM    5  C   UNL     1      41.611 -10.464   1.545  1.00  0.00     0.042 C 
BRANCH   4   6
HETATM    6  C   UNL     1      42.589 -10.756   3.878  1.00  0.00     0.244 C 
HETATM    7  N   UNL     1      43.405 -11.498   4.719  1.00  0.00    -0.325 N 
HETATM    8  H   UNL     1      43.564 -12.467   4.462  1.00  0.00     0.169 HD
HETATM    9  O   UNL     1      42.264  -9.582   4.060  1.00  0.00    -0.271 OA
BRANCH   7  10
HETATM   10  C   UNL     1      43.919 -11.099   5.974  1.00  0.00     0.035 A 
HETATM   11  C   UNL     1      43.136 -10.601   7.017  1.00  0.00     0.032 A 
HETATM   12  C   UNL     1      43.718 -10.237   8.236  1.00  0.00     0.039 A 
HETATM   13  C   UNL     1      45.089 -10.375   8.441  1.00  0.00     0.068 A 
HETATM   14  C   UNL     1      45.884 -10.853   7.401  1.00  0.00     0.039 A 
HETATM   15  C   UNL     1      45.301 -11.210   6.176  1.00  0.00     0.032 A 
BRANCH  13  16
HETATM   16  O   UNL     1      45.530  -9.991   9.677  1.00  0.00    -0.356 OA
HETATM   17  C   UNL     1      44.537  -9.875  10.688  1.00  0.00     0.210 C 
ENDBRANCH  13  16
ENDBRANCH   7  10
ENDBRANCH   4   6
ENDBRANCH   1   4
BRANCH   1  18
HETATM   18  C   UNL     1      40.070 -12.684   2.783  1.00  0.00     0.165 C 
BRANCH  18  19
HETATM   19  C   UNL     1      39.596 -11.966   4.026  1.00  0.00    -0.040 A 
HETATM   20  C   UNL     1      38.881 -10.761   3.971  1.00  0.00     0.009 A 
HETATM   21  C   UNL     1      38.450 -10.131   5.141  1.00  0.00     0.001 A 
HETATM   22  C   UNL     1      38.717 -10.703   6.383  1.00  0.00     0.000 A 
HETATM   23  C   UNL     1      39.401 -11.912   6.454  1.00  0.00     0.001 A 
HETATM   24  C   UNL     1      39.827 -12.544   5.285  1.00  0.00     0.009 A 
ENDBRANCH  18  19
ENDBRANCH   1  18
BRANCH   2  25
HETATM   25  C   UNL     1      41.612 -15.281   2.526  1.00  0.00     0.250 C 
BRANCH  25  26
HETATM   26  N   UNL     1      41.969 -16.114   3.653  1.00  0.00    -0.263 N 
HETATM   27  N   UNL     1      41.548 -15.818   4.902  1.00  0.00     0.006 NA
HETATM   28  N   UNL     1      42.118 -16.683   5.731  1.00  0.00    -0.158 NA
HETATM   29  C   UNL     1      42.870 -17.554   4.989  1.00  0.00     0.102 A 
HETATM   30  C   UNL     1      42.775 -17.224   3.642  1.00  0.00     0.079 A 
HETATM   31  C   UNL     1      43.670 -18.637   5.379  1.00  0.00     0.035 A 
HETATM   32  C   UNL     1      43.433 -17.937   2.634  1.00  0.00     0.033 A 
HETATM   33  C   UNL     1      44.226 -19.017   3.040  1.00  0.00     0.002 A 
HETATM   34  C   UNL     1      44.347 -19.361   4.388  1.00  0.00     0.002 A 
ENDBRANCH  25  26
ENDBRANCH   2  25
TORSDOF 8
ENDMDL
MODEL 5
REMARK VINA RESULT:      -8.2      3.750      6.651
REMARK  8 active torsions:
REMARK  status: ('A' for Active; 'I' for Inactive)
REMARK    1  A    between atoms: C_2  and  N_3 
REMARK    2  A    between atoms: C_2  and  C_23 
REMARK       I    between atoms: N_3  and  C_4 
REMARK    3  A    between atoms: N_3  and  C_16 
REMARK    4  A    between atoms: C_4  and  C_5 
REMARK    5  A    between atoms: C_5  and  N_6 
REMARK    6  A    between atoms: C_16  and  C_17 
REMARK       I    between atoms: C_23  and  N_24 
REMARK    7  A    between atoms: N_24  and  C_25 
REMARK    8  A    between atoms: C_28  and  O_29 
ROOT
HETATM    1  N   UNL     1      42.772 -13.129   5.933  1.00  0.00    -0.333 N 
HETATM    2  C   UNL     1      42.781 -14.196   6.831  1.00  0.00     0.240 C 
HETATM    3  O   UNL     1      43.526 -14.180   7.817  1.00  0.00    -0.271 OA
ENDROOT
BRANCH   1   4
HETATM    4  C   UNL     1      43.738 -12.021   6.156  1.00  0.00     0.176 C 
HETATM    5  C   UNL     1      44.279 -11.430   4.851  1.00  0.00     0.042 C 
BRANCH   4   6
HETATM    6  C   UNL     1      43.300 -10.897   7.142  1.00  0.00     0.244 C 
HETATM    7  N   UNL     1      43.705 -11.092   8.453  1.00  0.00    -0.325 N 
HETATM    8  H   UNL     1      44.089 -12.003   8.682  1.00  0.00     0.169 HD
HETATM    9  O   UNL     1      42.781  -9.869   6.705  1.00  0.00    -0.271 OA
BRANCH   7  10
HETATM   10  C   UNL     1      43.507 -10.213   9.543  1.00  0.00     0.035 A 
HETATM   11  C   UNL     1      42.262  -9.708   9.923  1.00  0.00     0.032 A 
HETATM   12  C   UNL     1      42.144  -8.850  11.022  1.00  0.00     0.039 A 
HETATM   13  C   UNL     1      43.263  -8.492  11.770  1.00  0.00     0.068 A 
HETATM   14  C   UNL     1      44.514  -8.974  11.390  1.00  0.00     0.039 A 
HETATM   15  C   UNL     1      44.633  -9.828  10.282  1.00  0.00     0.032 A 
BRANCH  13  16
HETATM   16  O   UNL     1      43.012  -7.656  12.822  1.00  0.00    -0.356 OA
HETATM   17  C   UNL     1      42.450  -8.258  13.981  1.00  0.00     0.210 C 
ENDBRANCH  13  16
ENDBRANCH   7  10
ENDBRANCH   4   6
ENDBRANCH   1   4
BRANCH   1  18
HETATM   18  C   UNL     1      41.860 -12.995   4.784  1.00  0.00     0.165 C 
BRANCH  18  19
HETATM   19  C   UNL     1      40.722 -12.017   4.960  1.00  0.00    -0.040 A 
HETATM   20  C   UNL     1      40.418 -11.037   4.005  1.00  0.00     0.009 A 
HETATM   21  C   UNL     1      39.352 -10.155   4.198  1.00  0.00     0.001 A 
HETATM   22  C   UNL     1      38.565 -10.249   5.344  1.00  0.00     0.000 A 
HETATM   23  C   UNL     1      38.836 -11.233   6.289  1.00  0.00     0.001 A 
HETATM   24  C   UNL     1      39.898 -12.118   6.093  1.00  0.00     0.009 A 
ENDBRANCH  18  19
ENDBRANCH   1  18
BRANCH   2  25
HETATM   25  C   UNL     1      41.865 -15.390   6.644  1.00  0.00     0.250 C 
BRANCH  25  26
HETATM   26  N   UNL     1      42.513 -16.567   6.111  1.00  0.00    -0.263 N 
HETATM   27  N   UNL     1      43.134 -17.450   6.922  1.00  0.00     0.006 NA
HETATM   28  N   UNL     1      43.724 -18.355   6.151  1.00  0.00    -0.158 NA
HETATM   29  C   UNL     1      43.435 -18.057   4.846  1.00  0.00     0.102 A 
HETATM   30  C   UNL     1      42.636 -16.920   4.791  1.00  0.00     0.079 A 
HETATM   31  C   UNL     1      43.819 -18.688   3.654  1.00  0.00     0.035 A 
HETATM   32  C   UNL     1      42.172 -16.372   3.590  1.00  0.00     0.033 A 
HETATM   33  C   UNL     1      42.564 -17.014   2.411  1.00  0.00     0.002 A 
HETATM   34  C   UNL     1      43.375 -18.151   2.438  1.00  0.00     0.002 A 
ENDBRANCH  25  26
ENDBRANCH   2  25
TORSDOF 8
ENDMDL
MODEL 6
REMARK VINA RESULT:      -8.2      3.198      6.925
REMARK  8 active torsions:
REMARK  status: ('A' for Active; 'I' for Inactive)
REMARK    1  A    between atoms: C_2  and  N_3 
REMARK    2  A    between atoms: C_2  and  C_23 
REMARK       I    between atoms: N_3  and  C_4 
REMARK    3  A    between atoms: N_3  and  C_16 
REMARK    4  A    between atoms: C_4  and  C_5 
REMARK    5  A    between atoms: C_5  and  N_6 
REMARK    6  A    between atoms: C_16  and  C_17 
REMARK       I    between atoms: C_23  and  N_24 
REMARK    7  A    between atoms: N_24  and  C_25 
REMARK    8  A    between atoms: C_28  and  O_29 
ROOT
HETATM    1  N   UNL     1      43.333 -11.723   6.433  1.00  0.00    -0.333 N 
HETATM    2  C   UNL     1      42.896 -13.047   6.376  1.00  0.00     0.240 C 
HETATM    3  O   UNL     1      43.379 -13.900   7.128  1.00  0.00    -0.271 OA
ENDROOT
BRANCH   1   4
HETATM    4  C   UNL     1      44.446 -11.396   7.363  1.00  0.00     0.176 C 
HETATM    5  C   UNL     1      45.792 -11.240   6.651  1.00  0.00     0.042 C 
BRANCH   4   6
HETATM    6  C   UNL     1      44.202 -10.227   8.364  1.00  0.00     0.244 C 
HETATM    7  N   UNL     1      43.287 -10.508   9.367  1.00  0.00    -0.325 N 
HETATM    8  H   UNL     1      42.745 -11.360   9.264  1.00  0.00     0.169 HD
HETATM    9  O   UNL     1      44.911  -9.221   8.312  1.00  0.00    -0.271 OA
BRANCH   7  10
HETATM   10  C   UNL     1      42.918  -9.666  10.441  1.00  0.00     0.035 A 
HETATM   11  C   UNL     1      43.809  -9.198  11.409  1.00  0.00     0.032 A 
HETATM   12  C   UNL     1      43.370  -8.358  12.437  1.00  0.00     0.039 A 
HETATM   13  C   UNL     1      42.037  -7.958  12.511  1.00  0.00     0.068 A 
HETATM   14  C   UNL     1      41.135  -8.433  11.562  1.00  0.00     0.039 A 
HETATM   15  C   UNL     1      41.574  -9.283  10.535  1.00  0.00     0.032 A 
BRANCH  13  16
HETATM   16  O   UNL     1      41.739  -7.130  13.558  1.00  0.00    -0.356 OA
HETATM   17  C   UNL     1      40.357  -6.945  13.837  1.00  0.00     0.210 C 
ENDBRANCH  13  16
ENDBRANCH   7  10
ENDBRANCH   4   6
ENDBRANCH   1   4
BRANCH   1  18
HETATM   18  C   UNL     1      42.763 -10.608   5.658  1.00  0.00     0.165 C 
BRANCH  18  19
HETATM   19  C   UNL     1      41.629  -9.861   6.322  1.00  0.00    -0.040 A 
HETATM   20  C   UNL     1      40.486 -10.509   6.810  1.00  0.00     0.009 A 
HETATM   21  C   UNL     1      39.462  -9.787   7.427  1.00  0.00     0.001 A 
HETATM   22  C   UNL     1      39.572  -8.406   7.577  1.00  0.00     0.000 A 
HETATM   23  C   UNL     1      40.711  -7.750   7.123  1.00  0.00     0.001 A 
HETATM   24  C   UNL     1      41.737  -8.473   6.511  1.00  0.00     0.009 A 
ENDBRANCH  18  19
ENDBRANCH   1  18
BRANCH   2  25
HETATM   25  C   UNL     1      41.803 -13.473   5.415  1.00  0.00     0.250 C 
BRANCH  25  26
HETATM   26  N   UNL     1      42.278 -13.913   4.122  1.00  0.00    -0.263 N 
HETATM   27  N   UNL     1      42.330 -13.066   3.072  1.00  0.00     0.006 NA
HETATM   28  N   UNL     1      42.694 -13.771   2.008  1.00  0.00    -0.158 NA
HETATM   29  C   UNL     1      42.911 -15.063   2.406  1.00  0.00     0.102 A 
HETATM   30  C   UNL     1      42.671 -15.179   3.770  1.00  0.00     0.079 A 
HETATM   31  C   UNL     1      43.298 -16.195   1.675  1.00  0.00     0.035 A 
HETATM   32  C   UNL     1      42.814 -16.382   4.470  1.00  0.00     0.033 A 
HETATM   33  C   UNL     1      43.202 -17.502   3.725  1.00  0.00     0.002 A 
HETATM   34  C   UNL     1      43.437 -17.414   2.352  1.00  0.00     0.002 A 
ENDBRANCH  25  26
ENDBRANCH   2  25
TORSDOF 8
ENDMDL
MODEL 7
REMARK VINA RESULT:      -8.2      5.088     11.360
REMARK  8 active torsions:
REMARK  status: ('A' for Active; 'I' for Inactive)
REMARK    1  A    between atoms: C_2  and  N_3 
REMARK    2  A    between atoms: C_2  and  C_23 
REMARK       I    between atoms: N_3  and  C_4 
REMARK    3  A    between atoms: N_3  and  C_16 
REMARK    4  A    between atoms: C_4  and  C_5 
REMARK    5  A    between atoms: C_5  and  N_6 
REMARK    6  A    between atoms: C_16  and  C_17 
REMARK       I    between atoms: C_23  and  N_24 
REMARK    7  A    between atoms: N_24  and  C_25 
REMARK    8  A    between atoms: C_28  and  O_29 
ROOT
HETATM    1  N   UNL     1      42.894  -9.357   9.734  1.00  0.00    -0.333 N 
HETATM    2  C   UNL     1      41.918  -8.527   9.178  1.00  0.00     0.240 C 
HETATM    3  O   UNL     1      42.095  -8.006   8.073  1.00  0.00    -0.271 OA
ENDROOT
BRANCH   1   4
HETATM    4  C   UNL     1      44.172  -9.522   8.994  1.00  0.00     0.176 C 
HETATM    5  C   UNL     1      45.399  -9.500   9.909  1.00  0.00     0.042 C 
BRANCH   4   6
HETATM    6  C   UNL     1      44.248 -10.705   7.983  1.00  0.00     0.244 C 
HETATM    7  N   UNL     1      43.322 -10.645   6.954  1.00  0.00    -0.325 N 
HETATM    8  H   UNL     1      42.586  -9.951   7.042  1.00  0.00     0.169 HD
HETATM    9  O   UNL     1      45.179 -11.509   8.053  1.00  0.00    -0.271 OA
BRANCH   7  10
HETATM   10  C   UNL     1      43.200 -11.541   5.866  1.00  0.00     0.035 A 
HETATM   11  C   UNL     1      43.628 -11.257   4.568  1.00  0.00     0.032 A 
HETATM   12  C   UNL     1      43.482 -12.201   3.545  1.00  0.00     0.039 A 
HETATM   13  C   UNL     1      42.920 -13.449   3.803  1.00  0.00     0.068 A 
HETATM   14  C   UNL     1      42.472 -13.737   5.090  1.00  0.00     0.039 A 
HETATM   15  C   UNL     1      42.610 -12.787   6.114  1.00  0.00     0.032 A 
BRANCH  13  16
HETATM   16  O   UNL     1      42.843 -14.282   2.721  1.00  0.00    -0.356 OA
HETATM   17  C   UNL     1      42.011 -13.846   1.653  1.00  0.00     0.210 C 
ENDBRANCH  13  16
ENDBRANCH   7  10
ENDBRANCH   4   6
ENDBRANCH   1   4
BRANCH   1  18
HETATM   18  C   UNL     1      42.752 -10.107  10.993  1.00  0.00     0.165 C 
BRANCH  18  19
HETATM   19  C   UNL     1      42.649  -9.269  12.247  1.00  0.00    -0.040 A 
HETATM   20  C   UNL     1      43.457  -8.145  12.468  1.00  0.00     0.009 A 
HETATM   21  C   UNL     1      43.326  -7.388  13.635  1.00  0.00     0.001 A 
HETATM   22  C   UNL     1      42.376  -7.737  14.593  1.00  0.00     0.000 A 
HETATM   23  C   UNL     1      41.547  -8.833  14.377  1.00  0.00     0.001 A 
HETATM   24  C   UNL     1      41.674  -9.586  13.208  1.00  0.00     0.009 A 
ENDBRANCH  18  19
ENDBRANCH   1  18
BRANCH   2  25
HETATM   25  C   UNL     1      40.609  -8.263   9.896  1.00  0.00     0.250 C 
BRANCH  25  26
HETATM   26  N   UNL     1      40.603  -7.073  10.717  1.00  0.00    -0.263 N 
HETATM   27  N   UNL     1      41.499  -6.083  10.518  1.00  0.00     0.006 NA
HETATM   28  N   UNL     1      41.324  -5.186  11.480  1.00  0.00    -0.158 NA
HETATM   29  C   UNL     1      40.281  -5.600  12.266  1.00  0.00     0.102 A 
HETATM   30  C   UNL     1      39.782  -6.805  11.783  1.00  0.00     0.079 A 
HETATM   31  C   UNL     1      39.706  -5.024  13.407  1.00  0.00     0.035 A 
HETATM   32  C   UNL     1      38.708  -7.478  12.376  1.00  0.00     0.033 A 
HETATM   33  C   UNL     1      38.145  -6.888  13.514  1.00  0.00     0.002 A 
HETATM   34  C   UNL     1      38.635  -5.684  14.024  1.00  0.00     0.002 A 
ENDBRANCH  25  26
ENDBRANCH   2  25
TORSDOF 8
ENDMDL
MODEL 8
REMARK VINA RESULT:      -8.0     15.921     18.292
REMARK  8 active torsions:
REMARK  status: ('A' for Active; 'I' for Inactive)
REMARK    1  A    between atoms: C_2  and  N_3 
REMARK    2  A    between atoms: C_2  and  C_23 
REMARK       I    between atoms: N_3  and  C_4 
REMARK    3  A    between atoms: N_3  and  C_16 
REMARK    4  A    between atoms: C_4  and  C_5 
REMARK    5  A    between atoms: C_5  and  N_6 
REMARK    6  A    between atoms: C_16  and  C_17 
REMARK       I    between atoms: C_23  and  N_24 
REMARK    7  A    between atoms: N_24  and  C_25 
REMARK    8  A    between atoms: C_28  and  O_29 
ROOT
HETATM    1  N   UNL     1      44.675 -29.392  -0.054  1.00  0.00    -0.333 N 
HETATM    2  C   UNL     1      45.471 -29.404   1.092  1.00  0.00     0.240 C 
HETATM    3  O   UNL     1      45.245 -30.205   2.004  1.00  0.00    -0.271 OA
ENDROOT
BRANCH   1   4
HETATM    4  C   UNL     1      43.507 -30.312  -0.101  1.00  0.00     0.176 C 
HETATM    5  C   UNL     1      43.905 -31.769  -0.345  1.00  0.00     0.042 C 
BRANCH   4   6
HETATM    6  C   UNL     1      42.478 -30.198   1.063  1.00  0.00     0.244 C 
HETATM    7  N   UNL     1      42.374 -31.333   1.852  1.00  0.00    -0.325 N 
HETATM    8  H   UNL     1      42.834 -32.171   1.510  1.00  0.00     0.169 HD
HETATM    9  O   UNL     1      41.952 -29.113   1.309  1.00  0.00    -0.271 OA
BRANCH   7  10
HETATM   10  C   UNL     1      41.573 -31.495   3.006  1.00  0.00     0.035 A 
HETATM   11  C   UNL     1      41.860 -30.915   4.243  1.00  0.00     0.032 A 
HETATM   12  C   UNL     1      41.012 -31.113   5.339  1.00  0.00     0.039 A 
HETATM   13  C   UNL     1      39.856 -31.881   5.216  1.00  0.00     0.068 A 
HETATM   14  C   UNL     1      39.569 -32.480   3.991  1.00  0.00     0.039 A 
HETATM   15  C   UNL     1      40.424 -32.288   2.895  1.00  0.00     0.032 A 
BRANCH  13  16
HETATM   16  O   UNL     1      39.110 -31.989   6.356  1.00  0.00    -0.356 OA
HETATM   17  C   UNL     1      39.824 -32.313   7.543  1.00  0.00     0.210 C 
ENDBRANCH  13  16
ENDBRANCH   7  10
ENDBRANCH   4   6
ENDBRANCH   1   4
BRANCH   1  18
HETATM   18  C   UNL     1      44.910 -28.553  -1.241  1.00  0.00     0.165 C 
BRANCH  18  19
HETATM   19  C   UNL     1      45.013 -29.293  -2.556  1.00  0.00    -0.040 A 
HETATM   20  C   UNL     1      46.084 -30.145  -2.857  1.00  0.00     0.009 A 
HETATM   21  C   UNL     1      46.140 -30.820  -4.079  1.00  0.00     0.001 A 
HETATM   22  C   UNL     1      45.119 -30.662  -5.013  1.00  0.00     0.000 A 
HETATM   23  C   UNL     1      44.035 -29.841  -4.719  1.00  0.00     0.001 A 
HETATM   24  C   UNL     1      43.976 -29.171  -3.496  1.00  0.00     0.009 A 
ENDBRANCH  18  19
ENDBRANCH   1  18
BRANCH   2  25
HETATM   25  C   UNL     1      46.648 -28.460   1.241  1.00  0.00     0.250 C 
BRANCH  25  26
HETATM   26  N   UNL     1      47.943 -29.091   1.126  1.00  0.00    -0.263 N 
HETATM   27  N   UNL     1      48.462 -29.406  -0.080  1.00  0.00     0.006 NA
HETATM   28  N   UNL     1      49.593 -30.067   0.131  1.00  0.00    -0.158 NA
HETATM   29  C   UNL     1      49.804 -30.129   1.483  1.00  0.00     0.102 A 
HETATM   30  C   UNL     1      48.766 -29.488   2.149  1.00  0.00     0.079 A 
HETATM   31  C   UNL     1      50.838 -30.720   2.224  1.00  0.00     0.035 A 
HETATM   32  C   UNL     1      48.704 -29.383   3.543  1.00  0.00     0.033 A 
HETATM   33  C   UNL     1      49.744 -29.976   4.267  1.00  0.00     0.002 A 
HETATM   34  C   UNL     1      50.792 -30.636   3.622  1.00  0.00     0.002 A 
ENDBRANCH  25  26
ENDBRANCH   2  25
TORSDOF 8
ENDMDL
MODEL 9
REMARK VINA RESULT:      -8.0      3.011      6.426
REMARK  8 active torsions:
REMARK  status: ('A' for Active; 'I' for Inactive)
REMARK    1  A    between atoms: C_2  and  N_3 
REMARK    2  A    between atoms: C_2  and  C_23 
REMARK       I    between atoms: N_3  and  C_4 
REMARK    3  A    between atoms: N_3  and  C_16 
REMARK    4  A    between atoms: C_4  and  C_5 
REMARK    5  A    between atoms: C_5  and  N_6 
REMARK    6  A    between atoms: C_16  and  C_17 
REMARK       I    between atoms: C_23  and  N_24 
REMARK    7  A    between atoms: N_24  and  C_25 
REMARK    8  A    between atoms: C_28  and  O_29 
ROOT
HETATM    1  N   UNL     1      41.737 -12.379   5.642  1.00  0.00    -0.333 N 
HETATM    2  C   UNL     1      42.323 -13.635   5.478  1.00  0.00     0.240 C 
HETATM    3  O   UNL     1      43.550 -13.749   5.398  1.00  0.00    -0.271 OA
ENDROOT
BRANCH   1   4
HETATM    4  C   UNL     1      42.628 -11.189   5.635  1.00  0.00     0.176 C 
HETATM    5  C   UNL     1      42.620 -10.445   4.297  1.00  0.00     0.042 C 
BRANCH   4   6
HETATM    6  C   UNL     1      42.482 -10.197   6.828  1.00  0.00     0.244 C 
HETATM    7  N   UNL     1      43.005 -10.657   8.027  1.00  0.00    -0.325 N 
HETATM    8  H   UNL     1      43.273 -11.635   8.063  1.00  0.00     0.169 HD
HETATM    9  O   UNL     1      42.074  -9.053   6.625  1.00  0.00    -0.271 OA
BRANCH   7  10
HETATM   10  C   UNL     1      43.070  -9.953   9.251  1.00  0.00     0.035 A 
HETATM   11  C   UNL     1      41.971  -9.345   9.862  1.00  0.00     0.032 A 
HETATM   12  C   UNL     1      42.113  -8.675  11.082  1.00  0.00     0.039 A 
HETATM   13  C   UNL     1      43.349  -8.611  11.721  1.00  0.00     0.068 A 
HETATM   14  C   UNL     1      44.456  -9.198  11.113  1.00  0.00     0.039 A 
HETATM   15  C   UNL     1      44.316  -9.863   9.885  1.00  0.00     0.032 A 
BRANCH  13  16
HETATM   16  O   UNL     1      43.351  -7.935  12.910  1.00  0.00    -0.356 OA
HETATM   17  C   UNL     1      42.442  -8.403  13.898  1.00  0.00     0.210 C 
ENDBRANCH  13  16
ENDBRANCH   7  10
ENDBRANCH   4   6
ENDBRANCH   1   4
BRANCH   1  18
HETATM   18  C   UNL     1      40.300 -12.133   5.847  1.00  0.00     0.165 C 
BRANCH  18  19
HETATM   19  C   UNL     1      39.557 -11.562   4.661  1.00  0.00    -0.040 A 
HETATM   20  C   UNL     1      39.062 -10.250   4.645  1.00  0.00     0.009 A 
HETATM   21  C   UNL     1      38.389  -9.753   3.527  1.00  0.00     0.001 A 
HETATM   22  C   UNL     1      38.213 -10.555   2.402  1.00  0.00     0.000 A 
HETATM   23  C   UNL     1      38.723 -11.850   2.390  1.00  0.00     0.001 A 
HETATM   24  C   UNL     1      39.400 -12.345   3.506  1.00  0.00     0.009 A 
ENDBRANCH  18  19
ENDBRANCH   1  18
BRANCH   2  25
HETATM   25  C   UNL     1      41.479 -14.894   5.420  1.00  0.00     0.250 C 
BRANCH  25  26
HETATM   26  N   UNL     1      41.684 -15.701   4.238  1.00  0.00    -0.263 N 
HETATM   27  N   UNL     1      40.916 -15.537   3.139  1.00  0.00     0.006 NA
HETATM   28  N   UNL     1      41.258 -16.480   2.270  1.00  0.00    -0.158 NA
HETATM   29  C   UNL     1      42.278 -17.214   2.814  1.00  0.00     0.102 A 
HETATM   30  C   UNL     1      42.589 -16.719   4.076  1.00  0.00     0.079 A 
HETATM   31  C   UNL     1      42.983 -18.318   2.314  1.00  0.00     0.035 A 
HETATM   32  C   UNL     1      43.596 -17.262   4.881  1.00  0.00     0.033 A 
HETATM   33  C   UNL     1      44.290 -18.363   4.366  1.00  0.00     0.002 A 
HETATM   34  C   UNL     1      43.989 -18.885   3.107  1.00  0.00     0.002 A 
ENDBRANCH  25  26
ENDBRANCH   2  25
TORSDOF 8
ENDMDL
MODEL 10
REMARK VINA RESULT:      -7.9      3.154      9.084
REMARK  8 active torsions:
REMARK  status: ('A' for Active; 'I' for Inactive)
REMARK    1  A    between atoms: C_2  and  N_3 
REMARK    2  A    between atoms: C_2  and  C_23 
REMARK       I    between atoms: N_3  and  C_4 
REMARK    3  A    between atoms: N_3  and  C_16 
REMARK    4  A    between atoms: C_4  and  C_5 
REMARK    5  A    between atoms: C_5  and  N_6 
REMARK    6  A    between atoms: C_16  and  C_17 
REMARK       I    between atoms: C_23  and  N_24 
REMARK    7  A    between atoms: N_24  and  C_25 
REMARK    8  A    between atoms: C_28  and  O_29 
ROOT
HETATM    1  N   UNL     1      41.941 -12.040   6.102  1.00  0.00    -0.333 N 
HETATM    2  C   UNL     1      43.247 -12.111   6.589  1.00  0.00     0.240 C 
HETATM    3  O   UNL     1      43.739 -13.199   6.906  1.00  0.00    -0.271 OA
ENDROOT
BRANCH   1   4
HETATM    4  C   UNL     1      41.143 -13.294   6.058  1.00  0.00     0.176 C 
HETATM    5  C   UNL     1      39.634 -13.043   6.100  1.00  0.00     0.042 C 
BRANCH   4   6
HETATM    6  C   UNL     1      41.510 -14.318   4.943  1.00  0.00     0.244 C 
HETATM    7  N   UNL     1      42.384 -15.318   5.344  1.00  0.00    -0.325 N 
HETATM    8  H   UNL     1      42.828 -15.199   6.248  1.00  0.00     0.169 HD
HETATM    9  O   UNL     1      40.918 -14.285   3.864  1.00  0.00    -0.271 OA
BRANCH   7  10
HETATM   10  C   UNL     1      42.839 -16.410   4.569  1.00  0.00     0.035 A 
HETATM   11  C   UNL     1      42.355 -16.720   3.297  1.00  0.00     0.032 A 
HETATM   12  C   UNL     1      42.864 -17.813   2.587  1.00  0.00     0.039 A 
HETATM   13  C   UNL     1      43.874 -18.607   3.127  1.00  0.00     0.068 A 
HETATM   14  C   UNL     1      44.351 -18.318   4.403  1.00  0.00     0.039 A 
HETATM   15  C   UNL     1      43.834 -17.227   5.119  1.00  0.00     0.032 A 
BRANCH  13  16
HETATM   16  O   UNL     1      44.288 -19.637   2.329  1.00  0.00    -0.356 OA
HETATM   17  C   UNL     1      43.262 -20.402   1.710  1.00  0.00     0.210 C 
ENDBRANCH  13  16
ENDBRANCH   7  10
ENDBRANCH   4   6
ENDBRANCH   1   4
BRANCH   1  18
HETATM   18  C   UNL     1      41.288 -10.818   5.603  1.00  0.00     0.165 C 
BRANCH  18  19
HETATM   19  C   UNL     1      41.077 -10.751   4.108  1.00  0.00    -0.040 A 
HETATM   20  C   UNL     1      39.823 -10.495   3.536  1.00  0.00     0.009 A 
HETATM   21  C   UNL     1      39.669 -10.431   2.149  1.00  0.00     0.001 A 
HETATM   22  C   UNL     1      40.770 -10.609   1.314  1.00  0.00     0.000 A 
HETATM   23  C   UNL     1      42.026 -10.836   1.865  1.00  0.00     0.001 A 
HETATM   24  C   UNL     1      42.181 -10.895   3.251  1.00  0.00     0.009 A 
ENDBRANCH  18  19
ENDBRANCH   1  18
BRANCH   2  25
HETATM   25  C   UNL     1      44.107 -10.870   6.717  1.00  0.00     0.250 C 
BRANCH  25  26
HETATM   26  N   UNL     1      44.404 -10.482   8.078  1.00  0.00    -0.263 N 
HETATM   27  N   UNL     1      45.513 -10.929   8.705  1.00  0.00     0.006 NA
HETATM   28  N   UNL     1      45.461 -10.504   9.961  1.00  0.00    -0.158 NA
HETATM   29  C   UNL     1      44.327  -9.749  10.109  1.00  0.00     0.102 A 
HETATM   30  C   UNL     1      43.637  -9.699   8.904  1.00  0.00     0.079 A 
HETATM   31  C   UNL     1      43.806  -9.086  11.230  1.00  0.00     0.035 A 
HETATM   32  C   UNL     1      42.438  -8.997   8.740  1.00  0.00     0.033 A 
HETATM   33  C   UNL     1      41.933  -8.340   9.867  1.00  0.00     0.002 A 
HETATM   34  C   UNL     1      42.601  -8.384  11.093  1.00  0.00     0.002 A 
ENDBRANCH  25  26
ENDBRANCH   2  25
TORSDOF 8
ENDMDL
