MODEL 1
REMARK VINA RESULT:      -8.3      0.000      0.000
REMARK  6 active torsions:
REMARK  status: ('A' for Active; 'I' for Inactive)
REMARK    1  A    between atoms: N_4  and  C_5 
REMARK    2  A    between atoms: C_14  and  C_15 
REMARK       I    between atoms: C_15  and  N_16 
REMARK    3  A    between atoms: N_16  and  C_17 
REMARK    4  A    between atoms: C_17  and  C_18 
REMARK    5  A    between atoms: C_18  and  O_19 
REMARK    6  A    between atoms: C_18  and  C_20 
ROOT
HETATM    1  C   UNL     1      43.111 -11.421   5.317  1.00  0.00     0.255 C 
HETATM    2  N   UNL     1      42.471 -12.637   5.412  1.00  0.00    -0.354 N 
HETATM    3  O   UNL     1      43.360 -10.900   4.235  1.00  0.00    -0.268 OA
HETATM    4  H   UNL     1      42.532 -13.103   6.305  1.00  0.00     0.162 HD
ENDROOT
BRANCH   1   5
HETATM    5  C   UNL     1      43.528 -10.815   6.579  1.00  0.00     0.082 C 
HETATM    6  C   UNL     1      44.856 -10.793   7.082  1.00  0.00     0.069 C 
HETATM    7  C   UNL     1      46.083 -11.362   6.466  1.00  0.00     0.073 C 
HETATM    8  N   UNL     1      44.940 -10.150   8.245  1.00  0.00    -0.171 NA
HETATM    9  N   UNL     1      43.665  -9.836   8.578  1.00  0.00    -0.237 N 
HETATM   10  C   UNL     1      42.799 -10.073   7.510  1.00  0.00     0.050 C 
HETATM   11  C   UNL     1      41.428  -9.502   7.414  1.00  0.00     0.071 C 
BRANCH   9  12
HETATM   12  C   UNL     1      43.405  -9.344   9.894  1.00  0.00     0.058 A 
HETATM   13  C   UNL     1      43.267 -10.266  10.948  1.00  0.00     0.033 A 
HETATM   14  C   UNL     1      42.993  -9.830  12.247  1.00  0.00     0.021 A 
HETATM   15  C   UNL     1      42.835  -8.471  12.498  1.00  0.00     0.011 A 
HETATM   16 BR   UNL     1      42.453  -7.876  14.250  1.00  0.00    -0.051 Br
HETATM   17  C   UNL     1      42.944  -7.546  11.461  1.00  0.00     0.021 A 
HETATM   18  C   UNL     1      43.226  -7.981  10.160  1.00  0.00     0.033 A 
ENDBRANCH   9  12
ENDBRANCH   1   5
BRANCH   2  19
HETATM   19  C   UNL     1      42.218 -13.502   4.259  1.00  0.00     0.159 C 
BRANCH  19  20
HETATM   20  C   UNL     1      41.478 -14.830   4.553  1.00  0.00     0.169 C 
BRANCH  20  21
HETATM   21  O   UNL     1      40.209 -14.860   3.898  1.00  0.00    -0.389 OA
HETATM   22  H   UNL     1      39.567 -14.491   4.543  1.00  0.00     0.210 HD
ENDBRANCH  20  21
BRANCH  20  23
HETATM   23  C   UNL     1      42.265 -16.023   4.045  1.00  0.00    -0.028 A 
HETATM   24  C   UNL     1      42.002 -16.556   2.771  1.00  0.00     0.013 A 
HETATM   25  C   UNL     1      42.719 -17.658   2.303  1.00  0.00     0.043 A 
HETATM   26  C   UNL     1      43.700 -18.231   3.104  1.00  0.00     0.116 A 
HETATM   27  F   UNL     1      44.387 -19.288   2.651  1.00  0.00    -0.206 F 
HETATM   28  C   UNL     1      43.980 -17.722   4.365  1.00  0.00     0.043 A 
HETATM   29  C   UNL     1      43.266 -16.619   4.835  1.00  0.00     0.013 A 
ENDBRANCH  20  23
ENDBRANCH  19  20
ENDBRANCH   2  19
TORSDOF 6
ENDMDL
MODEL 2
REMARK VINA RESULT:      -8.3      1.653      2.348
REMARK  6 active torsions:
REMARK  status: ('A' for Active; 'I' for Inactive)
REMARK    1  A    between atoms: N_4  and  C_5 
REMARK    2  A    between atoms: C_14  and  C_15 
REMARK       I    between atoms: C_15  and  N_16 
REMARK    3  A    between atoms: N_16  and  C_17 
REMARK    4  A    between atoms: C_17  and  C_18 
REMARK    5  A    between atoms: C_18  and  O_19 
REMARK    6  A    between atoms: C_18  and  C_20 
ROOT
HETATM    1  C   UNL     1      43.559 -11.726   3.986  1.00  0.00     0.255 C 
HETATM    2  N   UNL     1      42.813 -12.819   3.606  1.00  0.00    -0.354 N 
HETATM    3  O   UNL     1      44.591 -11.408   3.405  1.00  0.00    -0.268 OA
HETATM    4  H   UNL     1      42.137 -13.151   4.277  1.00  0.00     0.162 HD
ENDROOT
BRANCH   1   5
HETATM    5  C   UNL     1      43.079 -10.998   5.158  1.00  0.00     0.082 C 
HETATM    6  C   UNL     1      42.106  -9.964   5.143  1.00  0.00     0.069 C 
HETATM    7  C   UNL     1      41.378  -9.403   3.976  1.00  0.00     0.073 C 
HETATM    8  N   UNL     1      41.849  -9.500   6.365  1.00  0.00    -0.171 NA
HETATM    9  N   UNL     1      42.720 -10.137   7.184  1.00  0.00    -0.237 N 
HETATM   10  C   UNL     1      43.366 -11.176   6.513  1.00  0.00     0.050 C 
HETATM   11  C   UNL     1      44.087 -12.282   7.200  1.00  0.00     0.071 C 
BRANCH   9  12
HETATM   12  C   UNL     1      42.849  -9.678   8.532  1.00  0.00     0.058 A 
HETATM   13  C   UNL     1      41.688  -9.331   9.245  1.00  0.00     0.033 A 
HETATM   14  C   UNL     1      41.770  -8.858  10.558  1.00  0.00     0.021 A 
HETATM   15  C   UNL     1      43.016  -8.710  11.159  1.00  0.00     0.011 A 
HETATM   16 BR   UNL     1      43.134  -8.061  12.930  1.00  0.00    -0.051 Br
HETATM   17  C   UNL     1      44.178  -9.026  10.457  1.00  0.00     0.021 A 
HETATM   18  C   UNL     1      44.097  -9.506   9.144  1.00  0.00     0.033 A 
ENDBRANCH   9  12
ENDBRANCH   1   5
BRANCH   2  19
HETATM   19  C   UNL     1      43.278 -13.806   2.630  1.00  0.00     0.159 C 
BRANCH  19  20
HETATM   20  C   UNL     1      42.371 -15.046   2.430  1.00  0.00     0.169 C 
BRANCH  20  21
HETATM   21  O   UNL     1      42.167 -15.307   1.041  1.00  0.00    -0.389 OA
HETATM   22  H   UNL     1      42.972 -15.780   0.736  1.00  0.00     0.210 HD
ENDBRANCH  20  21
BRANCH  20  23
HETATM   23  C   UNL     1      43.001 -16.291   3.025  1.00  0.00    -0.028 A 
HETATM   24  C   UNL     1      43.140 -17.454   2.250  1.00  0.00     0.013 A 
HETATM   25  C   UNL     1      43.713 -18.604   2.796  1.00  0.00     0.043 A 
HETATM   26  C   UNL     1      44.149 -18.595   4.116  1.00  0.00     0.116 A 
HETATM   27  F   UNL     1      44.699 -19.700   4.636  1.00  0.00    -0.206 F 
HETATM   28  C   UNL     1      44.025 -17.456   4.902  1.00  0.00     0.043 A 
HETATM   29  C   UNL     1      43.455 -16.306   4.358  1.00  0.00     0.013 A 
ENDBRANCH  20  23
ENDBRANCH  19  20
ENDBRANCH   2  19
TORSDOF 6
ENDMDL
MODEL 3
REMARK VINA RESULT:      -8.3      5.217     10.057
REMARK  6 active torsions:
REMARK  status: ('A' for Active; 'I' for Inactive)
REMARK    1  A    between atoms: N_4  and  C_5 
REMARK    2  A    between atoms: C_14  and  C_15 
REMARK       I    between atoms: C_15  and  N_16 
REMARK    3  A    between atoms: N_16  and  C_17 
REMARK    4  A    between atoms: C_17  and  C_18 
REMARK    5  A    between atoms: C_18  and  O_19 
REMARK    6  A    between atoms: C_18  and  C_20 
ROOT
HETATM    1  C   UNL     1      43.241  -9.632   8.251  1.00  0.00     0.255 C 
HETATM    2  N   UNL     1      42.954 -10.128   9.503  1.00  0.00    -0.354 N 
HETATM    3  O   UNL     1      43.715  -8.513   8.087  1.00  0.00    -0.268 OA
HETATM    4  H   UNL     1      42.346 -10.933   9.533  1.00  0.00     0.162 HD
ENDROOT
BRANCH   1   5
HETATM    5  C   UNL     1      42.897 -10.495   7.124  1.00  0.00     0.082 C 
HETATM    6  C   UNL     1      41.711 -10.403   6.349  1.00  0.00     0.069 C 
HETATM    7  C   UNL     1      40.586  -9.443   6.500  1.00  0.00     0.073 C 
HETATM    8  N   UNL     1      41.680 -11.307   5.371  1.00  0.00    -0.171 NA
HETATM    9  N   UNL     1      42.781 -12.073   5.551  1.00  0.00    -0.237 N 
HETATM   10  C   UNL     1      43.632 -11.507   6.501  1.00  0.00     0.050 C 
HETATM   11  C   UNL     1      45.063 -11.884   6.661  1.00  0.00     0.071 C 
BRANCH   9  12
HETATM   12  C   UNL     1      42.904 -13.280   4.796  1.00  0.00     0.058 A 
HETATM   13  C   UNL     1      43.016 -13.197   3.396  1.00  0.00     0.033 A 
HETATM   14  C   UNL     1      43.118 -14.352   2.617  1.00  0.00     0.021 A 
HETATM   15  C   UNL     1      43.088 -15.600   3.231  1.00  0.00     0.011 A 
HETATM   16 BR   UNL     1      43.213 -17.167   2.182  1.00  0.00    -0.051 Br
HETATM   17  C   UNL     1      42.952 -15.702   4.614  1.00  0.00     0.021 A 
HETATM   18  C   UNL     1      42.857 -14.544   5.397  1.00  0.00     0.033 A 
ENDBRANCH   9  12
ENDBRANCH   1   5
BRANCH   2  19
HETATM   19  C   UNL     1      42.988  -9.310  10.716  1.00  0.00     0.159 C 
BRANCH  19  20
HETATM   20  C   UNL     1      42.318  -9.924  11.970  1.00  0.00     0.169 C 
BRANCH  20  21
HETATM   21  O   UNL     1      43.007 -11.103  12.387  1.00  0.00    -0.389 OA
HETATM   22  H   UNL     1      42.390 -11.575  12.989  1.00  0.00     0.210 HD
ENDBRANCH  20  21
BRANCH  20  23
HETATM   23  C   UNL     1      42.349  -8.958  13.139  1.00  0.00    -0.028 A 
HETATM   24  C   UNL     1      41.471  -9.130  14.223  1.00  0.00     0.013 A 
HETATM   25  C   UNL     1      41.492  -8.239  15.298  1.00  0.00     0.043 A 
HETATM   26  C   UNL     1      42.387  -7.176  15.293  1.00  0.00     0.116 A 
HETATM   27  F   UNL     1      42.405  -6.324  16.326  1.00  0.00    -0.206 F 
HETATM   28  C   UNL     1      43.266  -6.987  14.235  1.00  0.00     0.043 A 
HETATM   29  C   UNL     1      43.249  -7.877  13.161  1.00  0.00     0.013 A 
ENDBRANCH  20  23
ENDBRANCH  19  20
ENDBRANCH   2  19
TORSDOF 6
ENDMDL
MODEL 4
REMARK VINA RESULT:      -8.1      1.407      1.776
REMARK  6 active torsions:
REMARK  status: ('A' for Active; 'I' for Inactive)
REMARK    1  A    between atoms: N_4  and  C_5 
REMARK    2  A    between atoms: C_14  and  C_15 
REMARK       I    between atoms: C_15  and  N_16 
REMARK    3  A    between atoms: N_16  and  C_17 
REMARK    4  A    between atoms: C_17  and  C_18 
REMARK    5  A    between atoms: C_18  and  O_19 
REMARK    6  A    between atoms: C_18  and  C_20 
ROOT
HETATM    1  C   UNL     1      43.454 -11.501   6.408  1.00  0.00     0.255 C 
HETATM    2  N   UNL     1      43.066 -12.767   6.789  1.00  0.00    -0.354 N 
HETATM    3  O   UNL     1      43.599 -11.192   5.230  1.00  0.00    -0.268 OA
HETATM    4  H   UNL     1      43.214 -13.004   7.758  1.00  0.00     0.162 HD
ENDROOT
BRANCH   1   5
HETATM    5  C   UNL     1      43.736 -10.563   7.492  1.00  0.00     0.082 C 
HETATM    6  C   UNL     1      45.029 -10.219   7.966  1.00  0.00     0.069 C 
HETATM    7  C   UNL     1      46.346 -10.716   7.491  1.00  0.00     0.073 C 
HETATM    8  N   UNL     1      44.980  -9.320   8.948  1.00  0.00    -0.171 NA
HETATM    9  N   UNL     1      43.663  -9.140   9.208  1.00  0.00    -0.237 N 
HETATM   10  C   UNL     1      42.875  -9.749   8.231  1.00  0.00     0.050 C 
HETATM   11  C   UNL     1      41.436  -9.436   8.014  1.00  0.00     0.071 C 
BRANCH   9  12
HETATM   12  C   UNL     1      43.292  -8.405  10.376  1.00  0.00     0.058 A 
HETATM   13  C   UNL     1      43.440  -9.013  11.636  1.00  0.00     0.033 A 
HETATM   14  C   UNL     1      43.072  -8.338  12.803  1.00  0.00     0.021 A 
HETATM   15  C   UNL     1      42.534  -7.058  12.717  1.00  0.00     0.011 A 
HETATM   16 BR   UNL     1      42.023  -6.144  14.290  1.00  0.00    -0.051 Br
HETATM   17  C   UNL     1      42.357  -6.451  11.475  1.00  0.00     0.021 A 
HETATM   18  C   UNL     1      42.733  -7.123  10.305  1.00  0.00     0.033 A 
ENDBRANCH   9  12
ENDBRANCH   1   5
BRANCH   2  19
HETATM   19  C   UNL     1      42.996 -13.896   5.861  1.00  0.00     0.159 C 
BRANCH  19  20
HETATM   20  C   UNL     1      43.577 -15.237   6.374  1.00  0.00     0.169 C 
BRANCH  20  21
HETATM   21  O   UNL     1      42.767 -15.774   7.420  1.00  0.00    -0.389 OA
HETATM   22  H   UNL     1      42.851 -16.750   7.350  1.00  0.00     0.210 HD
ENDBRANCH  20  21
BRANCH  20  23
HETATM   23  C   UNL     1      43.621 -16.277   5.271  1.00  0.00    -0.028 A 
HETATM   24  C   UNL     1      44.129 -17.561   5.528  1.00  0.00     0.013 A 
HETATM   25  C   UNL     1      44.178 -18.519   4.514  1.00  0.00     0.043 A 
HETATM   26  C   UNL     1      43.719 -18.197   3.242  1.00  0.00     0.116 A 
HETATM   27  F   UNL     1      43.766 -19.119   2.271  1.00  0.00    -0.206 F 
HETATM   28  C   UNL     1      43.210 -16.935   2.964  1.00  0.00     0.043 A 
HETATM   29  C   UNL     1      43.159 -15.977   3.976  1.00  0.00     0.013 A 
ENDBRANCH  20  23
ENDBRANCH  19  20
ENDBRANCH   2  19
TORSDOF 6
ENDMDL
MODEL 5
REMARK VINA RESULT:      -8.0      7.359      9.849
REMARK  6 active torsions:
REMARK  status: ('A' for Active; 'I' for Inactive)
REMARK    1  A    between atoms: N_4  and  C_5 
REMARK    2  A    between atoms: C_14  and  C_15 
REMARK       I    between atoms: C_15  and  N_16 
REMARK    3  A    between atoms: N_16  and  C_17 
REMARK    4  A    between atoms: C_17  and  C_18 
REMARK    5  A    between atoms: C_18  and  O_19 
REMARK    6  A    between atoms: C_18  and  C_20 
ROOT
HETATM    1  C   UNL     1      40.740 -14.739   0.861  1.00  0.00     0.255 C 
HETATM    2  N   UNL     1      42.098 -14.717   1.090  1.00  0.00    -0.354 N 
HETATM    3  O   UNL     1      40.061 -15.737   1.075  1.00  0.00    -0.268 OA
HETATM    4  H   UNL     1      42.609 -13.961   0.658  1.00  0.00     0.162 HD
ENDROOT
BRANCH   1   5
HETATM    5  C   UNL     1      40.164 -13.521   0.297  1.00  0.00     0.082 C 
HETATM    6  C   UNL     1      39.877 -12.334   1.022  1.00  0.00     0.069 C 
HETATM    7  C   UNL     1      40.085 -12.067   2.469  1.00  0.00     0.073 C 
HETATM    8  N   UNL     1      39.379 -11.378   0.240  1.00  0.00    -0.171 NA
HETATM    9  N   UNL     1      39.229 -11.949  -0.979  1.00  0.00    -0.237 N 
HETATM   10  C   UNL     1      39.852 -13.196  -1.025  1.00  0.00     0.050 C 
HETATM   11  C   UNL     1      40.190 -13.906  -2.288  1.00  0.00     0.071 C 
BRANCH   9  12
HETATM   12  C   UNL     1      38.493 -11.239  -1.978  1.00  0.00     0.058 A 
HETATM   13  C   UNL     1      39.176 -10.334  -2.810  1.00  0.00     0.033 A 
HETATM   14  C   UNL     1      38.493  -9.605  -3.787  1.00  0.00     0.021 A 
HETATM   15  C   UNL     1      37.117  -9.762  -3.925  1.00  0.00     0.011 A 
HETATM   16 BR   UNL     1      36.185  -8.770  -5.236  1.00  0.00    -0.051 Br
HETATM   17  C   UNL     1      36.421 -10.635  -3.092  1.00  0.00     0.021 A 
HETATM   18  C   UNL     1      37.106 -11.372  -2.117  1.00  0.00     0.033 A 
ENDBRANCH   9  12
ENDBRANCH   1   5
BRANCH   2  19
HETATM   19  C   UNL     1      42.878 -15.915   1.401  1.00  0.00     0.159 C 
BRANCH  19  20
HETATM   20  C   UNL     1      43.069 -16.232   2.905  1.00  0.00     0.169 C 
BRANCH  20  21
HETATM   21  O   UNL     1      41.889 -15.917   3.644  1.00  0.00    -0.389 OA
HETATM   22  H   UNL     1      42.199 -15.573   4.510  1.00  0.00     0.210 HD
ENDBRANCH  20  21
BRANCH  20  23
HETATM   23  C   UNL     1      43.349 -17.706   3.127  1.00  0.00    -0.028 A 
HETATM   24  C   UNL     1      43.924 -18.145   4.331  1.00  0.00     0.013 A 
HETATM   25  C   UNL     1      44.189 -19.500   4.537  1.00  0.00     0.043 A 
HETATM   26  C   UNL     1      43.882 -20.419   3.541  1.00  0.00     0.116 A 
HETATM   27  F   UNL     1      44.137 -21.719   3.741  1.00  0.00    -0.206 F 
HETATM   28  C   UNL     1      43.310 -20.010   2.342  1.00  0.00     0.043 A 
HETATM   29  C   UNL     1      43.043 -18.657   2.136  1.00  0.00     0.013 A 
ENDBRANCH  20  23
ENDBRANCH  19  20
ENDBRANCH   2  19
TORSDOF 6
ENDMDL
MODEL 6
REMARK VINA RESULT:      -8.0      4.482      8.731
REMARK  6 active torsions:
REMARK  status: ('A' for Active; 'I' for Inactive)
REMARK    1  A    between atoms: N_4  and  C_5 
REMARK    2  A    between atoms: C_14  and  C_15 
REMARK       I    between atoms: C_15  and  N_16 
REMARK    3  A    between atoms: N_16  and  C_17 
REMARK    4  A    between atoms: C_17  and  C_18 
REMARK    5  A    between atoms: C_18  and  O_19 
REMARK    6  A    between atoms: C_18  and  C_20 
ROOT
HETATM    1  C   UNL     1      41.894 -10.942   5.978  1.00  0.00     0.255 C 
HETATM    2  N   UNL     1      41.213 -10.720   7.154  1.00  0.00    -0.354 N 
HETATM    3  O   UNL     1      41.976 -10.088   5.102  1.00  0.00    -0.268 OA
HETATM    4  H   UNL     1      40.982 -11.539   7.696  1.00  0.00     0.162 HD
ENDROOT
BRANCH   1   5
HETATM    5  C   UNL     1      42.467 -12.276   5.811  1.00  0.00     0.082 C 
HETATM    6  C   UNL     1      43.688 -12.724   6.381  1.00  0.00     0.069 C 
HETATM    7  C   UNL     1      44.632 -11.968   7.245  1.00  0.00     0.073 C 
HETATM    8  N   UNL     1      43.946 -13.994   6.076  1.00  0.00    -0.171 NA
HETATM    9  N   UNL     1      42.966 -14.367   5.219  1.00  0.00    -0.237 N 
HETATM   10  C   UNL     1      41.957 -13.405   5.167  1.00  0.00     0.050 C 
HETATM   11  C   UNL     1      40.595 -13.663   4.627  1.00  0.00     0.071 C 
BRANCH   9  12
HETATM   12  C   UNL     1      43.101 -15.611   4.528  1.00  0.00     0.058 A 
HETATM   13  C   UNL     1      43.396 -16.771   5.269  1.00  0.00     0.033 A 
HETATM   14  C   UNL     1      43.556 -18.004   4.632  1.00  0.00     0.021 A 
HETATM   15  C   UNL     1      43.442 -18.084   3.248  1.00  0.00     0.011 A 
HETATM   16 BR   UNL     1      43.669 -19.746   2.379  1.00  0.00    -0.051 Br
HETATM   17  C   UNL     1      43.175 -16.940   2.497  1.00  0.00     0.021 A 
HETATM   18  C   UNL     1      43.008 -15.704   3.134  1.00  0.00     0.033 A 
ENDBRANCH   9  12
ENDBRANCH   1   5
BRANCH   2  19
HETATM   19  C   UNL     1      40.364  -9.549   7.379  1.00  0.00     0.159 C 
BRANCH  19  20
HETATM   20  C   UNL     1      40.626  -8.758   8.684  1.00  0.00     0.169 C 
BRANCH  20  21
HETATM   21  O   UNL     1      39.788  -9.230   9.741  1.00  0.00    -0.389 OA
HETATM   22  H   UNL     1      40.269  -9.030  10.573  1.00  0.00     0.210 HD
ENDBRANCH  20  21
BRANCH  20  23
HETATM   23  C   UNL     1      42.059  -8.923   9.150  1.00  0.00    -0.028 A 
HETATM   24  C   UNL     1      43.114  -8.356   8.415  1.00  0.00     0.013 A 
HETATM   25  C   UNL     1      44.435  -8.511   8.837  1.00  0.00     0.043 A 
HETATM   26  C   UNL     1      44.707  -9.232   9.993  1.00  0.00     0.116 A 
HETATM   27  F   UNL     1      45.976  -9.379  10.396  1.00  0.00    -0.206 F 
HETATM   28  C   UNL     1      43.683  -9.801  10.739  1.00  0.00     0.043 A 
HETATM   29  C   UNL     1      42.361  -9.645  10.320  1.00  0.00     0.013 A 
ENDBRANCH  20  23
ENDBRANCH  19  20
ENDBRANCH   2  19
TORSDOF 6
ENDMDL
MODEL 7
REMARK VINA RESULT:      -8.0     18.794     20.895
REMARK  6 active torsions:
REMARK  status: ('A' for Active; 'I' for Inactive)
REMARK    1  A    between atoms: N_4  and  C_5 
REMARK    2  A    between atoms: C_14  and  C_15 
REMARK       I    between atoms: C_15  and  N_16 
REMARK    3  A    between atoms: N_16  and  C_17 
REMARK    4  A    between atoms: C_17  and  C_18 
REMARK    5  A    between atoms: C_18  and  O_19 
REMARK    6  A    between atoms: C_18  and  C_20 
ROOT
HETATM    1  C   UNL     1      47.038 -28.983   1.683  1.00  0.00     0.255 C 
HETATM    2  N   UNL     1      45.912 -29.769   1.779  1.00  0.00    -0.354 N 
HETATM    3  O   UNL     1      46.989 -27.761   1.781  1.00  0.00    -0.268 OA
HETATM    4  H   UNL     1      46.001 -30.716   1.440  1.00  0.00     0.162 HD
ENDROOT
BRANCH   1   5
HETATM    5  C   UNL     1      48.289 -29.684   1.403  1.00  0.00     0.082 C 
HETATM    6  C   UNL     1      49.341 -29.892   2.333  1.00  0.00     0.069 C 
HETATM    7  C   UNL     1      49.414 -29.461   3.753  1.00  0.00     0.073 C 
HETATM    8  N   UNL     1      50.348 -30.585   1.802  1.00  0.00    -0.171 NA
HETATM    9  N   UNL     1      50.028 -30.747   0.497  1.00  0.00    -0.237 N 
HETATM   10  C   UNL     1      48.708 -30.362   0.256  1.00  0.00     0.050 C 
HETATM   11  C   UNL     1      47.941 -30.751  -0.958  1.00  0.00     0.071 C 
BRANCH   9  12
HETATM   12  C   UNL     1      51.026 -31.251  -0.393  1.00  0.00     0.058 A 
HETATM   13  C   UNL     1      51.831 -32.325   0.028  1.00  0.00     0.033 A 
HETATM   14  C   UNL     1      52.832 -32.837  -0.803  1.00  0.00     0.021 A 
HETATM   15  C   UNL     1      53.049 -32.263  -2.052  1.00  0.00     0.011 A 
HETATM   16 BR   UNL     1      54.409 -32.942  -3.174  1.00  0.00    -0.051 Br
HETATM   17  C   UNL     1      52.277 -31.182  -2.474  1.00  0.00     0.021 A 
HETATM   18  C   UNL     1      51.269 -30.673  -1.646  1.00  0.00     0.033 A 
ENDBRANCH   9  12
ENDBRANCH   1   5
BRANCH   2  19
HETATM   19  C   UNL     1      44.554 -29.225   1.795  1.00  0.00     0.159 C 
BRANCH  19  20
HETATM   20  C   UNL     1      43.588 -29.769   0.714  1.00  0.00     0.169 C 
BRANCH  20  21
HETATM   21  O   UNL     1      42.296 -29.174   0.841  1.00  0.00    -0.389 OA
HETATM   22  H   UNL     1      42.385 -28.487   1.537  1.00  0.00     0.210 HD
ENDBRANCH  20  21
BRANCH  20  23
HETATM   23  C   UNL     1      44.087 -29.448  -0.682  1.00  0.00    -0.028 A 
HETATM   24  C   UNL     1      43.944 -30.386  -1.719  1.00  0.00     0.013 A 
HETATM   25  C   UNL     1      44.407 -30.097  -3.004  1.00  0.00     0.043 A 
HETATM   26  C   UNL     1      45.015 -28.872  -3.256  1.00  0.00     0.116 A 
HETATM   27  F   UNL     1      45.458 -28.597  -4.489  1.00  0.00    -0.206 F 
HETATM   28  C   UNL     1      45.165 -27.928  -2.248  1.00  0.00     0.043 A 
HETATM   29  C   UNL     1      44.701 -28.214  -0.965  1.00  0.00     0.013 A 
ENDBRANCH  20  23
ENDBRANCH  19  20
ENDBRANCH   2  19
TORSDOF 6
ENDMDL
MODEL 8
REMARK VINA RESULT:      -7.7      4.530      9.078
REMARK  6 active torsions:
REMARK  status: ('A' for Active; 'I' for Inactive)
REMARK    1  A    between atoms: N_4  and  C_5 
REMARK    2  A    between atoms: C_14  and  C_15 
REMARK       I    between atoms: C_15  and  N_16 
REMARK    3  A    between atoms: N_16  and  C_17 
REMARK    4  A    between atoms: C_17  and  C_18 
REMARK    5  A    between atoms: C_18  and  O_19 
REMARK    6  A    between atoms: C_18  and  C_20 
ROOT
HETATM    1  C   UNL     1      41.946 -10.323   5.216  1.00  0.00     0.255 C 
HETATM    2  N   UNL     1      42.228 -10.042   6.535  1.00  0.00    -0.354 N 
HETATM    3  O   UNL     1      41.841  -9.440   4.371  1.00  0.00    -0.268 OA
HETATM    4  H   UNL     1      42.048 -10.784   7.195  1.00  0.00     0.162 HD
ENDROOT
BRANCH   1   5
HETATM    5  C   UNL     1      41.726 -11.730   4.892  1.00  0.00     0.082 C 
HETATM    6  C   UNL     1      40.585 -12.490   5.260  1.00  0.00     0.069 C 
HETATM    7  C   UNL     1      39.395 -12.047   6.033  1.00  0.00     0.073 C 
HETATM    8  N   UNL     1      40.648 -13.740   4.806  1.00  0.00    -0.171 NA
HETATM    9  N   UNL     1      41.869 -13.856   4.232  1.00  0.00    -0.237 N 
HETATM   10  C   UNL     1      42.483 -12.609   4.115  1.00  0.00     0.050 C 
HETATM   11  C   UNL     1      43.638 -12.336   3.216  1.00  0.00     0.071 C 
BRANCH   9  12
HETATM   12  C   UNL     1      42.327 -15.157   3.858  1.00  0.00     0.058 A 
HETATM   13  C   UNL     1      41.767 -15.774   2.724  1.00  0.00     0.033 A 
HETATM   14  C   UNL     1      42.171 -17.054   2.334  1.00  0.00     0.021 A 
HETATM   15  C   UNL     1      43.123 -17.734   3.087  1.00  0.00     0.011 A 
HETATM   16 BR   UNL     1      43.665 -19.469   2.573  1.00  0.00    -0.051 Br
HETATM   17  C   UNL     1      43.669 -17.147   4.228  1.00  0.00     0.021 A 
HETATM   18  C   UNL     1      43.270 -15.861   4.616  1.00  0.00     0.033 A 
ENDBRANCH   9  12
ENDBRANCH   1   5
BRANCH   2  19
HETATM   19  C   UNL     1      42.220  -8.686   7.085  1.00  0.00     0.159 C 
BRANCH  19  20
HETATM   20  C   UNL     1      43.423  -8.308   7.982  1.00  0.00     0.169 C 
BRANCH  20  21
HETATM   21  O   UNL     1      43.400  -6.916   8.303  1.00  0.00    -0.389 OA
HETATM   22  H   UNL     1      43.995  -6.482   7.655  1.00  0.00     0.210 HD
ENDBRANCH  20  21
BRANCH  20  23
HETATM   23  C   UNL     1      43.390  -9.064   9.296  1.00  0.00    -0.028 A 
HETATM   24  C   UNL     1      44.542  -9.717   9.767  1.00  0.00     0.013 A 
HETATM   25  C   UNL     1      44.514 -10.421  10.973  1.00  0.00     0.043 A 
HETATM   26  C   UNL     1      43.337 -10.473  11.710  1.00  0.00     0.116 A 
HETATM   27  F   UNL     1      43.313 -11.148  12.867  1.00  0.00    -0.206 F 
HETATM   28  C   UNL     1      42.186  -9.834  11.267  1.00  0.00     0.043 A 
HETATM   29  C   UNL     1      42.213  -9.129  10.064  1.00  0.00     0.013 A 
ENDBRANCH  20  23
ENDBRANCH  19  20
ENDBRANCH   2  19
TORSDOF 6
ENDMDL
MODEL 9
REMARK VINA RESULT:      -7.6      5.544      8.657
REMARK  6 active torsions:
REMARK  status: ('A' for Active; 'I' for Inactive)
REMARK    1  A    between atoms: N_4  and  C_5 
REMARK    2  A    between atoms: C_14  and  C_15 
REMARK       I    between atoms: C_15  and  N_16 
REMARK    3  A    between atoms: N_16  and  C_17 
REMARK    4  A    between atoms: C_17  and  C_18 
REMARK    5  A    between atoms: C_18  and  O_19 
REMARK    6  A    between atoms: C_18  and  C_20 
ROOT
HETATM    1  C   UNL     1      41.550 -11.424   1.953  1.00  0.00     0.255 C 
HETATM    2  N   UNL     1      40.264 -11.356   1.463  1.00  0.00    -0.354 N 
HETATM    3  O   UNL     1      42.360 -10.520   1.782  1.00  0.00    -0.268 OA
HETATM    4  H   UNL     1      39.755 -12.226   1.427  1.00  0.00     0.162 HD
ENDROOT
BRANCH   1   5
HETATM    5  C   UNL     1      41.909 -12.661   2.642  1.00  0.00     0.082 C 
HETATM    6  C   UNL     1      42.338 -12.756   3.992  1.00  0.00     0.069 C 
HETATM    7  C   UNL     1      42.517 -11.660   4.980  1.00  0.00     0.073 C 
HETATM    8  N   UNL     1      42.574 -14.015   4.356  1.00  0.00    -0.171 NA
HETATM    9  N   UNL     1      42.411 -14.753   3.231  1.00  0.00    -0.237 N 
HETATM   10  C   UNL     1      41.843 -13.988   2.212  1.00  0.00     0.050 C 
HETATM   11  C   UNL     1      41.203 -14.568   1.000  1.00  0.00     0.071 C 
BRANCH   9  12
HETATM   12  C   UNL     1      42.826 -16.120   3.247  1.00  0.00     0.058 A 
HETATM   13  C   UNL     1      42.430 -16.961   2.190  1.00  0.00     0.033 A 
HETATM   14  C   UNL     1      42.797 -18.310   2.175  1.00  0.00     0.021 A 
HETATM   15  C   UNL     1      43.544 -18.832   3.226  1.00  0.00     0.011 A 
HETATM   16 BR   UNL     1      44.033 -20.657   3.218  1.00  0.00    -0.051 Br
HETATM   17  C   UNL     1      43.922 -18.018   4.293  1.00  0.00     0.021 A 
HETATM   18  C   UNL     1      43.562 -16.665   4.306  1.00  0.00     0.033 A 
ENDBRANCH   9  12
ENDBRANCH   1   5
BRANCH   2  19
HETATM   19  C   UNL     1      39.815 -10.318   0.533  1.00  0.00     0.159 C 
BRANCH  19  20
HETATM   20  C   UNL     1      40.263 -10.484  -0.940  1.00  0.00     0.169 C 
BRANCH  20  21
HETATM   21  O   UNL     1      41.686 -10.441  -1.046  1.00  0.00    -0.389 OA
HETATM   22  H   UNL     1      41.918 -11.047  -1.783  1.00  0.00     0.210 HD
ENDBRANCH  20  21
BRANCH  20  23
HETATM   23  C   UNL     1      39.818 -11.820  -1.504  1.00  0.00    -0.028 A 
HETATM   24  C   UNL     1      38.476 -12.220  -1.404  1.00  0.00     0.013 A 
HETATM   25  C   UNL     1      38.064 -13.452  -1.916  1.00  0.00     0.043 A 
HETATM   26  C   UNL     1      38.992 -14.286  -2.528  1.00  0.00     0.116 A 
HETATM   27  F   UNL     1      38.593 -15.467  -3.019  1.00  0.00    -0.206 F 
HETATM   28  C   UNL     1      40.324 -13.912  -2.642  1.00  0.00     0.043 A 
HETATM   29  C   UNL     1      40.737 -12.681  -2.133  1.00  0.00     0.013 A 
ENDBRANCH  20  23
ENDBRANCH  19  20
ENDBRANCH   2  19
TORSDOF 6
ENDMDL
MODEL 10
REMARK VINA RESULT:      -7.5      6.419      9.089
REMARK  6 active torsions:
REMARK  status: ('A' for Active; 'I' for Inactive)
REMARK    1  A    between atoms: N_4  and  C_5 
REMARK    2  A    between atoms: C_14  and  C_15 
REMARK       I    between atoms: C_15  and  N_16 
REMARK    3  A    between atoms: N_16  and  C_17 
REMARK    4  A    between atoms: C_17  and  C_18 
REMARK    5  A    between atoms: C_18  and  O_19 
REMARK    6  A    between atoms: C_18  and  C_20 
ROOT
HETATM    1  C   UNL     1      42.237 -13.956   2.137  1.00  0.00     0.255 C 
HETATM    2  N   UNL     1      41.727 -14.189   3.395  1.00  0.00    -0.354 N 
HETATM    3  O   UNL     1      43.430 -14.084   1.884  1.00  0.00    -0.268 OA
HETATM    4  H   UNL     1      40.805 -13.822   3.576  1.00  0.00     0.162 HD
ENDROOT
BRANCH   1   5
HETATM    5  C   UNL     1      41.281 -13.493   1.133  1.00  0.00     0.082 C 
HETATM    6  C   UNL     1      40.263 -14.285   0.540  1.00  0.00     0.069 C 
HETATM    7  C   UNL     1      39.946 -15.715   0.791  1.00  0.00     0.073 C 
HETATM    8  N   UNL     1      39.527 -13.589  -0.325  1.00  0.00    -0.171 NA
HETATM    9  N   UNL     1      40.111 -12.369  -0.397  1.00  0.00    -0.237 N 
HETATM   10  C   UNL     1      41.076 -12.219   0.600  1.00  0.00     0.050 C 
HETATM   11  C   UNL     1      41.627 -10.904   1.027  1.00  0.00     0.071 C 
BRANCH   9  12
HETATM   12  C   UNL     1      39.688 -11.470  -1.424  1.00  0.00     0.058 A 
HETATM   13  C   UNL     1      38.349 -11.040  -1.440  1.00  0.00     0.033 A 
HETATM   14  C   UNL     1      37.887 -10.176  -2.437  1.00  0.00     0.021 A 
HETATM   15  C   UNL     1      38.756  -9.753  -3.437  1.00  0.00     0.011 A 
HETATM   16 BR   UNL     1      38.136  -8.595  -4.795  1.00  0.00    -0.051 Br
HETATM   17  C   UNL     1      40.080 -10.190  -3.451  1.00  0.00     0.021 A 
HETATM   18  C   UNL     1      40.546 -11.050  -2.448  1.00  0.00     0.033 A 
ENDBRANCH   9  12
ENDBRANCH   1   5
BRANCH   2  19
HETATM   19  C   UNL     1      42.569 -14.402   4.573  1.00  0.00     0.159 C 
BRANCH  19  20
HETATM   20  C   UNL     1      42.407 -15.765   5.289  1.00  0.00     0.169 C 
BRANCH  20  21
HETATM   21  O   UNL     1      41.030 -16.042   5.549  1.00  0.00    -0.389 OA
HETATM   22  H   UNL     1      40.551 -15.815   4.722  1.00  0.00     0.210 HD
ENDBRANCH  20  21
BRANCH  20  23
HETATM   23  C   UNL     1      42.931 -16.903   4.434  1.00  0.00    -0.028 A 
HETATM   24  C   UNL     1      44.036 -17.659   4.860  1.00  0.00     0.013 A 
HETATM   25  C   UNL     1      44.526 -18.702   4.073  1.00  0.00     0.043 A 
HETATM   26  C   UNL     1      43.915 -18.992   2.859  1.00  0.00     0.116 A 
HETATM   27  F   UNL     1      44.387 -19.995   2.106  1.00  0.00    -0.206 F 
HETATM   28  C   UNL     1      42.820 -18.261   2.416  1.00  0.00     0.043 A 
HETATM   29  C   UNL     1      42.327 -17.220   3.203  1.00  0.00     0.013 A 
ENDBRANCH  20  23
ENDBRANCH  19  20
ENDBRANCH   2  19
TORSDOF 6
ENDMDL
