MODEL 1
REMARK VINA RESULT:      -8.7      0.000      0.000
REMARK  3 active torsions:
REMARK  status: ('A' for Active; 'I' for Inactive)
REMARK    1  A    between atoms: C_9  and  C_10 
REMARK    2  A    between atoms: C_16  and  C_17 
REMARK       I    between atoms: C_17  and  N_18 
REMARK    3  A    between atoms: N_18  and  C_19 
ROOT
HETATM    1  C   UNL     1      42.897 -15.659   7.995  1.00  0.00     0.070 C 
HETATM    2  C   UNL     1      42.992 -14.613   6.914  1.00  0.00     0.037 A 
HETATM    3  N   UNL     1      43.356 -13.338   7.338  1.00  0.00    -0.191 N 
HETATM    4  C   UNL     1      43.658 -12.341   6.483  1.00  0.00     0.735 A 
HETATM    5  N   UNL     1      43.492 -12.537   5.140  1.00  0.00    -0.091 N 
HETATM    6  N   UNL     1      43.978 -11.486   4.455  1.00  0.00     0.012 NA
HETATM    7  N   UNL     1      44.356 -10.625   5.394  1.00  0.00     0.033 NA
HETATM    8  N   UNL     1      44.168 -11.146   6.660  1.00  0.00     0.030 NA
HETATM    9  C   UNL     1      43.008 -13.770   4.535  1.00  0.00     0.216 A 
HETATM   10  C   UNL     1      42.806 -14.850   5.592  1.00  0.00     0.063 A 
HETATM   11  H   UNL     1      43.550 -13.207   8.329  1.00  0.00     0.184 HD
ENDROOT
BRANCH  10  12
HETATM   12  C   UNL     1      42.468 -16.176   5.016  1.00  0.00     0.256 C 
HETATM   13  N   UNL     1      43.570 -16.889   4.603  1.00  0.00    -0.323 N 
HETATM   14  H   UNL     1      44.475 -16.479   4.802  1.00  0.00     0.169 HD
HETATM   15  O   UNL     1      41.293 -16.522   5.000  1.00  0.00    -0.267 OA
BRANCH  13  16
HETATM   16  C   UNL     1      43.585 -18.138   3.948  1.00  0.00     0.035 A 
HETATM   17  C   UNL     1      43.203 -18.326   2.619  1.00  0.00     0.029 A 
HETATM   18  C   UNL     1      43.265 -19.596   2.037  1.00  0.00     0.002 A 
HETATM   19  C   UNL     1      43.720 -20.686   2.775  1.00  0.00     0.000 A 
HETATM   20  C   UNL     1      44.105 -20.509   4.101  1.00  0.00     0.002 A 
HETATM   21  C   UNL     1      44.034 -19.242   4.686  1.00  0.00     0.029 A 
ENDBRANCH  13  16
ENDBRANCH  10  12
BRANCH   9  22
HETATM   22  C   UNL     1      41.732 -13.465   3.760  1.00  0.00     0.064 A 
HETATM   23  N   UNL     1      41.714 -13.729   2.423  1.00  0.00    -0.263 NA
HETATM   24  C   UNL     1      40.560 -13.493   1.758  1.00  0.00     0.117 A 
HETATM   25  C   UNL     1      39.413 -12.998   2.354  1.00  0.00     0.019 A 
HETATM   26  C   UNL     1      39.445 -12.728   3.716  1.00  0.00     0.003 A 
HETATM   27  C   UNL     1      40.615 -12.964   4.432  1.00  0.00     0.030 A 
ENDBRANCH   9  22
TORSDOF 3
ENDMDL
MODEL 2
REMARK VINA RESULT:      -8.4      0.738      1.124
REMARK  3 active torsions:
REMARK  status: ('A' for Active; 'I' for Inactive)
REMARK    1  A    between atoms: C_9  and  C_10 
REMARK    2  A    between atoms: C_16  and  C_17 
REMARK       I    between atoms: C_17  and  N_18 
REMARK    3  A    between atoms: N_18  and  C_19 
ROOT
HETATM    1  C   UNL     1      42.373 -15.713   7.556  1.00  0.00     0.070 C 
HETATM    2  C   UNL     1      42.592 -14.702   6.460  1.00  0.00     0.037 A 
HETATM    3  N   UNL     1      42.889 -13.409   6.883  1.00  0.00    -0.191 N 
HETATM    4  C   UNL     1      43.286 -12.436   6.038  1.00  0.00     0.735 A 
HETATM    5  N   UNL     1      43.288 -12.677   4.693  1.00  0.00    -0.091 N 
HETATM    6  N   UNL     1      43.845 -11.643   4.037  1.00  0.00     0.012 NA
HETATM    7  N   UNL     1      44.097 -10.747   4.986  1.00  0.00     0.033 NA
HETATM    8  N   UNL     1      43.758 -11.229   6.236  1.00  0.00     0.030 NA
HETATM    9  C   UNL     1      42.894 -13.936   4.075  1.00  0.00     0.216 A 
HETATM   10  C   UNL     1      42.573 -14.984   5.134  1.00  0.00     0.063 A 
HETATM   11  H   UNL     1      42.958 -13.243   7.885  1.00  0.00     0.184 HD
ENDROOT
BRANCH  10  12
HETATM   12  C   UNL     1      42.319 -16.332   4.566  1.00  0.00     0.256 C 
HETATM   13  N   UNL     1      43.457 -17.099   4.454  1.00  0.00    -0.323 N 
HETATM   14  H   UNL     1      44.309 -16.703   4.833  1.00  0.00     0.169 HD
HETATM   15  O   UNL     1      41.166 -16.645   4.300  1.00  0.00    -0.267 OA
BRANCH  13  16
HETATM   16  C   UNL     1      43.569 -18.385   3.886  1.00  0.00     0.035 A 
HETATM   17  C   UNL     1      43.349 -18.663   2.536  1.00  0.00     0.029 A 
HETATM   18  C   UNL     1      43.501 -19.964   2.047  1.00  0.00     0.002 A 
HETATM   19  C   UNL     1      43.882 -20.996   2.901  1.00  0.00     0.000 A 
HETATM   20  C   UNL     1      44.106 -20.729   4.249  1.00  0.00     0.002 A 
HETATM   21  C   UNL     1      43.946 -19.430   4.740  1.00  0.00     0.029 A 
ENDBRANCH  13  16
ENDBRANCH  10  12
BRANCH   9  22
HETATM   22  C   UNL     1      41.720 -13.673   3.139  1.00  0.00     0.064 A 
HETATM   23  N   UNL     1      40.550 -13.234   3.682  1.00  0.00    -0.263 NA
HETATM   24  C   UNL     1      39.532 -12.966   2.834  1.00  0.00     0.117 A 
HETATM   25  C   UNL     1      39.611 -13.117   1.461  1.00  0.00     0.019 A 
HETATM   26  C   UNL     1      40.806 -13.570   0.918  1.00  0.00     0.003 A 
HETATM   27  C   UNL     1      41.877 -13.852   1.762  1.00  0.00     0.030 A 
ENDBRANCH   9  22
TORSDOF 3
ENDMDL
MODEL 3
REMARK VINA RESULT:      -8.1      2.126      4.299
REMARK  3 active torsions:
REMARK  status: ('A' for Active; 'I' for Inactive)
REMARK    1  A    between atoms: C_9  and  C_10 
REMARK    2  A    between atoms: C_16  and  C_17 
REMARK       I    between atoms: C_17  and  N_18 
REMARK    3  A    between atoms: N_18  and  C_19 
ROOT
HETATM    1  C   UNL     1      39.848 -15.449   0.820  1.00  0.00     0.070 C 
HETATM    2  C   UNL     1      39.874 -14.343   1.843  1.00  0.00     0.037 A 
HETATM    3  N   UNL     1      39.306 -13.136   1.442  1.00  0.00    -0.191 N 
HETATM    4  C   UNL     1      39.089 -12.112   2.292  1.00  0.00     0.735 A 
HETATM    5  N   UNL     1      39.546 -12.199   3.577  1.00  0.00    -0.091 N 
HETATM    6  N   UNL     1      39.110 -11.150   4.296  1.00  0.00     0.012 NA
HETATM    7  N   UNL     1      38.464 -10.391   3.416  1.00  0.00     0.033 NA
HETATM    8  N   UNL     1      38.439 -10.980   2.167  1.00  0.00     0.030 NA
HETATM    9  C   UNL     1      40.263 -13.341   4.127  1.00  0.00     0.216 A 
HETATM   10  C   UNL     1      40.350 -14.471   3.107  1.00  0.00     0.063 A 
HETATM   11  H   UNL     1      38.901 -13.091   0.510  1.00  0.00     0.184 HD
ENDROOT
BRANCH  10  12
HETATM   12  C   UNL     1      40.929 -15.719   3.663  1.00  0.00     0.256 C 
HETATM   13  N   UNL     1      42.135 -16.062   3.095  1.00  0.00    -0.323 N 
HETATM   14  H   UNL     1      42.527 -15.402   2.433  1.00  0.00     0.169 HD
HETATM   15  O   UNL     1      40.331 -16.287   4.568  1.00  0.00    -0.267 OA
BRANCH  13  16
HETATM   16  C   UNL     1      42.899 -17.220   3.343  1.00  0.00     0.035 A 
HETATM   17  C   UNL     1      43.641 -17.431   4.506  1.00  0.00     0.029 A 
HETATM   18  C   UNL     1      44.359 -18.618   4.684  1.00  0.00     0.002 A 
HETATM   19  C   UNL     1      44.332 -19.609   3.706  1.00  0.00     0.000 A 
HETATM   20  C   UNL     1      43.594 -19.410   2.542  1.00  0.00     0.002 A 
HETATM   21  C   UNL     1      42.884 -18.219   2.360  1.00  0.00     0.029 A 
ENDBRANCH  13  16
ENDBRANCH  10  12
BRANCH   9  22
HETATM   22  C   UNL     1      41.635 -12.875   4.599  1.00  0.00     0.064 A 
HETATM   23  N   UNL     1      42.421 -12.194   3.718  1.00  0.00    -0.263 NA
HETATM   24  C   UNL     1      43.618 -11.750   4.165  1.00  0.00     0.117 A 
HETATM   25  C   UNL     1      44.084 -11.954   5.452  1.00  0.00     0.019 A 
HETATM   26  C   UNL     1      43.277 -12.654   6.340  1.00  0.00     0.003 A 
HETATM   27  C   UNL     1      42.037 -13.121   5.914  1.00  0.00     0.030 A 
ENDBRANCH   9  22
TORSDOF 3
ENDMDL
MODEL 4
REMARK VINA RESULT:      -7.9      2.889      6.025
REMARK  3 active torsions:
REMARK  status: ('A' for Active; 'I' for Inactive)
REMARK    1  A    between atoms: C_9  and  C_10 
REMARK    2  A    between atoms: C_16  and  C_17 
REMARK       I    between atoms: C_17  and  N_18 
REMARK    3  A    between atoms: N_18  and  C_19 
ROOT
HETATM    1  C   UNL     1      41.411 -10.027   1.171  1.00  0.00     0.070 C 
HETATM    2  C   UNL     1      41.809 -11.050   2.204  1.00  0.00     0.037 A 
HETATM    3  N   UNL     1      42.853 -10.681   3.048  1.00  0.00    -0.191 N 
HETATM    4  C   UNL     1      43.208 -11.402   4.131  1.00  0.00     0.735 A 
HETATM    5  N   UNL     1      42.608 -12.607   4.360  1.00  0.00    -0.091 N 
HETATM    6  N   UNL     1      42.991 -13.098   5.552  1.00  0.00     0.012 NA
HETATM    7  N   UNL     1      43.889 -12.224   5.996  1.00  0.00     0.033 NA
HETATM    8  N   UNL     1      44.030 -11.161   5.124  1.00  0.00     0.030 NA
HETATM    9  C   UNL     1      41.581 -13.197   3.512  1.00  0.00     0.216 A 
HETATM   10  C   UNL     1      41.191 -12.243   2.388  1.00  0.00     0.063 A 
HETATM   11  H   UNL     1      43.255  -9.754   2.926  1.00  0.00     0.184 HD
ENDROOT
BRANCH  10  12
HETATM   12  C   UNL     1      40.037 -12.722   1.587  1.00  0.00     0.256 C 
HETATM   13  N   UNL     1      40.322 -12.861   0.247  1.00  0.00    -0.323 N 
HETATM   14  H   UNL     1      41.284 -12.702  -0.029  1.00  0.00     0.169 HD
HETATM   15  O   UNL     1      38.991 -12.981   2.168  1.00  0.00    -0.267 OA
BRANCH  13  16
HETATM   16  C   UNL     1      39.431 -13.218  -0.785  1.00  0.00     0.035 A 
HETATM   17  C   UNL     1      38.392 -12.401  -1.235  1.00  0.00     0.029 A 
HETATM   18  C   UNL     1      37.562 -12.821  -2.279  1.00  0.00     0.002 A 
HETATM   19  C   UNL     1      37.770 -14.056  -2.889  1.00  0.00     0.000 A 
HETATM   20  C   UNL     1      38.804 -14.878  -2.449  1.00  0.00     0.002 A 
HETATM   21  C   UNL     1      39.628 -14.462  -1.399  1.00  0.00     0.029 A 
ENDBRANCH  13  16
ENDBRANCH  10  12
BRANCH   9  22
HETATM   22  C   UNL     1      42.087 -14.536   2.991  1.00  0.00     0.064 A 
HETATM   23  N   UNL     1      41.473 -15.671   3.432  1.00  0.00    -0.263 NA
HETATM   24  C   UNL     1      41.906 -16.849   2.928  1.00  0.00     0.117 A 
HETATM   25  C   UNL     1      42.931 -16.963   2.005  1.00  0.00     0.019 A 
HETATM   26  C   UNL     1      43.553 -15.802   1.567  1.00  0.00     0.003 A 
HETATM   27  C   UNL     1      43.129 -14.571   2.062  1.00  0.00     0.030 A 
ENDBRANCH   9  22
TORSDOF 3
ENDMDL
MODEL 5
REMARK VINA RESULT:      -7.8      2.166      4.298
REMARK  3 active torsions:
REMARK  status: ('A' for Active; 'I' for Inactive)
REMARK    1  A    between atoms: C_9  and  C_10 
REMARK    2  A    between atoms: C_16  and  C_17 
REMARK       I    between atoms: C_17  and  N_18 
REMARK    3  A    between atoms: N_18  and  C_19 
ROOT
HETATM    1  C   UNL     1      41.095 -13.224   0.561  1.00  0.00     0.070 C 
HETATM    2  C   UNL     1      40.988 -12.908   2.031  1.00  0.00     0.037 A 
HETATM    3  N   UNL     1      40.108 -11.883   2.366  1.00  0.00    -0.191 N 
HETATM    4  C   UNL     1      39.764 -11.599   3.639  1.00  0.00     0.735 A 
HETATM    5  N   UNL     1      40.386 -12.258   4.662  1.00  0.00    -0.091 N 
HETATM    6  N   UNL     1      39.809 -11.941   5.835  1.00  0.00     0.012 NA
HETATM    7  N   UNL     1      38.898 -11.025   5.519  1.00  0.00     0.033 NA
HETATM    8  N   UNL     1      38.857 -10.807   4.155  1.00  0.00     0.030 NA
HETATM    9  C   UNL     1      41.414 -13.275   4.492  1.00  0.00     0.216 A 
HETATM   10  C   UNL     1      41.635 -13.582   3.015  1.00  0.00     0.063 A 
HETATM   11  H   UNL     1      39.590 -11.439   1.610  1.00  0.00     0.184 HD
ENDROOT
BRANCH  10  12
HETATM   12  C   UNL     1      42.555 -14.724   2.785  1.00  0.00     0.256 C 
HETATM   13  N   UNL     1      42.097 -15.909   3.315  1.00  0.00    -0.323 N 
HETATM   14  H   UNL     1      41.171 -15.893   3.725  1.00  0.00     0.169 HD
HETATM   15  O   UNL     1      43.574 -14.529   2.135  1.00  0.00    -0.267 OA
BRANCH  13  16
HETATM   16  C   UNL     1      42.765 -17.151   3.337  1.00  0.00     0.035 A 
HETATM   17  C   UNL     1      43.554 -17.593   4.400  1.00  0.00     0.029 A 
HETATM   18  C   UNL     1      44.168 -18.849   4.353  1.00  0.00     0.002 A 
HETATM   19  C   UNL     1      43.990 -19.676   3.247  1.00  0.00     0.000 A 
HETATM   20  C   UNL     1      43.204 -19.246   2.182  1.00  0.00     0.002 A 
HETATM   21  C   UNL     1      42.597 -17.987   2.225  1.00  0.00     0.029 A 
ENDBRANCH  13  16
ENDBRANCH  10  12
BRANCH   9  22
HETATM   22  C   UNL     1      42.686 -12.806   5.187  1.00  0.00     0.064 A 
HETATM   23  N   UNL     1      43.375 -11.768   4.634  1.00  0.00    -0.263 NA
HETATM   24  C   UNL     1      44.478 -11.336   5.286  1.00  0.00     0.117 A 
HETATM   25  C   UNL     1      44.943 -11.888   6.467  1.00  0.00     0.019 A 
HETATM   26  C   UNL     1      44.236 -12.949   7.018  1.00  0.00     0.003 A 
HETATM   27  C   UNL     1      43.092 -13.416   6.376  1.00  0.00     0.030 A 
ENDBRANCH   9  22
TORSDOF 3
ENDMDL
MODEL 6
REMARK VINA RESULT:      -7.5      2.694      6.986
REMARK  3 active torsions:
REMARK  status: ('A' for Active; 'I' for Inactive)
REMARK    1  A    between atoms: C_9  and  C_10 
REMARK    2  A    between atoms: C_16  and  C_17 
REMARK       I    between atoms: C_17  and  N_18 
REMARK    3  A    between atoms: N_18  and  C_19 
ROOT
HETATM    1  C   UNL     1      40.622 -10.816   3.984  1.00  0.00     0.070 C 
HETATM    2  C   UNL     1      41.038 -12.258   3.849  1.00  0.00     0.037 A 
HETATM    3  N   UNL     1      40.088 -13.111   3.295  1.00  0.00    -0.191 N 
HETATM    4  C   UNL     1      40.364 -14.384   2.943  1.00  0.00     0.735 A 
HETATM    5  N   UNL     1      41.588 -14.911   3.243  1.00  0.00    -0.091 N 
HETATM    6  N   UNL     1      41.716 -16.130   2.689  1.00  0.00     0.012 NA
HETATM    7  N   UNL     1      40.533 -16.365   2.130  1.00  0.00     0.033 NA
HETATM    8  N   UNL     1      39.684 -15.285   2.277  1.00  0.00     0.030 NA
HETATM    9  C   UNL     1      42.656 -14.193   3.925  1.00  0.00     0.216 A 
HETATM   10  C   UNL     1      42.264 -12.741   4.172  1.00  0.00     0.063 A 
HETATM   11  H   UNL     1      39.201 -12.706   3.005  1.00  0.00     0.184 HD
ENDROOT
BRANCH  10  12
HETATM   12  C   UNL     1      43.373 -11.919   4.719  1.00  0.00     0.256 C 
HETATM   13  N   UNL     1      43.328 -11.786   6.089  1.00  0.00    -0.323 N 
HETATM   14  H   UNL     1      42.610 -12.313   6.571  1.00  0.00     0.169 HD
HETATM   15  O   UNL     1      44.216 -11.488   3.944  1.00  0.00    -0.267 OA
BRANCH  13  16
HETATM   16  C   UNL     1      44.181 -11.012   6.901  1.00  0.00     0.035 A 
HETATM   17  C   UNL     1      45.555 -11.230   7.019  1.00  0.00     0.029 A 
HETATM   18  C   UNL     1      46.336 -10.404   7.833  1.00  0.00     0.002 A 
HETATM   19  C   UNL     1      45.753  -9.346   8.527  1.00  0.00     0.000 A 
HETATM   20  C   UNL     1      44.385  -9.119   8.415  1.00  0.00     0.002 A 
HETATM   21  C   UNL     1      43.601  -9.950   7.609  1.00  0.00     0.029 A 
ENDBRANCH  13  16
ENDBRANCH  10  12
BRANCH   9  22
HETATM   22  C   UNL     1      42.996 -14.933   5.214  1.00  0.00     0.064 A 
HETATM   23  N   UNL     1      42.220 -14.703   6.311  1.00  0.00    -0.263 NA
HETATM   24  C   UNL     1      42.509 -15.399   7.434  1.00  0.00     0.117 A 
HETATM   25  C   UNL     1      43.542 -16.315   7.530  1.00  0.00     0.019 A 
HETATM   26  C   UNL     1      44.329 -16.537   6.408  1.00  0.00     0.003 A 
HETATM   27  C   UNL     1      44.057 -15.841   5.233  1.00  0.00     0.030 A 
ENDBRANCH   9  22
TORSDOF 3
ENDMDL
MODEL 7
REMARK VINA RESULT:      -7.3      2.422      6.206
REMARK  3 active torsions:
REMARK  status: ('A' for Active; 'I' for Inactive)
REMARK    1  A    between atoms: C_9  and  C_10 
REMARK    2  A    between atoms: C_16  and  C_17 
REMARK       I    between atoms: C_17  and  N_18 
REMARK    3  A    between atoms: N_18  and  C_19 
ROOT
HETATM    1  C   UNL     1      43.590 -15.058   6.685  1.00  0.00     0.070 C 
HETATM    2  C   UNL     1      43.139 -15.752   5.426  1.00  0.00     0.037 A 
HETATM    3  N   UNL     1      44.041 -16.663   4.882  1.00  0.00    -0.191 N 
HETATM    4  C   UNL     1      43.722 -17.492   3.868  1.00  0.00     0.735 A 
HETATM    5  N   UNL     1      42.506 -17.366   3.258  1.00  0.00    -0.091 N 
HETATM    6  N   UNL     1      42.325 -18.366   2.377  1.00  0.00     0.012 NA
HETATM    7  N   UNL     1      43.470 -19.040   2.399  1.00  0.00     0.033 NA
HETATM    8  N   UNL     1      44.347 -18.509   3.326  1.00  0.00     0.030 NA
HETATM    9  C   UNL     1      41.491 -16.389   3.624  1.00  0.00     0.216 A 
HETATM   10  C   UNL     1      41.924 -15.587   4.846  1.00  0.00     0.063 A 
HETATM   11  H   UNL     1      44.919 -16.810   5.376  1.00  0.00     0.184 HD
ENDROOT
BRANCH  10  12
HETATM   12  C   UNL     1      40.863 -14.686   5.363  1.00  0.00     0.256 C 
HETATM   13  N   UNL     1      40.871 -13.442   4.774  1.00  0.00    -0.323 N 
HETATM   14  H   UNL     1      41.530 -13.303   4.017  1.00  0.00     0.169 HD
HETATM   15  O   UNL     1      40.083 -15.124   6.198  1.00  0.00    -0.267 OA
BRANCH  13  16
HETATM   16  C   UNL     1      40.051 -12.340   5.094  1.00  0.00     0.035 A 
HETATM   17  C   UNL     1      39.721 -11.965   6.397  1.00  0.00     0.029 A 
HETATM   18  C   UNL     1      38.917 -10.845   6.630  1.00  0.00     0.002 A 
HETATM   19  C   UNL     1      38.444 -10.085   5.564  1.00  0.00     0.000 A 
HETATM   20  C   UNL     1      38.768 -10.449   4.260  1.00  0.00     0.002 A 
HETATM   21  C   UNL     1      39.565 -11.574   4.025  1.00  0.00     0.029 A 
ENDBRANCH  13  16
ENDBRANCH  10  12
BRANCH   9  22
HETATM   22  C   UNL     1      41.208 -15.503   2.416  1.00  0.00     0.064 A 
HETATM   23  N   UNL     1      42.027 -14.437   2.195  1.00  0.00    -0.263 NA
HETATM   24  C   UNL     1      41.788 -13.686   1.096  1.00  0.00     0.117 A 
HETATM   25  C   UNL     1      40.764 -13.936   0.198  1.00  0.00     0.019 A 
HETATM   26  C   UNL     1      39.932 -15.022   0.437  1.00  0.00     0.003 A 
HETATM   27  C   UNL     1      40.153 -15.819   1.557  1.00  0.00     0.030 A 
ENDBRANCH   9  22
TORSDOF 3
ENDMDL
MODEL 8
REMARK VINA RESULT:      -7.2      3.956      6.174
REMARK  3 active torsions:
REMARK  status: ('A' for Active; 'I' for Inactive)
REMARK    1  A    between atoms: C_9  and  C_10 
REMARK    2  A    between atoms: C_16  and  C_17 
REMARK       I    between atoms: C_17  and  N_18 
REMARK    3  A    between atoms: N_18  and  C_19 
ROOT
HETATM    1  C   UNL     1      40.271 -10.545   2.973  1.00  0.00     0.070 C 
HETATM    2  C   UNL     1      40.417 -10.669   1.478  1.00  0.00     0.037 A 
HETATM    3  N   UNL     1      40.361  -9.475   0.765  1.00  0.00    -0.191 N 
HETATM    4  C   UNL     1      40.651  -9.393  -0.550  1.00  0.00     0.735 A 
HETATM    5  N   UNL     1      40.899 -10.538  -1.253  1.00  0.00    -0.091 N 
HETATM    6  N   UNL     1      41.304 -10.238  -2.500  1.00  0.00     0.012 NA
HETATM    7  N   UNL     1      41.215  -8.913  -2.567  1.00  0.00     0.033 NA
HETATM    8  N   UNL     1      40.814  -8.375  -1.359  1.00  0.00     0.030 NA
HETATM    9  C   UNL     1      40.883 -11.880  -0.687  1.00  0.00     0.216 A 
HETATM   10  C   UNL     1      40.651 -11.832   0.819  1.00  0.00     0.063 A 
HETATM   11  H   UNL     1      40.247  -8.613   1.294  1.00  0.00     0.184 HD
ENDROOT
BRANCH  10  12
HETATM   12  C   UNL     1      40.783 -13.157   1.475  1.00  0.00     0.256 C 
HETATM   13  N   UNL     1      42.079 -13.466   1.823  1.00  0.00    -0.323 N 
HETATM   14  H   UNL     1      42.773 -12.744   1.670  1.00  0.00     0.169 HD
HETATM   15  O   UNL     1      39.768 -13.810   1.680  1.00  0.00    -0.267 OA
BRANCH  13  16
HETATM   16  C   UNL     1      42.549 -14.670   2.385  1.00  0.00     0.035 A 
HETATM   17  C   UNL     1      42.794 -14.851   3.748  1.00  0.00     0.029 A 
HETATM   18  C   UNL     1      43.242 -16.085   4.230  1.00  0.00     0.002 A 
HETATM   19  C   UNL     1      43.439 -17.151   3.356  1.00  0.00     0.000 A 
HETATM   20  C   UNL     1      43.197 -16.982   1.995  1.00  0.00     0.002 A 
HETATM   21  C   UNL     1      42.758 -15.746   1.512  1.00  0.00     0.029 A 
ENDBRANCH  13  16
ENDBRANCH  10  12
BRANCH   9  22
HETATM   22  C   UNL     1      39.827 -12.704  -1.414  1.00  0.00     0.064 A 
HETATM   23  N   UNL     1      38.531 -12.284  -1.355  1.00  0.00    -0.263 NA
HETATM   24  C   UNL     1      37.613 -13.002  -2.040  1.00  0.00     0.117 A 
HETATM   25  C   UNL     1      37.913 -14.131  -2.783  1.00  0.00     0.019 A 
HETATM   26  C   UNL     1      39.235 -14.553  -2.831  1.00  0.00     0.003 A 
HETATM   27  C   UNL     1      40.208 -13.834  -2.142  1.00  0.00     0.030 A 
ENDBRANCH   9  22
TORSDOF 3
ENDMDL
MODEL 9
REMARK VINA RESULT:      -7.2      2.588      6.462
REMARK  3 active torsions:
REMARK  status: ('A' for Active; 'I' for Inactive)
REMARK    1  A    between atoms: C_9  and  C_10 
REMARK    2  A    between atoms: C_16  and  C_17 
REMARK       I    between atoms: C_17  and  N_18 
REMARK    3  A    between atoms: N_18  and  C_19 
ROOT
HETATM    1  C   UNL     1      39.004 -11.427   5.120  1.00  0.00     0.070 C 
HETATM    2  C   UNL     1      39.639 -11.929   3.849  1.00  0.00     0.037 A 
HETATM    3  N   UNL     1      38.850 -11.842   2.705  1.00  0.00    -0.191 N 
HETATM    4  C   UNL     1      39.329 -12.079   1.466  1.00  0.00     0.735 A 
HETATM    5  N   UNL     1      40.607 -12.538   1.319  1.00  0.00    -0.091 N 
HETATM    6  N   UNL     1      40.939 -12.575   0.016  1.00  0.00     0.012 NA
HETATM    7  N   UNL     1      39.827 -12.219  -0.619  1.00  0.00     0.033 NA
HETATM    8  N   UNL     1      38.818 -11.903   0.272  1.00  0.00     0.030 NA
HETATM    9  C   UNL     1      41.528 -12.796   2.417  1.00  0.00     0.216 A 
HETATM   10  C   UNL     1      40.911 -12.389   3.750  1.00  0.00     0.063 A 
HETATM   11  H   UNL     1      37.923 -11.434   2.800  1.00  0.00     0.184 HD
ENDROOT
BRANCH  10  12
HETATM   12  C   UNL     1      41.862 -12.478   4.887  1.00  0.00     0.256 C 
HETATM   13  N   UNL     1      42.601 -11.332   5.072  1.00  0.00    -0.323 N 
HETATM   14  H   UNL     1      42.368 -10.543   4.480  1.00  0.00     0.169 HD
HETATM   15  O   UNL     1      41.874 -13.503   5.558  1.00  0.00    -0.267 OA
BRANCH  13  16
HETATM   16  C   UNL     1      43.635 -11.122   6.007  1.00  0.00     0.035 A 
HETATM   17  C   UNL     1      43.434 -10.619   7.293  1.00  0.00     0.029 A 
HETATM   18  C   UNL     1      44.513 -10.459   8.168  1.00  0.00     0.002 A 
HETATM   19  C   UNL     1      45.800 -10.809   7.769  1.00  0.00     0.000 A 
HETATM   20  C   UNL     1      46.012 -11.314   6.488  1.00  0.00     0.002 A 
HETATM   21  C   UNL     1      44.935 -11.466   5.610  1.00  0.00     0.029 A 
ENDBRANCH  13  16
ENDBRANCH  10  12
BRANCH   9  22
HETATM   22  C   UNL     1      41.929 -14.265   2.384  1.00  0.00     0.064 A 
HETATM   23  N   UNL     1      41.003 -15.193   2.756  1.00  0.00    -0.263 NA
HETATM   24  C   UNL     1      41.360 -16.495   2.681  1.00  0.00     0.117 A 
HETATM   25  C   UNL     1      42.604 -16.930   2.257  1.00  0.00     0.019 A 
HETATM   26  C   UNL     1      43.542 -15.976   1.885  1.00  0.00     0.003 A 
HETATM   27  C   UNL     1      43.206 -14.627   1.946  1.00  0.00     0.030 A 
ENDBRANCH   9  22
TORSDOF 3
ENDMDL
MODEL 10
REMARK VINA RESULT:      -7.1      2.457      5.216
REMARK  3 active torsions:
REMARK  status: ('A' for Active; 'I' for Inactive)
REMARK    1  A    between atoms: C_9  and  C_10 
REMARK    2  A    between atoms: C_16  and  C_17 
REMARK       I    between atoms: C_17  and  N_18 
REMARK    3  A    between atoms: N_18  and  C_19 
ROOT
HETATM    1  C   UNL     1      42.157 -17.369   2.817  1.00  0.00     0.070 C 
HETATM    2  C   UNL     1      42.303 -16.337   3.906  1.00  0.00     0.037 A 
HETATM    3  N   UNL     1      42.343 -16.833   5.206  1.00  0.00    -0.191 N 
HETATM    4  C   UNL     1      42.648 -16.066   6.273  1.00  0.00     0.735 A 
HETATM    5  N   UNL     1      42.812 -14.720   6.104  1.00  0.00    -0.091 N 
HETATM    6  N   UNL     1      43.247 -14.160   7.247  1.00  0.00     0.012 NA
HETATM    7  N   UNL     1      43.260 -15.160   8.122  1.00  0.00     0.033 NA
HETATM    8  N   UNL     1      42.894 -16.353   7.528  1.00  0.00     0.030 NA
HETATM    9  C   UNL     1      42.688 -14.021   4.833  1.00  0.00     0.216 A 
HETATM   10  C   UNL     1      42.451 -15.005   3.693  1.00  0.00     0.063 A 
HETATM   11  H   UNL     1      42.293 -17.842   5.329  1.00  0.00     0.184 HD
ENDROOT
BRANCH  10  12
HETATM   12  C   UNL     1      42.477 -14.368   2.353  1.00  0.00     0.256 C 
HETATM   13  N   UNL     1      41.225 -14.056   1.873  1.00  0.00    -0.323 N 
HETATM   14  H   UNL     1      40.446 -14.217   2.501  1.00  0.00     0.169 HD
HETATM   15  O   UNL     1      43.563 -14.146   1.833  1.00  0.00    -0.267 OA
BRANCH  13  16
HETATM   16  C   UNL     1      40.902 -13.518   0.610  1.00  0.00     0.035 A 
HETATM   17  C   UNL     1      41.142 -12.193   0.242  1.00  0.00     0.029 A 
HETATM   18  C   UNL     1      40.809 -11.742  -1.039  1.00  0.00     0.002 A 
HETATM   19  C   UNL     1      40.244 -12.614  -1.966  1.00  0.00     0.000 A 
HETATM   20  C   UNL     1      40.001 -13.938  -1.610  1.00  0.00     0.002 A 
HETATM   21  C   UNL     1      40.325 -14.387  -0.326  1.00  0.00     0.029 A 
ENDBRANCH  13  16
ENDBRANCH  10  12
BRANCH   9  22
HETATM   22  C   UNL     1      41.577 -12.985   4.950  1.00  0.00     0.064 A 
HETATM   23  N   UNL     1      40.295 -13.430   5.077  1.00  0.00    -0.263 NA
HETATM   24  C   UNL     1      39.325 -12.499   5.223  1.00  0.00     0.117 A 
HETATM   25  C   UNL     1      39.561 -11.135   5.243  1.00  0.00     0.019 A 
HETATM   26  C   UNL     1      40.870 -10.693   5.107  1.00  0.00     0.003 A 
HETATM   27  C   UNL     1      41.894 -11.625   4.960  1.00  0.00     0.030 A 
ENDBRANCH   9  22
TORSDOF 3
ENDMDL
