MODEL 1
REMARK VINA RESULT:      -6.0      0.000      0.000
REMARK  2 active torsions:
REMARK  status: ('A' for Active; 'I' for Inactive)
REMARK    1  A    between atoms: N_7  and  C_9 
REMARK    2  A    between atoms: C_9  and  C_10 
ROOT
HETATM    1  C   UNL     1      39.575 -13.819  -1.830  1.00  0.00     0.136 A 
HETATM    2  N   UNL     1      39.413 -14.890  -0.986  1.00  0.00    -0.244 NA
HETATM    3  C   UNL     1      40.074 -14.584   0.107  1.00  0.00     0.131 A 
HETATM    4  N   UNL     1      40.659 -13.350  -0.014  1.00  0.00    -0.341 N 
HETATM    5  C   UNL     1      41.511 -12.749   0.990  1.00  0.00     0.157 C 
HETATM    6  C   UNL     1      41.335 -13.416   2.358  1.00  0.00     0.256 C 
HETATM    7  N   UNL     1      41.345 -14.932   2.223  1.00  0.00    -0.059 N 
HETATM    8  H   UNL     1      42.205 -15.206   1.732  1.00  0.00     0.280 HD
HETATM    9  C   UNL     1      40.196 -15.394   1.344  1.00  0.00     0.313 C 
HETATM   10  C   UNL     1      40.352 -12.848  -1.240  1.00  0.00     0.111 A 
ENDROOT
BRANCH   7  11
HETATM   11  C   UNL     1      41.344 -15.668   3.537  1.00  0.00     0.274 C 
BRANCH  11  12
HETATM   12  C   UNL     1      42.334 -16.788   3.569  1.00  0.00    -0.024 A 
HETATM   13  C   UNL     1      43.325 -16.946   4.525  1.00  0.00     0.059 A 
HETATM   14  S   UNL     1      44.271 -18.352   4.273  1.00  0.00    -0.094 SA
HETATM   15  C   UNL     1      43.399 -18.744   2.879  1.00  0.00     0.051 A 
HETATM   16 BR   UNL     1      43.763 -20.251   1.830  1.00  0.00    -0.043 Br
HETATM   17  C   UNL     1      42.398 -17.847   2.597  1.00  0.00     0.036 A 
ENDBRANCH  11  12
ENDBRANCH   7  11
TORSDOF 2
ENDMDL
MODEL 2
REMARK VINA RESULT:      -5.9      3.550      6.404
REMARK  2 active torsions:
REMARK  status: ('A' for Active; 'I' for Inactive)
REMARK    1  A    between atoms: N_7  and  C_9 
REMARK    2  A    between atoms: C_9  and  C_10 
ROOT
HETATM    1  C   UNL     1      43.460 -16.879   7.170  1.00  0.00     0.136 A 
HETATM    2  N   UNL     1      42.204 -16.388   6.909  1.00  0.00    -0.244 NA
HETATM    3  C   UNL     1      42.065 -16.444   5.604  1.00  0.00     0.131 A 
HETATM    4  N   UNL     1      43.198 -16.951   5.020  1.00  0.00    -0.341 N 
HETATM    5  C   UNL     1      43.391 -17.081   3.592  1.00  0.00     0.157 C 
HETATM    6  C   UNL     1      42.063 -17.018   2.830  1.00  0.00     0.256 C 
HETATM    7  N   UNL     1      41.206 -15.867   3.336  1.00  0.00    -0.059 N 
HETATM    8  H   UNL     1      41.761 -15.003   3.281  1.00  0.00     0.280 HD
HETATM    9  C   UNL     1      40.875 -16.057   4.807  1.00  0.00     0.313 C 
HETATM   10  C   UNL     1      44.096 -17.232   6.002  1.00  0.00     0.111 A 
ENDROOT
BRANCH   7  11
HETATM   11  C   UNL     1      39.955 -15.629   2.532  1.00  0.00     0.274 C 
BRANCH  11  12
HETATM   12  C   UNL     1      40.171 -14.674   1.402  1.00  0.00    -0.024 A 
HETATM   13  C   UNL     1      40.686 -13.393   1.532  1.00  0.00     0.059 A 
HETATM   14  S   UNL     1      40.821 -12.578   0.031  1.00  0.00    -0.094 SA
HETATM   15  C   UNL     1      40.167 -13.900  -0.797  1.00  0.00     0.051 A 
HETATM   16 BR   UNL     1      39.899 -13.920  -2.649  1.00  0.00    -0.043 Br
HETATM   17  C   UNL     1      39.856 -14.954   0.026  1.00  0.00     0.036 A 
ENDBRANCH  11  12
ENDBRANCH   7  11
TORSDOF 2
ENDMDL
MODEL 3
REMARK VINA RESULT:      -5.8      1.398      1.751
REMARK  2 active torsions:
REMARK  status: ('A' for Active; 'I' for Inactive)
REMARK    1  A    between atoms: N_7  and  C_9 
REMARK    2  A    between atoms: C_9  and  C_10 
ROOT
HETATM    1  C   UNL     1      40.568 -12.584  -3.016  1.00  0.00     0.136 A 
HETATM    2  N   UNL     1      40.099 -13.790  -2.555  1.00  0.00    -0.244 NA
HETATM    3  C   UNL     1      40.217 -13.741  -1.248  1.00  0.00     0.131 A 
HETATM    4  N   UNL     1      40.754 -12.541  -0.857  1.00  0.00    -0.341 N 
HETATM    5  C   UNL     1      41.073 -12.197   0.511  1.00  0.00     0.157 C 
HETATM    6  C   UNL     1      40.353 -13.108   1.510  1.00  0.00     0.256 C 
HETATM    7  N   UNL     1      40.472 -14.566   1.090  1.00  0.00    -0.059 N 
HETATM    8  H   UNL     1      41.469 -14.786   0.968  1.00  0.00     0.280 HD
HETATM    9  C   UNL     1      39.826 -14.783  -0.268  1.00  0.00     0.313 C 
HETATM   10  C   UNL     1      40.984 -11.792  -1.970  1.00  0.00     0.111 A 
ENDROOT
BRANCH   7  11
HETATM   11  C   UNL     1      39.935 -15.545   2.102  1.00  0.00     0.274 C 
BRANCH  11  12
HETATM   12  C   UNL     1      41.005 -16.114   2.976  1.00  0.00    -0.024 A 
HETATM   13  C   UNL     1      41.232 -15.751   4.294  1.00  0.00     0.059 A 
HETATM   14  S   UNL     1      42.527 -16.617   5.007  1.00  0.00    -0.094 SA
HETATM   15  C   UNL     1      42.819 -17.455   3.568  1.00  0.00     0.051 A 
HETATM   16 BR   UNL     1      44.180 -18.726   3.378  1.00  0.00    -0.043 Br
HETATM   17  C   UNL     1      41.957 -17.109   2.557  1.00  0.00     0.036 A 
ENDBRANCH  11  12
ENDBRANCH   7  11
TORSDOF 2
ENDMDL
MODEL 4
REMARK VINA RESULT:      -5.7      3.082      4.589
REMARK  2 active torsions:
REMARK  status: ('A' for Active; 'I' for Inactive)
REMARK    1  A    between atoms: N_7  and  C_9 
REMARK    2  A    between atoms: C_9  and  C_10 
ROOT
HETATM    1  C   UNL     1      41.849 -10.207   6.341  1.00  0.00     0.136 A 
HETATM    2  N   UNL     1      42.830 -10.710   5.522  1.00  0.00    -0.244 NA
HETATM    3  C   UNL     1      42.309 -11.775   4.956  1.00  0.00     0.131 A 
HETATM    4  N   UNL     1      41.024 -11.971   5.391  1.00  0.00    -0.341 N 
HETATM    5  C   UNL     1      40.195 -13.094   5.007  1.00  0.00     0.157 C 
HETATM    6  C   UNL     1      40.721 -13.784   3.744  1.00  0.00     0.256 C 
HETATM    7  N   UNL     1      42.224 -14.001   3.837  1.00  0.00    -0.059 N 
HETATM    8  H   UNL     1      42.424 -14.512   4.707  1.00  0.00     0.280 HD
HETATM    9  C   UNL     1      42.947 -12.670   3.960  1.00  0.00     0.313 C 
HETATM   10  C   UNL     1      40.715 -10.983   6.274  1.00  0.00     0.111 A 
ENDROOT
BRANCH   7  11
HETATM   11  C   UNL     1      42.800 -14.821   2.712  1.00  0.00     0.274 C 
BRANCH  11  12
HETATM   12  C   UNL     1      43.171 -16.204   3.141  1.00  0.00    -0.024 A 
HETATM   13  C   UNL     1      43.625 -16.549   4.405  1.00  0.00     0.059 A 
HETATM   14  S   UNL     1      43.937 -18.227   4.561  1.00  0.00    -0.094 SA
HETATM   15  C   UNL     1      43.508 -18.503   2.949  1.00  0.00     0.051 A 
HETATM   16 BR   UNL     1      43.554 -20.196   2.151  1.00  0.00    -0.043 Br
HETATM   17  C   UNL     1      43.121 -17.363   2.290  1.00  0.00     0.036 A 
ENDBRANCH  11  12
ENDBRANCH   7  11
TORSDOF 2
ENDMDL
MODEL 5
REMARK VINA RESULT:      -5.6      4.860      6.471
REMARK  2 active torsions:
REMARK  status: ('A' for Active; 'I' for Inactive)
REMARK    1  A    between atoms: N_7  and  C_9 
REMARK    2  A    between atoms: C_9  and  C_10 
ROOT
HETATM    1  C   UNL     1      44.081 -19.724   2.912  1.00  0.00     0.136 A 
HETATM    2  N   UNL     1      44.295 -19.150   4.142  1.00  0.00    -0.244 NA
HETATM    3  C   UNL     1      43.510 -18.097   4.183  1.00  0.00     0.131 A 
HETATM    4  N   UNL     1      42.805 -17.975   3.014  1.00  0.00    -0.341 N 
HETATM    5  C   UNL     1      41.902 -16.884   2.715  1.00  0.00     0.157 C 
HETATM    6  C   UNL     1      41.478 -16.134   3.981  1.00  0.00     0.256 C 
HETATM    7  N   UNL     1      42.683 -15.846   4.865  1.00  0.00    -0.059 N 
HETATM    8  H   UNL     1      43.386 -15.351   4.301  1.00  0.00     0.280 HD
HETATM    9  C   UNL     1      43.340 -17.143   5.307  1.00  0.00     0.313 C 
HETATM   10  C   UNL     1      43.156 -19.002   2.194  1.00  0.00     0.111 A 
ENDROOT
BRANCH   7  11
HETATM   11  C   UNL     1      42.383 -14.967   6.051  1.00  0.00     0.274 C 
BRANCH  11  12
HETATM   12  C   UNL     1      42.971 -13.599   5.916  1.00  0.00    -0.024 A 
HETATM   13  C   UNL     1      42.574 -12.652   4.985  1.00  0.00     0.059 A 
HETATM   14  S   UNL     1      43.444 -11.182   5.123  1.00  0.00    -0.094 SA
HETATM   15  C   UNL     1      44.375 -11.800   6.391  1.00  0.00     0.051 A 
HETATM   16 BR   UNL     1      45.720 -10.820   7.249  1.00  0.00    -0.043 Br
HETATM   17  C   UNL     1      44.043 -13.088   6.729  1.00  0.00     0.036 A 
ENDBRANCH  11  12
ENDBRANCH   7  11
TORSDOF 2
ENDMDL
MODEL 6
REMARK VINA RESULT:      -5.5      5.745      7.397
REMARK  2 active torsions:
REMARK  status: ('A' for Active; 'I' for Inactive)
REMARK    1  A    between atoms: N_7  and  C_9 
REMARK    2  A    between atoms: C_9  and  C_10 
ROOT
HETATM    1  C   UNL     1      46.210  -9.294   8.246  1.00  0.00     0.136 A 
HETATM    2  N   UNL     1      46.180 -10.460   7.521  1.00  0.00    -0.244 NA
HETATM    3  C   UNL     1      44.910 -10.697   7.282  1.00  0.00     0.131 A 
HETATM    4  N   UNL     1      44.125  -9.719   7.837  1.00  0.00    -0.341 N 
HETATM    5  C   UNL     1      42.678  -9.721   7.809  1.00  0.00     0.157 C 
HETATM    6  C   UNL     1      42.131 -10.665   6.734  1.00  0.00     0.256 C 
HETATM    7  N   UNL     1      42.850 -12.006   6.779  1.00  0.00    -0.059 N 
HETATM    8  H   UNL     1      42.780 -12.377   7.736  1.00  0.00     0.280 HD
HETATM    9  C   UNL     1      44.334 -11.824   6.509  1.00  0.00     0.313 C 
HETATM   10  C   UNL     1      44.936  -8.819   8.455  1.00  0.00     0.111 A 
ENDROOT
BRANCH   7  11
HETATM   11  C   UNL     1      42.263 -13.052   5.867  1.00  0.00     0.274 C 
BRANCH  11  12
HETATM   12  C   UNL     1      42.779 -14.424   6.159  1.00  0.00    -0.024 A 
HETATM   13  C   UNL     1      42.960 -14.952   7.428  1.00  0.00     0.059 A 
HETATM   14  S   UNL     1      43.547 -16.562   7.398  1.00  0.00    -0.094 SA
HETATM   15  C   UNL     1      43.599 -16.560   5.708  1.00  0.00     0.051 A 
HETATM   16 BR   UNL     1      44.177 -18.025   4.697  1.00  0.00    -0.043 Br
HETATM   17  C   UNL     1      43.174 -15.377   5.155  1.00  0.00     0.036 A 
ENDBRANCH  11  12
ENDBRANCH   7  11
TORSDOF 2
ENDMDL
MODEL 7
REMARK VINA RESULT:      -5.4      2.364      3.316
REMARK  2 active torsions:
REMARK  status: ('A' for Active; 'I' for Inactive)
REMARK    1  A    between atoms: N_7  and  C_9 
REMARK    2  A    between atoms: C_9  and  C_10 
ROOT
HETATM    1  C   UNL     1      41.624 -10.343   3.182  1.00  0.00     0.136 A 
HETATM    2  N   UNL     1      42.734 -11.148   3.269  1.00  0.00    -0.244 NA
HETATM    3  C   UNL     1      42.349 -12.329   2.841  1.00  0.00     0.131 A 
HETATM    4  N   UNL     1      41.024 -12.306   2.488  1.00  0.00    -0.341 N 
HETATM    5  C   UNL     1      40.279 -13.462   2.039  1.00  0.00     0.157 C 
HETATM    6  C   UNL     1      41.205 -14.592   1.577  1.00  0.00     0.256 C 
HETATM    7  N   UNL     1      42.330 -14.808   2.579  1.00  0.00    -0.059 N 
HETATM    8  H   UNL     1      41.912 -14.963   3.506  1.00  0.00     0.280 HD
HETATM    9  C   UNL     1      43.177 -13.553   2.707  1.00  0.00     0.313 C 
HETATM   10  C   UNL     1      40.547 -11.050   2.699  1.00  0.00     0.111 A 
ENDROOT
BRANCH   7  11
HETATM   11  C   UNL     1      43.193 -16.009   2.289  1.00  0.00     0.274 C 
BRANCH  11  12
HETATM   12  C   UNL     1      43.402 -16.871   3.492  1.00  0.00    -0.024 A 
HETATM   13  C   UNL     1      43.310 -16.437   4.806  1.00  0.00     0.059 A 
HETATM   14  S   UNL     1      43.587 -17.693   5.938  1.00  0.00    -0.094 SA
HETATM   15  C   UNL     1      43.865 -18.810   4.700  1.00  0.00     0.051 A 
HETATM   16 BR   UNL     1      44.292 -20.606   5.015  1.00  0.00    -0.043 Br
HETATM   17  C   UNL     1      43.744 -18.268   3.445  1.00  0.00     0.036 A 
ENDBRANCH  11  12
ENDBRANCH   7  11
TORSDOF 2
ENDMDL
MODEL 8
REMARK VINA RESULT:      -5.4      5.745      7.481
REMARK  2 active torsions:
REMARK  status: ('A' for Active; 'I' for Inactive)
REMARK    1  A    between atoms: N_7  and  C_9 
REMARK    2  A    between atoms: C_9  and  C_10 
ROOT
HETATM    1  C   UNL     1      45.326  -8.572   8.645  1.00  0.00     0.136 A 
HETATM    2  N   UNL     1      44.024  -8.923   8.386  1.00  0.00    -0.244 NA
HETATM    3  C   UNL     1      44.088 -10.014   7.657  1.00  0.00     0.131 A 
HETATM    4  N   UNL     1      45.394 -10.370   7.436  1.00  0.00    -0.341 N 
HETATM    5  C   UNL     1      45.808 -11.488   6.616  1.00  0.00     0.157 C 
HETATM    6  C   UNL     1      44.664 -12.481   6.389  1.00  0.00     0.256 C 
HETATM    7  N   UNL     1      43.383 -11.749   6.012  1.00  0.00    -0.059 N 
HETATM    8  H   UNL     1      43.581 -11.148   5.202  1.00  0.00     0.280 HD
HETATM    9  C   UNL     1      42.955 -10.815   7.131  1.00  0.00     0.313 C 
HETATM   10  C   UNL     1      46.195  -9.463   8.058  1.00  0.00     0.111 A 
ENDROOT
BRANCH   7  11
HETATM   11  C   UNL     1      42.250 -12.657   5.610  1.00  0.00     0.274 C 
BRANCH  11  12
HETATM   12  C   UNL     1      42.601 -13.537   4.454  1.00  0.00    -0.024 A 
HETATM   13  C   UNL     1      42.863 -13.092   3.167  1.00  0.00     0.059 A 
HETATM   14  S   UNL     1      43.256 -14.368   2.092  1.00  0.00    -0.094 SA
HETATM   15  C   UNL     1      43.049 -15.520   3.312  1.00  0.00     0.051 A 
HETATM   16 BR   UNL     1      43.275 -17.358   3.038  1.00  0.00    -0.043 Br
HETATM   17  C   UNL     1      42.701 -14.971   4.522  1.00  0.00     0.036 A 
ENDBRANCH  11  12
ENDBRANCH   7  11
TORSDOF 2
ENDMDL
MODEL 9
REMARK VINA RESULT:      -5.3      4.096      5.872
REMARK  2 active torsions:
REMARK  status: ('A' for Active; 'I' for Inactive)
REMARK    1  A    between atoms: N_7  and  C_9 
REMARK    2  A    between atoms: C_9  and  C_10 
ROOT
HETATM    1  C   UNL     1      44.775 -10.991   7.086  1.00  0.00     0.136 A 
HETATM    2  N   UNL     1      44.707 -12.361   7.155  1.00  0.00    -0.244 NA
HETATM    3  C   UNL     1      43.484 -12.674   6.791  1.00  0.00     0.131 A 
HETATM    4  N   UNL     1      42.764 -11.544   6.498  1.00  0.00    -0.341 N 
HETATM    5  C   UNL     1      41.365 -11.541   6.128  1.00  0.00     0.157 C 
HETATM    6  C   UNL     1      40.894 -12.924   5.670  1.00  0.00     0.256 C 
HETATM    7  N   UNL     1      41.381 -14.003   6.628  1.00  0.00    -0.059 N 
HETATM    8  H   UNL     1      41.078 -13.751   7.578  1.00  0.00     0.280 HD
HETATM    9  C   UNL     1      42.900 -14.032   6.668  1.00  0.00     0.313 C 
HETATM   10  C   UNL     1      43.571 -10.464   6.680  1.00  0.00     0.111 A 
ENDROOT
BRANCH   7  11
HETATM   11  C   UNL     1      40.826 -15.375   6.346  1.00  0.00     0.274 C 
BRANCH  11  12
HETATM   12  C   UNL     1      41.276 -15.917   5.029  1.00  0.00    -0.024 A 
HETATM   13  C   UNL     1      40.727 -15.581   3.801  1.00  0.00     0.059 A 
HETATM   14  S   UNL     1      41.498 -16.372   2.491  1.00  0.00    -0.094 SA
HETATM   15  C   UNL     1      42.542 -17.190   3.540  1.00  0.00     0.051 A 
HETATM   16 BR   UNL     1      43.847 -18.397   2.955  1.00  0.00    -0.043 Br
HETATM   17  C   UNL     1      42.336 -16.877   4.861  1.00  0.00     0.036 A 
ENDBRANCH  11  12
ENDBRANCH   7  11
TORSDOF 2
ENDMDL
MODEL 10
REMARK VINA RESULT:      -5.2      4.715      5.743
REMARK  2 active torsions:
REMARK  status: ('A' for Active; 'I' for Inactive)
REMARK    1  A    between atoms: N_7  and  C_9 
REMARK    2  A    between atoms: C_9  and  C_10 
ROOT
HETATM    1  C   UNL     1      40.697 -14.646   0.642  1.00  0.00     0.136 A 
HETATM    2  N   UNL     1      41.764 -14.011   1.229  1.00  0.00    -0.244 NA
HETATM    3  C   UNL     1      41.828 -14.483   2.453  1.00  0.00     0.131 A 
HETATM    4  N   UNL     1      40.830 -15.398   2.670  1.00  0.00    -0.341 N 
HETATM    5  C   UNL     1      40.585 -16.053   3.936  1.00  0.00     0.157 C 
HETATM    6  C   UNL     1      41.799 -15.967   4.866  1.00  0.00     0.256 C 
HETATM    7  N   UNL     1      42.361 -14.552   4.887  1.00  0.00    -0.059 N 
HETATM    8  H   UNL     1      41.599 -13.906   5.133  1.00  0.00     0.280 HD
HETATM    9  C   UNL     1      42.824 -14.143   3.500  1.00  0.00     0.313 C 
HETATM   10  C   UNL     1      40.100 -15.513   1.528  1.00  0.00     0.111 A 
ENDROOT
BRANCH   7  11
HETATM   11  C   UNL     1      43.453 -14.337   5.902  1.00  0.00     0.274 C 
BRANCH  11  12
HETATM   12  C   UNL     1      43.561 -12.911   6.337  1.00  0.00    -0.024 A 
HETATM   13  C   UNL     1      42.534 -11.981   6.275  1.00  0.00     0.059 A 
HETATM   14  S   UNL     1      42.995 -10.445   6.877  1.00  0.00    -0.094 SA
HETATM   15  C   UNL     1      44.564 -10.988   7.193  1.00  0.00     0.051 A 
HETATM   16 BR   UNL     1      45.902  -9.897   7.917  1.00  0.00    -0.043 Br
HETATM   17  C   UNL     1      44.755 -12.308   6.867  1.00  0.00     0.036 A 
ENDBRANCH  11  12
ENDBRANCH   7  11
TORSDOF 2
ENDMDL
