MODEL 1
REMARK VINA RESULT:      -9.1      0.000      0.000
REMARK  7 active torsions:
REMARK  status: ('A' for Active; 'I' for Inactive)
REMARK       I    between atoms: C_2  and  N_3 
REMARK    1  A    between atoms: N_3  and  C_4 
REMARK    2  A    between atoms: C_6  and  N_7 
REMARK       I    between atoms: N_7  and  C_8 
REMARK    3  A    between atoms: C_8  and  C_9 
REMARK       I    between atoms: C_9  and  N_10 
REMARK    4  A    between atoms: N_10  and  C_11 
REMARK    5  A    between atoms: C_11  and  C_12 
REMARK    6  A    between atoms: C_12  and  O_13 
REMARK    7  A    between atoms: C_12  and  C_14 
ROOT
HETATM    1  C   UNL     1      42.717 -12.505   3.228  1.00  0.00     0.309 C 
HETATM    2  N   UNL     1      41.355 -12.539   3.016  1.00  0.00    -0.350 N 
HETATM    3  O   UNL     1      43.553 -13.212   2.683  1.00  0.00    -0.262 OA
HETATM    4  H   UNL     1      40.801 -12.023   3.698  1.00  0.00     0.163 HD
ENDROOT
BRANCH   1   5
HETATM    5  C   UNL     1      43.163 -11.477   4.290  1.00  0.00     0.313 C 
HETATM    6  N   UNL     1      43.836 -12.079   5.330  1.00  0.00    -0.319 N 
HETATM    7  H   UNL     1      43.926 -13.089   5.242  1.00  0.00     0.169 HD
HETATM    8  O   UNL     1      42.877 -10.300   4.123  1.00  0.00    -0.262 OA
BRANCH   6   9
HETATM    9  C   UNL     1      44.378 -11.475   6.478  1.00  0.00     0.037 A 
HETATM   10  C   UNL     1      43.619 -11.101   7.591  1.00  0.00     0.059 A 
HETATM   11  C   UNL     1      44.223 -10.504   8.710  1.00  0.00     0.036 A 
HETATM   12  C   UNL     1      45.600 -10.287   8.702  1.00  0.00     0.029 A 
HETATM   13  C   UNL     1      46.366 -10.655   7.593  1.00  0.00     0.004 A 
HETATM   14  C   UNL     1      45.757 -11.244   6.485  1.00  0.00     0.029 A 
BRANCH  11  15
HETATM   15  N   UNL     1      43.378 -10.155   9.785  1.00  0.00    -0.327 N 
HETATM   16  C   UNL     1      43.441 -10.610  11.089  1.00  0.00     0.218 C 
HETATM   17  C   UNL     1      42.370  -9.995  11.954  1.00  0.00     0.117 C 
HETATM   18  O   UNL     1      44.254 -11.397  11.561  1.00  0.00    -0.274 OA
HETATM   19  H   UNL     1      42.646  -9.488   9.571  1.00  0.00     0.169 HD
ENDBRANCH  11  15
ENDBRANCH   6   9
ENDBRANCH   1   5
BRANCH   2  20
HETATM   20  C   UNL     1      40.745 -13.616   2.247  1.00  0.00     0.159 C 
BRANCH  20  21
HETATM   21  C   UNL     1      40.011 -14.629   3.147  1.00  0.00     0.171 C 
BRANCH  21  22
HETATM   22  O   UNL     1      39.267 -15.539   2.324  1.00  0.00    -0.389 OA
HETATM   23  H   UNL     1      38.495 -15.046   1.998  1.00  0.00     0.210 HD
ENDBRANCH  21  22
BRANCH  21  24
HETATM   24  C   UNL     1      40.968 -15.361   4.037  1.00  0.00     0.000 A 
HETATM   25  C   UNL     1      41.907 -16.369   3.639  1.00  0.00     0.001 A 
HETATM   26  C   UNL     1      42.579 -16.802   4.788  1.00  0.00     0.044 A 
HETATM   27  C   UNL     1      42.241 -16.955   2.399  1.00  0.00     0.014 A 
HETATM   28  C   UNL     1      43.574 -17.793   4.736  1.00  0.00     0.030 A 
HETATM   29  N   UNL     1      42.068 -16.081   5.845  1.00  0.00    -0.360 N 
HETATM   30  C   UNL     1      43.882 -18.358   3.496  1.00  0.00     0.002 A 
HETATM   31  C   UNL     1      43.226 -17.947   2.341  1.00  0.00     0.001 A 
HETATM   32  C   UNL     1      42.467 -16.193   7.230  1.00  0.00     0.155 C 
HETATM   33  C   UNL     1      41.103 -15.217   5.405  1.00  0.00     0.101 A 
ENDBRANCH  21  24
ENDBRANCH  20  21
ENDBRANCH   2  20
TORSDOF 7
ENDMDL
MODEL 2
REMARK VINA RESULT:      -9.0      0.924      1.905
REMARK  7 active torsions:
REMARK  status: ('A' for Active; 'I' for Inactive)
REMARK       I    between atoms: C_2  and  N_3 
REMARK    1  A    between atoms: N_3  and  C_4 
REMARK    2  A    between atoms: C_6  and  N_7 
REMARK       I    between atoms: N_7  and  C_8 
REMARK    3  A    between atoms: C_8  and  C_9 
REMARK       I    between atoms: C_9  and  N_10 
REMARK    4  A    between atoms: N_10  and  C_11 
REMARK    5  A    between atoms: C_11  and  C_12 
REMARK    6  A    between atoms: C_12  and  O_13 
REMARK    7  A    between atoms: C_12  and  C_14 
ROOT
HETATM    1  C   UNL     1      42.773 -12.387   3.287  1.00  0.00     0.309 C 
HETATM    2  N   UNL     1      41.416 -12.539   3.098  1.00  0.00    -0.350 N 
HETATM    3  O   UNL     1      43.658 -12.992   2.700  1.00  0.00    -0.262 OA
HETATM    4  H   UNL     1      40.831 -12.102   3.808  1.00  0.00     0.163 HD
ENDROOT
BRANCH   1   5
HETATM    5  C   UNL     1      43.145 -11.361   4.380  1.00  0.00     0.313 C 
HETATM    6  N   UNL     1      43.891 -11.936   5.385  1.00  0.00    -0.319 N 
HETATM    7  H   UNL     1      44.070 -12.931   5.256  1.00  0.00     0.169 HD
HETATM    8  O   UNL     1      42.750 -10.210   4.263  1.00  0.00    -0.262 OA
BRANCH   6   9
HETATM    9  C   UNL     1      44.398 -11.328   6.546  1.00  0.00     0.037 A 
HETATM   10  C   UNL     1      43.613 -10.990   7.652  1.00  0.00     0.059 A 
HETATM   11  C   UNL     1      44.183 -10.385   8.785  1.00  0.00     0.036 A 
HETATM   12  C   UNL     1      45.552 -10.125   8.798  1.00  0.00     0.029 A 
HETATM   13  C   UNL     1      46.344 -10.458   7.696  1.00  0.00     0.004 A 
HETATM   14  C   UNL     1      45.768 -11.054   6.574  1.00  0.00     0.029 A 
BRANCH  11  15
HETATM   15  N   UNL     1      43.313 -10.074   9.852  1.00  0.00    -0.327 N 
HETATM   16  C   UNL     1      43.339 -10.584  11.138  1.00  0.00     0.218 C 
HETATM   17  C   UNL     1      42.251  -9.996  12.000  1.00  0.00     0.117 C 
HETATM   18  O   UNL     1      44.133 -11.397  11.596  1.00  0.00    -0.274 OA
HETATM   19  H   UNL     1      42.592  -9.393   9.648  1.00  0.00     0.169 HD
ENDBRANCH  11  15
ENDBRANCH   6   9
ENDBRANCH   1   5
BRANCH   2  20
HETATM   20  C   UNL     1      40.892 -13.639   2.298  1.00  0.00     0.159 C 
BRANCH  20  21
HETATM   21  C   UNL     1      40.389 -14.804   3.173  1.00  0.00     0.171 C 
BRANCH  21  22
HETATM   22  O   UNL     1      39.205 -15.361   2.583  1.00  0.00    -0.389 OA
HETATM   23  H   UNL     1      38.921 -16.084   3.169  1.00  0.00     0.210 HD
ENDBRANCH  21  22
BRANCH  21  24
HETATM   24  C   UNL     1      41.448 -15.849   3.349  1.00  0.00     0.000 A 
HETATM   25  C   UNL     1      42.392 -15.939   4.425  1.00  0.00     0.001 A 
HETATM   26  C   UNL     1      43.212 -17.047   4.181  1.00  0.00     0.044 A 
HETATM   27  C   UNL     1      42.624 -15.169   5.586  1.00  0.00     0.014 A 
HETATM   28  C   UNL     1      44.246 -17.412   5.059  1.00  0.00     0.030 A 
HETATM   29  N   UNL     1      42.780 -17.610   3.001  1.00  0.00    -0.360 N 
HETATM   30  C   UNL     1      44.455 -16.630   6.199  1.00  0.00     0.002 A 
HETATM   31  C   UNL     1      43.656 -15.523   6.461  1.00  0.00     0.001 A 
HETATM   32  C   UNL     1      43.334 -18.782   2.358  1.00  0.00     0.155 C 
HETATM   33  C   UNL     1      41.726 -16.900   2.495  1.00  0.00     0.101 A 
ENDBRANCH  21  24
ENDBRANCH  20  21
ENDBRANCH   2  20
TORSDOF 7
ENDMDL
MODEL 3
REMARK VINA RESULT:      -8.9      1.477      2.011
REMARK  7 active torsions:
REMARK  status: ('A' for Active; 'I' for Inactive)
REMARK       I    between atoms: C_2  and  N_3 
REMARK    1  A    between atoms: N_3  and  C_4 
REMARK    2  A    between atoms: C_6  and  N_7 
REMARK       I    between atoms: N_7  and  C_8 
REMARK    3  A    between atoms: C_8  and  C_9 
REMARK       I    between atoms: C_9  and  N_10 
REMARK    4  A    between atoms: N_10  and  C_11 
REMARK    5  A    between atoms: C_11  and  C_12 
REMARK    6  A    between atoms: C_12  and  O_13 
REMARK    7  A    between atoms: C_12  and  C_14 
ROOT
HETATM    1  C   UNL     1      41.548 -13.213   4.376  1.00  0.00     0.309 C 
HETATM    2  N   UNL     1      42.300 -13.801   3.381  1.00  0.00    -0.350 N 
HETATM    3  O   UNL     1      40.414 -13.528   4.709  1.00  0.00    -0.262 OA
HETATM    4  H   UNL     1      43.134 -13.283   3.111  1.00  0.00     0.163 HD
ENDROOT
BRANCH   1   5
HETATM    5  C   UNL     1      42.249 -12.031   5.080  1.00  0.00     0.313 C 
HETATM    6  N   UNL     1      43.215 -12.464   5.962  1.00  0.00    -0.319 N 
HETATM    7  H   UNL     1      43.308 -13.477   6.016  1.00  0.00     0.169 HD
HETATM    8  O   UNL     1      41.888 -10.893   4.816  1.00  0.00    -0.262 OA
BRANCH   6   9
HETATM    9  C   UNL     1      44.046 -11.689   6.788  1.00  0.00     0.037 A 
HETATM   10  C   UNL     1      43.608 -11.053   7.954  1.00  0.00     0.059 A 
HETATM   11  C   UNL     1      44.491 -10.294   8.738  1.00  0.00     0.036 A 
HETATM   12  C   UNL     1      45.823 -10.180   8.343  1.00  0.00     0.029 A 
HETATM   13  C   UNL     1      46.269 -10.810   7.179  1.00  0.00     0.004 A 
HETATM   14  C   UNL     1      45.383 -11.559   6.404  1.00  0.00     0.029 A 
BRANCH  11  15
HETATM   15  N   UNL     1      43.959  -9.684   9.895  1.00  0.00    -0.327 N 
HETATM   16  C   UNL     1      43.765 -10.259  11.138  1.00  0.00     0.218 C 
HETATM   17  C   UNL     1      43.185  -9.280  12.128  1.00  0.00     0.117 C 
HETATM   18  O   UNL     1      44.030 -11.408  11.473  1.00  0.00    -0.274 OA
HETATM   19  H   UNL     1      43.698  -8.710   9.799  1.00  0.00     0.169 HD
ENDBRANCH  11  15
ENDBRANCH   6   9
ENDBRANCH   1   5
BRANCH   2  20
HETATM   20  C   UNL     1      41.699 -14.750   2.453  1.00  0.00     0.159 C 
BRANCH  20  21
HETATM   21  C   UNL     1      42.701 -15.828   1.995  1.00  0.00     0.171 C 
BRANCH  21  22
HETATM   22  O   UNL     1      43.812 -15.194   1.344  1.00  0.00    -0.389 OA
HETATM   23  H   UNL     1      44.171 -15.847   0.718  1.00  0.00     0.210 HD
ENDBRANCH  21  22
BRANCH  21  24
HETATM   24  C   UNL     1      43.157 -16.671   3.146  1.00  0.00     0.000 A 
HETATM   25  C   UNL     1      43.373 -18.089   3.136  1.00  0.00     0.001 A 
HETATM   26  C   UNL     1      43.768 -18.468   4.425  1.00  0.00     0.044 A 
HETATM   27  C   UNL     1      43.264 -19.085   2.142  1.00  0.00     0.014 A 
HETATM   28  C   UNL     1      44.060 -19.804   4.748  1.00  0.00     0.030 A 
HETATM   29  N   UNL     1      43.791 -17.322   5.188  1.00  0.00    -0.360 N 
HETATM   30  C   UNL     1      43.941 -20.770   3.744  1.00  0.00     0.002 A 
HETATM   31  C   UNL     1      43.548 -20.418   2.458  1.00  0.00     0.001 A 
HETATM   32  C   UNL     1      44.145 -17.233   6.588  1.00  0.00     0.155 C 
HETATM   33  C   UNL     1      43.426 -16.242   4.432  1.00  0.00     0.101 A 
ENDBRANCH  21  24
ENDBRANCH  20  21
ENDBRANCH   2  20
TORSDOF 7
ENDMDL
MODEL 4
REMARK VINA RESULT:      -8.5      2.493      3.956
REMARK  7 active torsions:
REMARK  status: ('A' for Active; 'I' for Inactive)
REMARK       I    between atoms: C_2  and  N_3 
REMARK    1  A    between atoms: N_3  and  C_4 
REMARK    2  A    between atoms: C_6  and  N_7 
REMARK       I    between atoms: N_7  and  C_8 
REMARK    3  A    between atoms: C_8  and  C_9 
REMARK       I    between atoms: C_9  and  N_10 
REMARK    4  A    between atoms: N_10  and  C_11 
REMARK    5  A    between atoms: C_11  and  C_12 
REMARK    6  A    between atoms: C_12  and  O_13 
REMARK    7  A    between atoms: C_12  and  C_14 
ROOT
HETATM    1  C   UNL     1      44.519 -11.835   7.197  1.00  0.00     0.309 C 
HETATM    2  N   UNL     1      43.558 -12.818   7.302  1.00  0.00    -0.350 N 
HETATM    3  O   UNL     1      45.342 -11.719   6.300  1.00  0.00    -0.262 OA
HETATM    4  H   UNL     1      43.097 -12.873   8.208  1.00  0.00     0.163 HD
ENDROOT
BRANCH   1   5
HETATM    5  C   UNL     1      44.524 -10.832   8.371  1.00  0.00     0.313 C 
HETATM    6  N   UNL     1      43.467  -9.953   8.293  1.00  0.00    -0.319 N 
HETATM    7  H   UNL     1      42.863 -10.095   7.485  1.00  0.00     0.169 HD
HETATM    8  O   UNL     1      45.424 -10.899   9.196  1.00  0.00    -0.262 OA
BRANCH   6   9
HETATM    9  C   UNL     1      43.149  -8.898   9.165  1.00  0.00     0.037 A 
HETATM   10  C   UNL     1      42.658  -9.083  10.461  1.00  0.00     0.059 A 
HETATM   11  C   UNL     1      42.362  -7.984  11.285  1.00  0.00     0.036 A 
HETATM   12  C   UNL     1      42.566  -6.695  10.796  1.00  0.00     0.029 A 
HETATM   13  C   UNL     1      43.054  -6.501   9.502  1.00  0.00     0.004 A 
HETATM   14  C   UNL     1      43.341  -7.598   8.690  1.00  0.00     0.029 A 
BRANCH  11  15
HETATM   15  N   UNL     1      41.866  -8.267  12.576  1.00  0.00    -0.327 N 
HETATM   16  C   UNL     1      42.466  -7.987  13.790  1.00  0.00     0.218 C 
HETATM   17  C   UNL     1      41.617  -8.431  14.955  1.00  0.00     0.117 C 
HETATM   18  O   UNL     1      43.542  -7.429  13.974  1.00  0.00    -0.274 OA
HETATM   19  H   UNL     1      40.961  -8.721  12.611  1.00  0.00     0.169 HD
ENDBRANCH  11  15
ENDBRANCH   6   9
ENDBRANCH   1   5
BRANCH   2  20
HETATM   20  C   UNL     1      43.581 -13.982   6.425  1.00  0.00     0.159 C 
BRANCH  20  21
HETATM   21  C   UNL     1      42.232 -14.727   6.413  1.00  0.00     0.171 C 
BRANCH  21  22
HETATM   22  O   UNL     1      41.182 -13.807   6.748  1.00  0.00    -0.389 OA
HETATM   23  H   UNL     1      41.017 -13.277   5.949  1.00  0.00     0.210 HD
ENDBRANCH  21  22
BRANCH  21  24
HETATM   24  C   UNL     1      41.981 -15.376   5.086  1.00  0.00     0.000 A 
HETATM   25  C   UNL     1      42.690 -16.491   4.530  1.00  0.00     0.001 A 
HETATM   26  C   UNL     1      42.148 -16.753   3.266  1.00  0.00     0.044 A 
HETATM   27  C   UNL     1      43.753 -17.298   4.991  1.00  0.00     0.014 A 
HETATM   28  C   UNL     1      42.628 -17.796   2.455  1.00  0.00     0.030 A 
HETATM   29  N   UNL     1      41.145 -15.832   3.064  1.00  0.00    -0.360 N 
HETATM   30  C   UNL     1      43.682 -18.578   2.936  1.00  0.00     0.002 A 
HETATM   31  C   UNL     1      44.239 -18.334   4.186  1.00  0.00     0.001 A 
HETATM   32  C   UNL     1      40.304 -15.725   1.892  1.00  0.00     0.155 C 
HETATM   33  C   UNL     1      41.037 -15.003   4.147  1.00  0.00     0.101 A 
ENDBRANCH  21  24
ENDBRANCH  20  21
ENDBRANCH   2  20
TORSDOF 7
ENDMDL
MODEL 5
REMARK VINA RESULT:      -8.4      3.995      7.317
REMARK  7 active torsions:
REMARK  status: ('A' for Active; 'I' for Inactive)
REMARK       I    between atoms: C_2  and  N_3 
REMARK    1  A    between atoms: N_3  and  C_4 
REMARK    2  A    between atoms: C_6  and  N_7 
REMARK       I    between atoms: N_7  and  C_8 
REMARK    3  A    between atoms: C_8  and  C_9 
REMARK       I    between atoms: C_9  and  N_10 
REMARK    4  A    between atoms: N_10  and  C_11 
REMARK    5  A    between atoms: C_11  and  C_12 
REMARK    6  A    between atoms: C_12  and  O_13 
REMARK    7  A    between atoms: C_12  and  C_14 
ROOT
HETATM    1  C   UNL     1      40.112 -13.305   5.643  1.00  0.00     0.309 C 
HETATM    2  N   UNL     1      41.079 -14.285   5.579  1.00  0.00    -0.350 N 
HETATM    3  O   UNL     1      39.459 -12.994   6.629  1.00  0.00    -0.262 OA
HETATM    4  H   UNL     1      41.372 -14.538   4.637  1.00  0.00     0.163 HD
ENDROOT
BRANCH   1   5
HETATM    5  C   UNL     1      39.853 -12.587   4.300  1.00  0.00     0.313 C 
HETATM    6  N   UNL     1      40.656 -13.082   3.296  1.00  0.00    -0.319 N 
HETATM    7  H   UNL     1      41.287 -13.824   3.592  1.00  0.00     0.169 HD
HETATM    8  O   UNL     1      39.024 -11.689   4.265  1.00  0.00    -0.262 OA
BRANCH   6   9
HETATM    9  C   UNL     1      40.716 -12.674   1.953  1.00  0.00     0.037 A 
HETATM   10  C   UNL     1      40.282 -13.461   0.881  1.00  0.00     0.059 A 
HETATM   11  C   UNL     1      40.367 -12.993  -0.440  1.00  0.00     0.036 A 
HETATM   12  C   UNL     1      40.891 -11.724  -0.678  1.00  0.00     0.029 A 
HETATM   13  C   UNL     1      41.331 -10.932   0.386  1.00  0.00     0.004 A 
HETATM   14  C   UNL     1      41.246 -11.407   1.695  1.00  0.00     0.029 A 
BRANCH  11  15
HETATM   15  N   UNL     1      39.909 -13.858  -1.457  1.00  0.00    -0.327 N 
HETATM   16  C   UNL     1      38.649 -13.896  -2.028  1.00  0.00     0.218 C 
HETATM   17  C   UNL     1      38.547 -14.954  -3.098  1.00  0.00     0.117 C 
HETATM   18  O   UNL     1      37.694 -13.176  -1.763  1.00  0.00    -0.274 OA
HETATM   19  H   UNL     1      40.588 -14.520  -1.812  1.00  0.00     0.169 HD
ENDBRANCH  11  15
ENDBRANCH   6   9
ENDBRANCH   1   5
BRANCH   2  20
HETATM   20  C   UNL     1      41.263 -15.225   6.677  1.00  0.00     0.159 C 
BRANCH  20  21
HETATM   21  C   UNL     1      42.743 -15.609   6.871  1.00  0.00     0.171 C 
BRANCH  21  22
HETATM   22  O   UNL     1      42.989 -15.857   8.263  1.00  0.00    -0.389 OA
HETATM   23  H   UNL     1      43.525 -16.668   8.306  1.00  0.00     0.210 HD
ENDBRANCH  21  22
BRANCH  21  24
HETATM   24  C   UNL     1      43.110 -16.798   6.036  1.00  0.00     0.000 A 
HETATM   25  C   UNL     1      43.204 -16.844   4.606  1.00  0.00     0.001 A 
HETATM   26  C   UNL     1      43.549 -18.151   4.243  1.00  0.00     0.044 A 
HETATM   27  C   UNL     1      43.022 -15.886   3.585  1.00  0.00     0.014 A 
HETATM   28  C   UNL     1      43.721 -18.528   2.901  1.00  0.00     0.030 A 
HETATM   29  N   UNL     1      43.660 -18.873   5.411  1.00  0.00    -0.360 N 
HETATM   30  C   UNL     1      43.531 -17.559   1.911  1.00  0.00     0.002 A 
HETATM   31  C   UNL     1      43.186 -16.255   2.246  1.00  0.00     0.001 A 
HETATM   32  C   UNL     1      44.003 -20.273   5.524  1.00  0.00     0.155 C 
HETATM   33  C   UNL     1      43.400 -18.071   6.489  1.00  0.00     0.101 A 
ENDBRANCH  21  24
ENDBRANCH  20  21
ENDBRANCH   2  20
TORSDOF 7
ENDMDL
MODEL 6
REMARK VINA RESULT:      -8.3      2.173      3.414
REMARK  7 active torsions:
REMARK  status: ('A' for Active; 'I' for Inactive)
REMARK       I    between atoms: C_2  and  N_3 
REMARK    1  A    between atoms: N_3  and  C_4 
REMARK    2  A    between atoms: C_6  and  N_7 
REMARK       I    between atoms: N_7  and  C_8 
REMARK    3  A    between atoms: C_8  and  C_9 
REMARK       I    between atoms: C_9  and  N_10 
REMARK    4  A    between atoms: N_10  and  C_11 
REMARK    5  A    between atoms: C_11  and  C_12 
REMARK    6  A    between atoms: C_12  and  O_13 
REMARK    7  A    between atoms: C_12  and  C_14 
ROOT
HETATM    1  C   UNL     1      40.331 -13.378   2.106  1.00  0.00     0.309 C 
HETATM    2  N   UNL     1      41.000 -14.472   2.613  1.00  0.00    -0.350 N 
HETATM    3  O   UNL     1      39.713 -13.332   1.052  1.00  0.00    -0.262 OA
HETATM    4  H   UNL     1      41.619 -14.271   3.396  1.00  0.00     0.163 HD
ENDROOT
BRANCH   1   5
HETATM    5  C   UNL     1      40.433 -12.114   2.986  1.00  0.00     0.313 C 
HETATM    6  N   UNL     1      40.659 -12.431   4.308  1.00  0.00    -0.319 N 
HETATM    7  H   UNL     1      40.714 -13.431   4.494  1.00  0.00     0.169 HD
HETATM    8  O   UNL     1      40.293 -11.019   2.460  1.00  0.00    -0.262 OA
BRANCH   6   9
HETATM    9  C   UNL     1      40.795 -11.557   5.399  1.00  0.00     0.037 A 
HETATM   10  C   UNL     1      42.023 -11.064   5.852  1.00  0.00     0.059 A 
HETATM   11  C   UNL     1      42.090 -10.189   6.949  1.00  0.00     0.036 A 
HETATM   12  C   UNL     1      40.911  -9.809   7.587  1.00  0.00     0.029 A 
HETATM   13  C   UNL     1      39.680 -10.298   7.143  1.00  0.00     0.004 A 
HETATM   14  C   UNL     1      39.623 -11.170   6.055  1.00  0.00     0.029 A 
BRANCH  11  15
HETATM   15  N   UNL     1      43.374  -9.748   7.338  1.00  0.00    -0.327 N 
HETATM   16  C   UNL     1      44.334 -10.459   8.036  1.00  0.00     0.218 C 
HETATM   17  C   UNL     1      45.588  -9.650   8.252  1.00  0.00     0.117 C 
HETATM   18  O   UNL     1      44.254 -11.613   8.439  1.00  0.00    -0.274 OA
HETATM   19  H   UNL     1      43.616  -8.803   7.066  1.00  0.00     0.169 HD
ENDBRANCH  11  15
ENDBRANCH   6   9
ENDBRANCH   1   5
BRANCH   2  20
HETATM   20  C   UNL     1      41.220 -15.658   1.795  1.00  0.00     0.159 C 
BRANCH  20  21
HETATM   21  C   UNL     1      42.715 -16.015   1.681  1.00  0.00     0.171 C 
BRANCH  21  22
HETATM   22  O   UNL     1      43.471 -14.817   1.448  1.00  0.00    -0.389 OA
HETATM   23  H   UNL     1      44.271 -14.888   1.997  1.00  0.00     0.210 HD
ENDBRANCH  21  22
BRANCH  21  24
HETATM   24  C   UNL     1      43.198 -16.732   2.905  1.00  0.00     0.000 A 
HETATM   25  C   UNL     1      43.418 -18.142   3.041  1.00  0.00     0.001 A 
HETATM   26  C   UNL     1      43.841 -18.382   4.353  1.00  0.00     0.044 A 
HETATM   27  C   UNL     1      43.288 -19.239   2.161  1.00  0.00     0.014 A 
HETATM   28  C   UNL     1      44.144 -19.676   4.810  1.00  0.00     0.030 A 
HETATM   29  N   UNL     1      43.879 -17.162   4.990  1.00  0.00    -0.360 N 
HETATM   30  C   UNL     1      44.004 -20.744   3.918  1.00  0.00     0.002 A 
HETATM   31  C   UNL     1      43.582 -20.530   2.611  1.00  0.00     0.001 A 
HETATM   32  C   UNL     1      44.263 -16.924   6.364  1.00  0.00     0.155 C 
HETATM   33  C   UNL     1      43.495 -16.168   4.131  1.00  0.00     0.101 A 
ENDBRANCH  21  24
ENDBRANCH  20  21
ENDBRANCH   2  20
TORSDOF 7
ENDMDL
MODEL 7
REMARK VINA RESULT:      -8.3      2.762      4.245
REMARK  7 active torsions:
REMARK  status: ('A' for Active; 'I' for Inactive)
REMARK       I    between atoms: C_2  and  N_3 
REMARK    1  A    between atoms: N_3  and  C_4 
REMARK    2  A    between atoms: C_6  and  N_7 
REMARK       I    between atoms: N_7  and  C_8 
REMARK    3  A    between atoms: C_8  and  C_9 
REMARK       I    between atoms: C_9  and  N_10 
REMARK    4  A    between atoms: N_10  and  C_11 
REMARK    5  A    between atoms: C_11  and  C_12 
REMARK    6  A    between atoms: C_12  and  O_13 
REMARK    7  A    between atoms: C_12  and  C_14 
ROOT
HETATM    1  C   UNL     1      44.301 -11.918   7.058  1.00  0.00     0.309 C 
HETATM    2  N   UNL     1      43.620 -13.085   7.331  1.00  0.00    -0.350 N 
HETATM    3  O   UNL     1      44.720 -11.563   5.965  1.00  0.00    -0.262 OA
HETATM    4  H   UNL     1      43.526 -13.306   8.321  1.00  0.00     0.163 HD
ENDROOT
BRANCH   1   5
HETATM    5  C   UNL     1      44.554 -11.032   8.297  1.00  0.00     0.313 C 
HETATM    6  N   UNL     1      43.379 -10.527   8.809  1.00  0.00    -0.319 N 
HETATM    7  H   UNL     1      42.544 -10.807   8.296  1.00  0.00     0.169 HD
HETATM    8  O   UNL     1      45.705 -10.858   8.669  1.00  0.00    -0.262 OA
BRANCH   6   9
HETATM    9  C   UNL     1      43.209  -9.677   9.915  1.00  0.00     0.037 A 
HETATM   10  C   UNL     1      43.017  -8.296   9.810  1.00  0.00     0.059 A 
HETATM   11  C   UNL     1      42.850  -7.501  10.957  1.00  0.00     0.036 A 
HETATM   12  C   UNL     1      42.875  -8.107  12.211  1.00  0.00     0.029 A 
HETATM   13  C   UNL     1      43.069  -9.485  12.325  1.00  0.00     0.004 A 
HETATM   14  C   UNL     1      43.237 -10.266  11.182  1.00  0.00     0.029 A 
BRANCH  11  15
HETATM   15  N   UNL     1      42.667  -6.116  10.754  1.00  0.00    -0.327 N 
HETATM   16  C   UNL     1      41.494  -5.458  10.430  1.00  0.00     0.218 C 
HETATM   17  C   UNL     1      41.697  -3.969  10.312  1.00  0.00     0.117 C 
HETATM   18  O   UNL     1      40.387  -5.956  10.266  1.00  0.00    -0.274 OA
HETATM   19  H   UNL     1      43.493  -5.541  10.869  1.00  0.00     0.169 HD
ENDBRANCH  11  15
ENDBRANCH   6   9
ENDBRANCH   1   5
BRANCH   2  20
HETATM   20  C   UNL     1      43.525 -14.146   6.336  1.00  0.00     0.159 C 
BRANCH  20  21
HETATM   21  C   UNL     1      42.135 -14.810   6.326  1.00  0.00     0.171 C 
BRANCH  21  22
HETATM   22  O   UNL     1      41.142 -13.835   6.678  1.00  0.00    -0.389 OA
HETATM   23  H   UNL     1      41.591 -12.972   6.667  1.00  0.00     0.210 HD
ENDBRANCH  21  22
BRANCH  21  24
HETATM   24  C   UNL     1      41.837 -15.430   4.995  1.00  0.00     0.000 A 
HETATM   25  C   UNL     1      42.537 -16.521   4.382  1.00  0.00     0.001 A 
HETATM   26  C   UNL     1      41.947 -16.760   3.136  1.00  0.00     0.044 A 
HETATM   27  C   UNL     1      43.627 -17.326   4.779  1.00  0.00     0.014 A 
HETATM   28  C   UNL     1      42.405 -17.776   2.280  1.00  0.00     0.030 A 
HETATM   29  N   UNL     1      40.925 -15.847   2.997  1.00  0.00    -0.360 N 
HETATM   30  C   UNL     1      43.488 -18.555   2.698  1.00  0.00     0.002 A 
HETATM   31  C   UNL     1      44.093 -18.335   3.930  1.00  0.00     0.001 A 
HETATM   32  C   UNL     1      40.036 -15.722   1.863  1.00  0.00     0.155 C 
HETATM   33  C   UNL     1      40.852 -15.047   4.104  1.00  0.00     0.101 A 
ENDBRANCH  21  24
ENDBRANCH  20  21
ENDBRANCH   2  20
TORSDOF 7
ENDMDL
MODEL 8
REMARK VINA RESULT:      -8.3      4.956      8.411
REMARK  7 active torsions:
REMARK  status: ('A' for Active; 'I' for Inactive)
REMARK       I    between atoms: C_2  and  N_3 
REMARK    1  A    between atoms: N_3  and  C_4 
REMARK    2  A    between atoms: C_6  and  N_7 
REMARK       I    between atoms: N_7  and  C_8 
REMARK    3  A    between atoms: C_8  and  C_9 
REMARK       I    between atoms: C_9  and  N_10 
REMARK    4  A    between atoms: N_10  and  C_11 
REMARK    5  A    between atoms: C_11  and  C_12 
REMARK    6  A    between atoms: C_12  and  O_13 
REMARK    7  A    between atoms: C_12  and  C_14 
ROOT
HETATM    1  C   UNL     1      40.161 -14.732   0.605  1.00  0.00     0.309 C 
HETATM    2  N   UNL     1      41.121 -14.020   1.293  1.00  0.00    -0.350 N 
HETATM    3  O   UNL     1      39.688 -15.812   0.930  1.00  0.00    -0.262 OA
HETATM    4  H   UNL     1      41.535 -13.247   0.776  1.00  0.00     0.163 HD
ENDROOT
BRANCH   1   5
HETATM    5  C   UNL     1      39.702 -14.062  -0.708  1.00  0.00     0.313 C 
HETATM    6  N   UNL     1      39.863 -12.694  -0.665  1.00  0.00    -0.319 N 
HETATM    7  H   UNL     1      40.246 -12.346   0.212  1.00  0.00     0.169 HD
HETATM    8  O   UNL     1      39.248 -14.766  -1.599  1.00  0.00    -0.262 OA
BRANCH   6   9
HETATM    9  C   UNL     1      39.548 -11.751  -1.658  1.00  0.00     0.037 A 
HETATM   10  C   UNL     1      40.487 -10.902  -2.250  1.00  0.00     0.059 A 
HETATM   11  C   UNL     1      40.107  -9.982  -3.241  1.00  0.00     0.036 A 
HETATM   12  C   UNL     1      38.771  -9.924  -3.635  1.00  0.00     0.029 A 
HETATM   13  C   UNL     1      37.825 -10.766  -3.047  1.00  0.00     0.004 A 
HETATM   14  C   UNL     1      38.212 -11.674  -2.061  1.00  0.00     0.029 A 
BRANCH  11  15
HETATM   15  N   UNL     1      41.122  -9.162  -3.778  1.00  0.00    -0.327 N 
HETATM   16  C   UNL     1      41.649  -8.005  -3.232  1.00  0.00     0.218 C 
HETATM   17  C   UNL     1      42.734  -7.416  -4.098  1.00  0.00     0.117 C 
HETATM   18  O   UNL     1      41.339  -7.479  -2.169  1.00  0.00    -0.274 OA
HETATM   19  H   UNL     1      41.512  -9.465  -4.662  1.00  0.00     0.169 HD
ENDBRANCH  11  15
ENDBRANCH   6   9
ENDBRANCH   1   5
BRANCH   2  20
HETATM   20  C   UNL     1      41.844 -14.624   2.405  1.00  0.00     0.159 C 
BRANCH  20  21
HETATM   21  C   UNL     1      42.698 -15.826   1.958  1.00  0.00     0.171 C 
BRANCH  21  22
HETATM   22  O   UNL     1      43.805 -15.355   1.175  1.00  0.00    -0.389 OA
HETATM   23  H   UNL     1      43.448 -15.146   0.294  1.00  0.00     0.210 HD
ENDBRANCH  21  22
BRANCH  21  24
HETATM   24  C   UNL     1      43.168 -16.627   3.133  1.00  0.00     0.000 A 
HETATM   25  C   UNL     1      43.403 -18.042   3.167  1.00  0.00     0.001 A 
HETATM   26  C   UNL     1      43.807 -18.375   4.466  1.00  0.00     0.044 A 
HETATM   27  C   UNL     1      43.304 -19.070   2.205  1.00  0.00     0.014 A 
HETATM   28  C   UNL     1      44.117 -19.696   4.830  1.00  0.00     0.030 A 
HETATM   29  N   UNL     1      43.817 -17.206   5.193  1.00  0.00    -0.360 N 
HETATM   30  C   UNL     1      44.007 -20.695   3.857  1.00  0.00     0.002 A 
HETATM   31  C   UNL     1      43.606 -20.388   2.562  1.00  0.00     0.001 A 
HETATM   32  C   UNL     1      44.173 -17.067   6.588  1.00  0.00     0.155 C 
HETATM   33  C   UNL     1      43.436 -16.155   4.404  1.00  0.00     0.101 A 
ENDBRANCH  21  24
ENDBRANCH  20  21
ENDBRANCH   2  20
TORSDOF 7
ENDMDL
MODEL 9
REMARK VINA RESULT:      -8.1      3.412      7.296
REMARK  7 active torsions:
REMARK  status: ('A' for Active; 'I' for Inactive)
REMARK       I    between atoms: C_2  and  N_3 
REMARK    1  A    between atoms: N_3  and  C_4 
REMARK    2  A    between atoms: C_6  and  N_7 
REMARK       I    between atoms: N_7  and  C_8 
REMARK    3  A    between atoms: C_8  and  C_9 
REMARK       I    between atoms: C_9  and  N_10 
REMARK    4  A    between atoms: N_10  and  C_11 
REMARK    5  A    between atoms: C_11  and  C_12 
REMARK    6  A    between atoms: C_12  and  O_13 
REMARK    7  A    between atoms: C_12  and  C_14 
ROOT
HETATM    1  C   UNL     1      41.943 -12.002   4.649  1.00  0.00     0.309 C 
HETATM    2  N   UNL     1      42.442 -13.212   5.081  1.00  0.00    -0.350 N 
HETATM    3  O   UNL     1      41.269 -11.221   5.306  1.00  0.00    -0.262 OA
HETATM    4  H   UNL     1      42.807 -13.813   4.344  1.00  0.00     0.163 HD
ENDROOT
BRANCH   1   5
HETATM    5  C   UNL     1      42.278 -11.670   3.179  1.00  0.00     0.313 C 
HETATM    6  N   UNL     1      41.161 -11.738   2.375  1.00  0.00    -0.319 N 
HETATM    7  H   UNL     1      40.307 -11.998   2.866  1.00  0.00     0.169 HD
HETATM    8  O   UNL     1      43.436 -11.414   2.884  1.00  0.00    -0.262 OA
BRANCH   6   9
HETATM    9  C   UNL     1      41.073 -11.517   0.991  1.00  0.00     0.037 A 
HETATM   10  C   UNL     1      40.584 -12.460   0.082  1.00  0.00     0.059 A 
HETATM   11  C   UNL     1      40.520 -12.176  -1.292  1.00  0.00     0.036 A 
HETATM   12  C   UNL     1      40.951 -10.931  -1.747  1.00  0.00     0.029 A 
HETATM   13  C   UNL     1      41.443  -9.983  -0.847  1.00  0.00     0.004 A 
HETATM   14  C   UNL     1      41.507 -10.276   0.515  1.00  0.00     0.029 A 
BRANCH  11  15
HETATM   15  N   UNL     1      40.017 -13.191  -2.134  1.00  0.00    -0.327 N 
HETATM   16  C   UNL     1      38.699 -13.580  -2.290  1.00  0.00     0.218 C 
HETATM   17  C   UNL     1      38.556 -14.695  -3.296  1.00  0.00     0.117 C 
HETATM   18  O   UNL     1      37.715 -13.108  -1.733  1.00  0.00    -0.274 OA
HETATM   19  H   UNL     1      40.705 -13.682  -2.691  1.00  0.00     0.169 HD
ENDBRANCH  11  15
ENDBRANCH   6   9
ENDBRANCH   1   5
BRANCH   2  20
HETATM   20  C   UNL     1      42.007 -13.792   6.345  1.00  0.00     0.159 C 
BRANCH  20  21
HETATM   21  C   UNL     1      40.965 -14.910   6.144  1.00  0.00     0.171 C 
BRANCH  21  22
HETATM   22  O   UNL     1      39.651 -14.376   6.361  1.00  0.00    -0.389 OA
HETATM   23  H   UNL     1      39.774 -13.509   6.785  1.00  0.00     0.210 HD
ENDBRANCH  21  22
BRANCH  21  24
HETATM   24  C   UNL     1      41.082 -15.524   4.782  1.00  0.00     0.000 A 
HETATM   25  C   UNL     1      42.060 -16.482   4.356  1.00  0.00     0.001 A 
HETATM   26  C   UNL     1      41.819 -16.765   3.006  1.00  0.00     0.044 A 
HETATM   27  C   UNL     1      43.134 -17.132   5.002  1.00  0.00     0.014 A 
HETATM   28  C   UNL     1      42.611 -17.676   2.286  1.00  0.00     0.030 A 
HETATM   29  N   UNL     1      40.734 -16.006   2.627  1.00  0.00    -0.360 N 
HETATM   30  C   UNL     1      43.669 -18.303   2.950  1.00  0.00     0.002 A 
HETATM   31  C   UNL     1      43.929 -18.036   4.290  1.00  0.00     0.001 A 
HETATM   32  C   UNL     1      40.126 -15.975   1.315  1.00  0.00     0.155 C 
HETATM   33  C   UNL     1      40.286 -15.260   3.683  1.00  0.00     0.101 A 
ENDBRANCH  21  24
ENDBRANCH  20  21
ENDBRANCH   2  20
TORSDOF 7
ENDMDL
MODEL 10
REMARK VINA RESULT:      -8.1      2.705      4.280
REMARK  7 active torsions:
REMARK  status: ('A' for Active; 'I' for Inactive)
REMARK       I    between atoms: C_2  and  N_3 
REMARK    1  A    between atoms: N_3  and  C_4 
REMARK    2  A    between atoms: C_6  and  N_7 
REMARK       I    between atoms: N_7  and  C_8 
REMARK    3  A    between atoms: C_8  and  C_9 
REMARK       I    between atoms: C_9  and  N_10 
REMARK    4  A    between atoms: N_10  and  C_11 
REMARK    5  A    between atoms: C_11  and  C_12 
REMARK    6  A    between atoms: C_12  and  O_13 
REMARK    7  A    between atoms: C_12  and  C_14 
ROOT
HETATM    1  C   UNL     1      44.116 -11.614   7.279  1.00  0.00     0.309 C 
HETATM    2  N   UNL     1      43.328 -12.740   7.390  1.00  0.00    -0.350 N 
HETATM    3  O   UNL     1      45.187 -11.534   6.696  1.00  0.00    -0.262 OA
HETATM    4  H   UNL     1      42.576 -12.672   8.074  1.00  0.00     0.163 HD
ENDROOT
BRANCH   1   5
HETATM    5  C   UNL     1      43.549 -10.375   8.007  1.00  0.00     0.313 C 
HETATM    6  N   UNL     1      43.529 -10.553   9.373  1.00  0.00    -0.319 N 
HETATM    7  H   UNL     1      43.876 -11.459   9.682  1.00  0.00     0.169 HD
HETATM    8  O   UNL     1      43.179  -9.421   7.339  1.00  0.00    -0.262 OA
BRANCH   6   9
HETATM    9  C   UNL     1      43.074  -9.660  10.357  1.00  0.00     0.037 A 
HETATM   10  C   UNL     1      41.776  -9.142  10.397  1.00  0.00     0.059 A 
HETATM   11  C   UNL     1      41.382  -8.253  11.411  1.00  0.00     0.036 A 
HETATM   12  C   UNL     1      42.306  -7.890  12.390  1.00  0.00     0.029 A 
HETATM   13  C   UNL     1      43.606  -8.400  12.356  1.00  0.00     0.004 A 
HETATM   14  C   UNL     1      43.988  -9.279  11.343  1.00  0.00     0.029 A 
BRANCH  11  15
HETATM   15  N   UNL     1      40.054  -7.778  11.367  1.00  0.00    -0.327 N 
HETATM   16  C   UNL     1      39.219  -7.509  12.437  1.00  0.00     0.218 C 
HETATM   17  C   UNL     1      37.872  -7.001  11.987  1.00  0.00     0.117 C 
HETATM   18  O   UNL     1      39.481  -7.623  13.629  1.00  0.00    -0.274 OA
HETATM   19  H   UNL     1      39.676  -7.610  10.443  1.00  0.00     0.169 HD
ENDBRANCH  11  15
ENDBRANCH   6   9
ENDBRANCH   1   5
BRANCH   2  20
HETATM   20  C   UNL     1      43.832 -14.047   6.988  1.00  0.00     0.159 C 
BRANCH  20  21
HETATM   21  C   UNL     1      42.762 -15.148   7.121  1.00  0.00     0.171 C 
BRANCH  21  22
HETATM   22  O   UNL     1      41.473 -14.593   6.821  1.00  0.00    -0.389 OA
HETATM   23  H   UNL     1      41.153 -15.056   6.028  1.00  0.00     0.210 HD
ENDBRANCH  21  22
BRANCH  21  24
HETATM   24  C   UNL     1      43.069 -16.316   6.234  1.00  0.00     0.000 A 
HETATM   25  C   UNL     1      43.096 -16.318   4.800  1.00  0.00     0.001 A 
HETATM   26  C   UNL     1      43.400 -17.619   4.382  1.00  0.00     0.044 A 
HETATM   27  C   UNL     1      42.883 -15.325   3.819  1.00  0.00     0.014 A 
HETATM   28  C   UNL     1      43.503 -17.956   3.022  1.00  0.00     0.030 A 
HETATM   29  N   UNL     1      43.553 -18.378   5.521  1.00  0.00    -0.360 N 
HETATM   30  C   UNL     1      43.285 -16.953   2.072  1.00  0.00     0.002 A 
HETATM   31  C   UNL     1      42.979 -15.655   2.463  1.00  0.00     0.001 A 
HETATM   32  C   UNL     1      43.876 -19.787   5.574  1.00  0.00     0.155 C 
HETATM   33  C   UNL     1      43.357 -17.607   6.633  1.00  0.00     0.101 A 
ENDBRANCH  21  24
ENDBRANCH  20  21
ENDBRANCH   2  20
TORSDOF 7
ENDMDL
