MODEL 1
REMARK VINA RESULT:      -9.8      0.000      0.000
REMARK  5 active torsions:
REMARK  status: ('A' for Active; 'I' for Inactive)
REMARK    1  A    between atoms: O_2  and  C_3 
REMARK    2  A    between atoms: C_10  and  C_11 
REMARK    3  A    between atoms: C_11  and  C_12 
REMARK       I    between atoms: C_12  and  N_13 
REMARK    4  A    between atoms: N_13  and  C_14 
REMARK    5  A    between atoms: C_16  and  C_17 
ROOT
HETATM    1  C   UNL     1      43.184 -12.137   6.797  1.00  0.00     0.035 A 
HETATM    2  C   UNL     1      42.845 -10.886   7.334  1.00  0.00     0.046 A 
HETATM    3  C   UNL     1      43.836  -9.950   7.685  1.00  0.00     0.036 A 
HETATM    4  C   UNL     1      45.183 -10.275   7.479  1.00  0.00     0.048 A 
HETATM    5 CL   UNL     1      46.469  -9.199   7.901  1.00  0.00    -0.083 Cl
HETATM    6  C   UNL     1      45.527 -11.515   6.940  1.00  0.00     0.027 A 
HETATM    7  C   UNL     1      44.532 -12.440   6.605  1.00  0.00     0.031 A 
ENDROOT
BRANCH   1   8
HETATM    8  N   UNL     1      42.127 -12.999   6.431  1.00  0.00    -0.327 N 
HETATM    9  C   UNL     1      42.002 -14.349   6.740  1.00  0.00     0.226 C 
HETATM   10  O   UNL     1      42.694 -14.965   7.547  1.00  0.00    -0.273 OA
HETATM   11  H   UNL     1      41.387 -12.596   5.868  1.00  0.00     0.169 HD
BRANCH   9  12
HETATM   12  C   UNL     1      40.948 -15.055   5.913  1.00  0.00     0.144 C 
BRANCH  12  13
HETATM   13  C   UNL     1      41.360 -15.604   4.581  1.00  0.00    -0.021 A 
HETATM   14  C   UNL     1      42.265 -16.666   4.225  1.00  0.00     0.001 A 
HETATM   15  C   UNL     1      43.053 -17.600   4.934  1.00  0.00     0.051 A 
HETATM   16  C   UNL     1      42.340 -16.696   2.828  1.00  0.00     0.043 A 
HETATM   17  C   UNL     1      43.871 -18.515   4.248  1.00  0.00     0.069 A 
HETATM   18  C   UNL     1      43.919 -18.500   2.857  1.00  0.00     0.039 A 
HETATM   19  C   UNL     1      43.154 -17.590   2.123  1.00  0.00     0.033 A 
HETATM   20  N   UNL     1      41.510 -15.715   2.349  1.00  0.00    -0.365 N 
HETATM   21  H   UNL     1      41.381 -15.501   1.370  1.00  0.00     0.165 HD
HETATM   22  C   UNL     1      40.914 -15.059   3.386  1.00  0.00     0.097 A 
BRANCH  17  23
HETATM   23  O   UNL     1      44.572 -19.370   5.059  1.00  0.00    -0.356 OA
HETATM   24  C   UNL     1      44.141 -20.725   5.091  1.00  0.00     0.210 C 
ENDBRANCH  17  23
ENDBRANCH  12  13
ENDBRANCH   9  12
ENDBRANCH   1   8
BRANCH   3  25
HETATM   25  C   UNL     1      43.434  -8.659   8.232  1.00  0.00     0.165 A 
HETATM   26  N   UNL     1      43.274  -8.364   9.570  1.00  0.00    -0.316 N 
HETATM   27  C   UNL     1      42.900  -7.043   9.625  1.00  0.00     0.130 A 
HETATM   28  C   UNL     1      43.423  -9.302  10.662  1.00  0.00     0.132 C 
HETATM   29  C   UNL     1      42.611  -6.262  10.860  1.00  0.00     0.081 C 
HETATM   30  N   UNL     1      42.828  -6.572   8.399  1.00  0.00    -0.134 NA
HETATM   31  C   UNL     1      41.789  -7.048  11.875  1.00  0.00     0.008 C 
HETATM   32  C   UNL     1      42.620  -8.012  12.725  1.00  0.00     0.002 C 
HETATM   33  C   UNL     1      43.787  -8.697  12.014  1.00  0.00     0.020 C 
HETATM   34  N   UNL     1      43.159  -7.578   7.530  1.00  0.00    -0.129 NA
ENDBRANCH   3  25
TORSDOF 5
ENDMDL
MODEL 2
REMARK VINA RESULT:      -9.4      1.834      3.086
REMARK  5 active torsions:
REMARK  status: ('A' for Active; 'I' for Inactive)
REMARK    1  A    between atoms: O_2  and  C_3 
REMARK    2  A    between atoms: C_10  and  C_11 
REMARK    3  A    between atoms: C_11  and  C_12 
REMARK       I    between atoms: C_12  and  N_13 
REMARK    4  A    between atoms: N_13  and  C_14 
REMARK    5  A    between atoms: C_16  and  C_17 
ROOT
HETATM    1  C   UNL     1      43.824 -12.641   7.111  1.00  0.00     0.035 A 
HETATM    2  C   UNL     1      43.526 -11.759   8.161  1.00  0.00     0.046 A 
HETATM    3  C   UNL     1      44.361 -10.662   8.451  1.00  0.00     0.036 A 
HETATM    4  C   UNL     1      45.501 -10.447   7.666  1.00  0.00     0.048 A 
HETATM    5 CL   UNL     1      46.595  -9.142   7.961  1.00  0.00    -0.083 Cl
HETATM    6  C   UNL     1      45.799 -11.318   6.617  1.00  0.00     0.027 A 
HETATM    7  C   UNL     1      44.966 -12.409   6.346  1.00  0.00     0.031 A 
ENDROOT
BRANCH   1   8
HETATM    8  N   UNL     1      42.911 -13.688   6.860  1.00  0.00    -0.327 N 
HETATM    9  C   UNL     1      42.805 -14.890   7.552  1.00  0.00     0.226 C 
HETATM   10  O   UNL     1      43.357 -15.154   8.617  1.00  0.00    -0.273 OA
HETATM   11  H   UNL     1      42.275 -13.559   6.082  1.00  0.00     0.169 HD
BRANCH   9  12
HETATM   12  C   UNL     1      41.976 -15.928   6.821  1.00  0.00     0.144 C 
BRANCH  12  13
HETATM   13  C   UNL     1      42.603 -16.619   5.649  1.00  0.00    -0.021 A 
HETATM   14  C   UNL     1      42.674 -16.261   4.256  1.00  0.00     0.001 A 
HETATM   15  C   UNL     1      42.251 -15.163   3.473  1.00  0.00     0.051 A 
HETATM   16  C   UNL     1      43.307 -17.315   3.589  1.00  0.00     0.043 A 
HETATM   17  C   UNL     1      42.466 -15.148   2.084  1.00  0.00     0.069 A 
HETATM   18  C   UNL     1      43.093 -16.225   1.464  1.00  0.00     0.039 A 
HETATM   19  C   UNL     1      43.524 -17.328   2.207  1.00  0.00     0.033 A 
HETATM   20  N   UNL     1      43.625 -18.265   4.526  1.00  0.00    -0.365 N 
HETATM   21  H   UNL     1      44.078 -19.144   4.320  1.00  0.00     0.165 HD
HETATM   22  C   UNL     1      43.217 -17.858   5.762  1.00  0.00     0.097 A 
BRANCH  17  23
HETATM   23  O   UNL     1      42.015 -14.018   1.452  1.00  0.00    -0.356 OA
HETATM   24  C   UNL     1      40.793 -14.127   0.732  1.00  0.00     0.210 C 
ENDBRANCH  17  23
ENDBRANCH  12  13
ENDBRANCH   9  12
ENDBRANCH   1   8
BRANCH   3  25
HETATM   25  C   UNL     1      44.004  -9.767   9.546  1.00  0.00     0.165 A 
HETATM   26  N   UNL     1      43.292  -8.592   9.429  1.00  0.00    -0.316 N 
HETATM   27  C   UNL     1      43.182  -8.086  10.701  1.00  0.00     0.130 A 
HETATM   28  C   UNL     1      42.822  -8.012   8.188  1.00  0.00     0.132 C 
HETATM   29  C   UNL     1      42.492  -6.824  11.090  1.00  0.00     0.081 C 
HETATM   30  N   UNL     1      43.797  -8.898  11.534  1.00  0.00    -0.134 NA
HETATM   31  C   UNL     1      42.778  -5.677  10.128  1.00  0.00     0.008 C 
HETATM   32  C   UNL     1      41.923  -5.709   8.860  1.00  0.00     0.002 C 
HETATM   33  C   UNL     1      41.608  -7.097   8.299  1.00  0.00     0.020 C 
HETATM   34  N   UNL     1      44.311  -9.944  10.815  1.00  0.00    -0.129 NA
ENDBRANCH   3  25
TORSDOF 5
ENDMDL
MODEL 3
REMARK VINA RESULT:      -9.3      1.926      2.823
REMARK  5 active torsions:
REMARK  status: ('A' for Active; 'I' for Inactive)
REMARK    1  A    between atoms: O_2  and  C_3 
REMARK    2  A    between atoms: C_10  and  C_11 
REMARK    3  A    between atoms: C_11  and  C_12 
REMARK       I    between atoms: C_12  and  N_13 
REMARK    4  A    between atoms: N_13  and  C_14 
REMARK    5  A    between atoms: C_16  and  C_17 
ROOT
HETATM    1  C   UNL     1      44.304 -12.285   6.588  1.00  0.00     0.035 A 
HETATM    2  C   UNL     1      43.742 -11.948   7.828  1.00  0.00     0.046 A 
HETATM    3  C   UNL     1      44.294 -10.927   8.626  1.00  0.00     0.036 A 
HETATM    4  C   UNL     1      45.418 -10.232   8.162  1.00  0.00     0.048 A 
HETATM    5 CL   UNL     1      46.177  -8.981   9.082  1.00  0.00    -0.083 Cl
HETATM    6  C   UNL     1      45.978 -10.559   6.927  1.00  0.00     0.027 A 
HETATM    7  C   UNL     1      45.426 -11.582   6.148  1.00  0.00     0.031 A 
ENDROOT
BRANCH   1   8
HETATM    8  N   UNL     1      43.662 -13.290   5.831  1.00  0.00    -0.327 N 
HETATM    9  C   UNL     1      42.360 -13.268   5.344  1.00  0.00     0.226 C 
HETATM   10  O   UNL     1      41.620 -12.288   5.325  1.00  0.00    -0.273 OA
HETATM   11  H   UNL     1      44.202 -14.125   5.636  1.00  0.00     0.169 HD
BRANCH   9  12
HETATM   12  C   UNL     1      41.872 -14.627   4.885  1.00  0.00     0.144 C 
BRANCH  12  13
HETATM   13  C   UNL     1      42.383 -15.833   5.614  1.00  0.00    -0.021 A 
HETATM   14  C   UNL     1      42.978 -17.053   5.139  1.00  0.00     0.001 A 
HETATM   15  C   UNL     1      43.348 -17.572   3.877  1.00  0.00     0.051 A 
HETATM   16  C   UNL     1      43.189 -17.873   6.252  1.00  0.00     0.043 A 
HETATM   17  C   UNL     1      43.903 -18.859   3.764  1.00  0.00     0.069 A 
HETATM   18  C   UNL     1      44.085 -19.640   4.902  1.00  0.00     0.039 A 
HETATM   19  C   UNL     1      43.731 -19.160   6.165  1.00  0.00     0.033 A 
HETATM   20  N   UNL     1      42.762 -17.184   7.358  1.00  0.00    -0.365 N 
HETATM   21  H   UNL     1      42.782 -17.546   8.302  1.00  0.00     0.165 HD
HETATM   22  C   UNL     1      42.284 -15.961   6.991  1.00  0.00     0.097 A 
BRANCH  17  23
HETATM   23  O   UNL     1      44.224 -19.229   2.484  1.00  0.00    -0.356 OA
HETATM   24  C   UNL     1      43.497 -20.318   1.928  1.00  0.00     0.210 C 
ENDBRANCH  17  23
ENDBRANCH  12  13
ENDBRANCH   9  12
ENDBRANCH   1   8
BRANCH   3  25
HETATM   25  C   UNL     1      43.668 -10.607   9.904  1.00  0.00     0.165 A 
HETATM   26  N   UNL     1      42.661  -9.685  10.101  1.00  0.00    -0.316 N 
HETATM   27  C   UNL     1      42.374  -9.717  11.444  1.00  0.00     0.130 A 
HETATM   28  C   UNL     1      42.090  -8.832   9.080  1.00  0.00     0.132 C 
HETATM   29  C   UNL     1      41.349  -8.894  12.144  1.00  0.00     0.081 C 
HETATM   30  N   UNL     1      43.163 -10.596  12.024  1.00  0.00    -0.134 NA
HETATM   31  C   UNL     1      41.336  -7.444  11.673  1.00  0.00     0.008 C 
HETATM   32  C   UNL     1      40.565  -7.227  10.370  1.00  0.00     0.002 C 
HETATM   33  C   UNL     1      40.666  -8.349   9.337  1.00  0.00     0.020 C 
HETATM   34  N   UNL     1      43.971 -11.149  11.066  1.00  0.00    -0.129 NA
ENDBRANCH   3  25
TORSDOF 5
ENDMDL
MODEL 4
REMARK VINA RESULT:      -9.3      1.721      2.009
REMARK  5 active torsions:
REMARK  status: ('A' for Active; 'I' for Inactive)
REMARK    1  A    between atoms: O_2  and  C_3 
REMARK    2  A    between atoms: C_10  and  C_11 
REMARK    3  A    between atoms: C_11  and  C_12 
REMARK       I    between atoms: C_12  and  N_13 
REMARK    4  A    between atoms: N_13  and  C_14 
REMARK    5  A    between atoms: C_16  and  C_17 
ROOT
HETATM    1  C   UNL     1      43.893 -11.835   6.342  1.00  0.00     0.035 A 
HETATM    2  C   UNL     1      43.123 -10.905   7.056  1.00  0.00     0.046 A 
HETATM    3  C   UNL     1      43.721  -9.998   7.952  1.00  0.00     0.036 A 
HETATM    4  C   UNL     1      45.111 -10.023   8.120  1.00  0.00     0.048 A 
HETATM    5 CL   UNL     1      45.930  -8.965   9.215  1.00  0.00    -0.083 Cl
HETATM    6  C   UNL     1      45.883 -10.942   7.409  1.00  0.00     0.027 A 
HETATM    7  C   UNL     1      45.276 -11.843   6.528  1.00  0.00     0.031 A 
ENDROOT
BRANCH   1   8
HETATM    8  N   UNL     1      43.220 -12.677   5.430  1.00  0.00    -0.327 N 
HETATM    9  C   UNL     1      43.063 -12.477   4.063  1.00  0.00     0.226 C 
HETATM   10  O   UNL     1      43.653 -11.634   3.392  1.00  0.00    -0.273 OA
HETATM   11  H   UNL     1      42.788 -13.509   5.816  1.00  0.00     0.169 HD
BRANCH   9  12
HETATM   12  C   UNL     1      42.005 -13.369   3.447  1.00  0.00     0.144 C 
BRANCH  12  13
HETATM   13  C   UNL     1      42.455 -14.658   2.828  1.00  0.00    -0.021 A 
HETATM   14  C   UNL     1      42.887 -15.898   3.416  1.00  0.00     0.001 A 
HETATM   15  C   UNL     1      43.015 -16.402   4.731  1.00  0.00     0.051 A 
HETATM   16  C   UNL     1      43.275 -16.741   2.369  1.00  0.00     0.043 A 
HETATM   17  C   UNL     1      43.513 -17.697   4.957  1.00  0.00     0.069 A 
HETATM   18  C   UNL     1      43.894 -18.495   3.882  1.00  0.00     0.039 A 
HETATM   19  C   UNL     1      43.781 -18.030   2.569  1.00  0.00     0.033 A 
HETATM   20  N   UNL     1      43.074 -16.059   1.196  1.00  0.00    -0.365 N 
HETATM   21  H   UNL     1      43.285 -16.425   0.277  1.00  0.00     0.165 HD
HETATM   22  C   UNL     1      42.578 -14.816   1.456  1.00  0.00     0.097 A 
BRANCH  17  23
HETATM   23  O   UNL     1      43.574 -18.060   6.277  1.00  0.00    -0.356 OA
HETATM   24  C   UNL     1      43.530 -17.010   7.236  1.00  0.00     0.210 C 
ENDBRANCH  17  23
ENDBRANCH  12  13
ENDBRANCH   9  12
ENDBRANCH   1   8
BRANCH   3  25
HETATM   25  C   UNL     1      42.879  -9.044   8.665  1.00  0.00     0.165 A 
HETATM   26  N   UNL     1      42.544  -9.104  10.002  1.00  0.00    -0.316 N 
HETATM   27  C   UNL     1      41.752  -8.009  10.245  1.00  0.00     0.130 A 
HETATM   28  C   UNL     1      42.925 -10.158  10.918  1.00  0.00     0.132 C 
HETATM   29  C   UNL     1      41.142  -7.637  11.552  1.00  0.00     0.081 C 
HETATM   30  N   UNL     1      41.607  -7.334   9.124  1.00  0.00    -0.134 NA
HETATM   31  C   UNL     1      40.563  -8.837  12.294  1.00  0.00     0.008 C 
HETATM   32  C   UNL     1      41.609  -9.651  13.057  1.00  0.00     0.002 C 
HETATM   33  C   UNL     1      42.981  -9.771  12.392  1.00  0.00     0.020 C 
HETATM   34  N   UNL     1      42.307  -7.980   8.140  1.00  0.00    -0.129 NA
ENDBRANCH   3  25
TORSDOF 5
ENDMDL
MODEL 5
REMARK VINA RESULT:      -8.7      4.861      7.314
REMARK  5 active torsions:
REMARK  status: ('A' for Active; 'I' for Inactive)
REMARK    1  A    between atoms: O_2  and  C_3 
REMARK    2  A    between atoms: C_10  and  C_11 
REMARK    3  A    between atoms: C_11  and  C_12 
REMARK       I    between atoms: C_12  and  N_13 
REMARK    4  A    between atoms: N_13  and  C_14 
REMARK    5  A    between atoms: C_16  and  C_17 
ROOT
HETATM    1  C   UNL     1      40.198 -12.764   5.787  1.00  0.00     0.035 A 
HETATM    2  C   UNL     1      40.624 -12.496   4.477  1.00  0.00     0.046 A 
HETATM    3  C   UNL     1      40.231 -11.321   3.809  1.00  0.00     0.036 A 
HETATM    4  C   UNL     1      39.410 -10.401   4.473  1.00  0.00     0.048 A 
HETATM    5 CL   UNL     1      38.859  -8.943   3.725  1.00  0.00    -0.083 Cl
HETATM    6  C   UNL     1      38.988 -10.659   5.777  1.00  0.00     0.027 A 
HETATM    7  C   UNL     1      39.378 -11.835   6.427  1.00  0.00     0.031 A 
ENDROOT
BRANCH   1   8
HETATM    8  N   UNL     1      40.674 -13.943   6.400  1.00  0.00    -0.327 N 
HETATM    9  C   UNL     1      41.991 -14.240   6.735  1.00  0.00     0.226 C 
HETATM   10  O   UNL     1      42.927 -13.444   6.732  1.00  0.00    -0.273 OA
HETATM   11  H   UNL     1      39.986 -14.659   6.602  1.00  0.00     0.169 HD
BRANCH   9  12
HETATM   12  C   UNL     1      42.211 -15.706   7.049  1.00  0.00     0.144 C 
BRANCH  12  13
HETATM   13  C   UNL     1      42.885 -16.547   6.007  1.00  0.00    -0.021 A 
HETATM   14  C   UNL     1      42.611 -16.732   4.607  1.00  0.00     0.001 A 
HETATM   15  C   UNL     1      41.685 -16.202   3.680  1.00  0.00     0.051 A 
HETATM   16  C   UNL     1      43.505 -17.699   4.134  1.00  0.00     0.043 A 
HETATM   17  C   UNL     1      41.677 -16.639   2.344  1.00  0.00     0.069 A 
HETATM   18  C   UNL     1      42.581 -17.610   1.923  1.00  0.00     0.039 A 
HETATM   19  C   UNL     1      43.511 -18.156   2.811  1.00  0.00     0.033 A 
HETATM   20  N   UNL     1      44.301 -18.075   5.186  1.00  0.00    -0.365 N 
HETATM   21  H   UNL     1      45.028 -18.775   5.133  1.00  0.00     0.165 HD
HETATM   22  C   UNL     1      43.945 -17.389   6.310  1.00  0.00     0.097 A 
BRANCH  17  23
HETATM   23  O   UNL     1      40.735 -16.034   1.554  1.00  0.00    -0.356 OA
HETATM   24  C   UNL     1      41.082 -14.778   0.983  1.00  0.00     0.210 C 
ENDBRANCH  17  23
ENDBRANCH  12  13
ENDBRANCH   9  12
ENDBRANCH   1   8
BRANCH   3  25
HETATM   25  C   UNL     1      40.707 -11.083   2.451  1.00  0.00     0.165 A 
HETATM   26  N   UNL     1      39.996 -11.319   1.293  1.00  0.00    -0.316 N 
HETATM   27  C   UNL     1      40.819 -10.946   0.258  1.00  0.00     0.130 A 
HETATM   28  C   UNL     1      38.672 -11.901   1.222  1.00  0.00     0.132 C 
HETATM   29  C   UNL     1      40.493 -11.015  -1.194  1.00  0.00     0.081 C 
HETATM   30  N   UNL     1      41.960 -10.520   0.757  1.00  0.00    -0.134 NA
HETATM   31  C   UNL     1      39.778 -12.306  -1.576  1.00  0.00     0.008 C 
HETATM   32  C   UNL     1      38.278 -12.289  -1.279  1.00  0.00     0.002 C 
HETATM   33  C   UNL     1      37.853 -11.544  -0.013  1.00  0.00     0.020 C 
HETATM   34  N   UNL     1      41.891 -10.607   2.123  1.00  0.00    -0.129 NA
ENDBRANCH   3  25
TORSDOF 5
ENDMDL
MODEL 6
REMARK VINA RESULT:      -8.7      1.974      2.730
REMARK  5 active torsions:
REMARK  status: ('A' for Active; 'I' for Inactive)
REMARK    1  A    between atoms: O_2  and  C_3 
REMARK    2  A    between atoms: C_10  and  C_11 
REMARK    3  A    between atoms: C_11  and  C_12 
REMARK       I    between atoms: C_12  and  N_13 
REMARK    4  A    between atoms: N_13  and  C_14 
REMARK    5  A    between atoms: C_16  and  C_17 
ROOT
HETATM    1  C   UNL     1      43.891 -11.694   6.627  1.00  0.00     0.035 A 
HETATM    2  C   UNL     1      43.091 -10.944   7.501  1.00  0.00     0.046 A 
HETATM    3  C   UNL     1      43.661 -10.173   8.532  1.00  0.00     0.036 A 
HETATM    4  C   UNL     1      45.054 -10.150   8.675  1.00  0.00     0.048 A 
HETATM    5 CL   UNL     1      45.841  -9.252   9.925  1.00  0.00    -0.083 Cl
HETATM    6  C   UNL     1      45.856 -10.890   7.806  1.00  0.00     0.027 A 
HETATM    7  C   UNL     1      45.276 -11.660   6.791  1.00  0.00     0.031 A 
ENDROOT
BRANCH   1   8
HETATM    8  N   UNL     1      43.242 -12.404   5.593  1.00  0.00    -0.327 N 
HETATM    9  C   UNL     1      43.370 -12.193   4.225  1.00  0.00     0.226 C 
HETATM   10  O   UNL     1      44.217 -11.486   3.686  1.00  0.00    -0.273 OA
HETATM   11  H   UNL     1      42.600 -13.134   5.878  1.00  0.00     0.169 HD
BRANCH   9  12
HETATM   12  C   UNL     1      42.287 -12.875   3.413  1.00  0.00     0.144 C 
BRANCH  12  13
HETATM   13  C   UNL     1      42.599 -14.218   2.825  1.00  0.00    -0.021 A 
HETATM   14  C   UNL     1      42.933 -15.474   3.442  1.00  0.00     0.001 A 
HETATM   15  C   UNL     1      43.054 -15.947   4.769  1.00  0.00     0.051 A 
HETATM   16  C   UNL     1      43.211 -16.381   2.414  1.00  0.00     0.043 A 
HETATM   17  C   UNL     1      43.438 -17.275   5.025  1.00  0.00     0.069 A 
HETATM   18  C   UNL     1      43.712 -18.137   3.967  1.00  0.00     0.039 A 
HETATM   19  C   UNL     1      43.603 -17.704   2.643  1.00  0.00     0.033 A 
HETATM   20  N   UNL     1      43.038 -15.720   1.224  1.00  0.00    -0.365 N 
HETATM   21  H   UNL     1      43.187 -16.131   0.313  1.00  0.00     0.165 HD
HETATM   22  C   UNL     1      42.666 -14.429   1.456  1.00  0.00     0.097 A 
BRANCH  17  23
HETATM   23  O   UNL     1      43.505 -17.601   6.354  1.00  0.00    -0.356 OA
HETATM   24  C   UNL     1      43.859 -16.559   7.256  1.00  0.00     0.210 C 
ENDBRANCH  17  23
ENDBRANCH  12  13
ENDBRANCH   9  12
ENDBRANCH   1   8
BRANCH   3  25
HETATM   25  C   UNL     1      42.787  -9.401   9.409  1.00  0.00     0.165 A 
HETATM   26  N   UNL     1      42.292  -8.141   9.150  1.00  0.00    -0.316 N 
HETATM   27  C   UNL     1      41.515  -7.807  10.232  1.00  0.00     0.130 A 
HETATM   28  C   UNL     1      42.599  -7.339   7.984  1.00  0.00     0.132 C 
HETATM   29  C   UNL     1      40.763  -6.535  10.416  1.00  0.00     0.081 C 
HETATM   30  N   UNL     1      41.546  -8.799  11.097  1.00  0.00    -0.134 NA
HETATM   31  C   UNL     1      41.565  -5.310   9.991  1.00  0.00     0.008 C 
HETATM   32  C   UNL     1      41.547  -5.057   8.483  1.00  0.00     0.002 C 
HETATM   33  C   UNL     1      41.552  -6.301   7.594  1.00  0.00     0.020 C 
HETATM   34  N   UNL     1      42.340  -9.791  10.586  1.00  0.00    -0.129 NA
ENDBRANCH   3  25
TORSDOF 5
ENDMDL
MODEL 7
REMARK VINA RESULT:      -8.5      3.108      8.739
REMARK  5 active torsions:
REMARK  status: ('A' for Active; 'I' for Inactive)
REMARK    1  A    between atoms: O_2  and  C_3 
REMARK    2  A    between atoms: C_10  and  C_11 
REMARK    3  A    between atoms: C_11  and  C_12 
REMARK       I    between atoms: C_12  and  N_13 
REMARK    4  A    between atoms: N_13  and  C_14 
REMARK    5  A    between atoms: C_16  and  C_17 
ROOT
HETATM    1  C   UNL     1      44.413 -10.024   9.281  1.00  0.00     0.035 A 
HETATM    2  C   UNL     1      43.496 -10.663   8.433  1.00  0.00     0.046 A 
HETATM    3  C   UNL     1      43.890 -11.160   7.176  1.00  0.00     0.036 A 
HETATM    4  C   UNL     1      45.225 -11.021   6.776  1.00  0.00     0.048 A 
HETATM    5 CL   UNL     1      45.794 -11.579   5.242  1.00  0.00    -0.083 Cl
HETATM    6  C   UNL     1      46.142 -10.391   7.617  1.00  0.00     0.027 A 
HETATM    7  C   UNL     1      45.736  -9.893   8.860  1.00  0.00     0.031 A 
ENDROOT
BRANCH   1   8
HETATM    8  N   UNL     1      43.946  -9.594  10.543  1.00  0.00    -0.327 N 
HETATM    9  C   UNL     1      43.657 -10.392  11.644  1.00  0.00     0.226 C 
HETATM   10  O   UNL     1      43.947 -11.580  11.763  1.00  0.00    -0.273 OA
HETATM   11  H   UNL     1      43.786  -8.600  10.653  1.00  0.00     0.169 HD
BRANCH   9  12
HETATM   12  C   UNL     1      42.852  -9.673  12.708  1.00  0.00     0.144 C 
BRANCH  12  13
HETATM   13  C   UNL     1      41.889  -8.617  12.256  1.00  0.00    -0.021 A 
HETATM   14  C   UNL     1      40.816  -8.651  11.298  1.00  0.00     0.001 A 
HETATM   15  C   UNL     1      40.233  -9.638  10.471  1.00  0.00     0.051 A 
HETATM   16  C   UNL     1      40.298  -7.355  11.208  1.00  0.00     0.043 A 
HETATM   17  C   UNL     1      39.176  -9.313   9.602  1.00  0.00     0.069 A 
HETATM   18  C   UNL     1      38.701  -8.006   9.543  1.00  0.00     0.039 A 
HETATM   19  C   UNL     1      39.254  -7.004  10.345  1.00  0.00     0.033 A 
HETATM   20  N   UNL     1      41.005  -6.567  12.081  1.00  0.00    -0.365 N 
HETATM   21  H   UNL     1      40.852  -5.577  12.211  1.00  0.00     0.165 HD
HETATM   22  C   UNL     1      41.954  -7.311  12.719  1.00  0.00     0.097 A 
BRANCH  17  23
HETATM   23  O   UNL     1      38.699 -10.367   8.868  1.00  0.00    -0.356 OA
HETATM   24  C   UNL     1      39.127 -10.456   7.514  1.00  0.00     0.210 C 
ENDBRANCH  17  23
ENDBRANCH  12  13
ENDBRANCH   9  12
ENDBRANCH   1   8
BRANCH   3  25
HETATM   25  C   UNL     1      42.902 -11.826   6.334  1.00  0.00     0.165 A 
HETATM   26  N   UNL     1      42.624 -13.177   6.330  1.00  0.00    -0.316 N 
HETATM   27  C   UNL     1      41.631 -13.358   5.398  1.00  0.00     0.130 A 
HETATM   28  C   UNL     1      43.306 -14.179   7.122  1.00  0.00     0.132 C 
HETATM   29  C   UNL     1      40.992 -14.653   5.034  1.00  0.00     0.081 C 
HETATM   30  N   UNL     1      41.333 -12.192   4.865  1.00  0.00    -0.134 NA
HETATM   31  C   UNL     1      41.999 -15.790   4.905  1.00  0.00     0.008 C 
HETATM   32  C   UNL     1      42.401 -16.410   6.245  1.00  0.00     0.002 C 
HETATM   33  C   UNL     1      42.509 -15.443   7.425  1.00  0.00     0.020 C 
HETATM   34  N   UNL     1      42.127 -11.238   5.446  1.00  0.00    -0.129 NA
ENDBRANCH   3  25
TORSDOF 5
ENDMDL
MODEL 8
REMARK VINA RESULT:      -8.5      2.103      2.788
REMARK  5 active torsions:
REMARK  status: ('A' for Active; 'I' for Inactive)
REMARK    1  A    between atoms: O_2  and  C_3 
REMARK    2  A    between atoms: C_10  and  C_11 
REMARK    3  A    between atoms: C_11  and  C_12 
REMARK       I    between atoms: C_12  and  N_13 
REMARK    4  A    between atoms: N_13  and  C_14 
REMARK    5  A    between atoms: C_16  and  C_17 
ROOT
HETATM    1  C   UNL     1      43.401 -10.820   6.321  1.00  0.00     0.035 A 
HETATM    2  C   UNL     1      43.056  -9.734   7.140  1.00  0.00     0.046 A 
HETATM    3  C   UNL     1      43.851  -9.372   8.244  1.00  0.00     0.036 A 
HETATM    4  C   UNL     1      45.011 -10.106   8.518  1.00  0.00     0.048 A 
HETATM    5 CL   UNL     1      46.035  -9.750   9.865  1.00  0.00    -0.083 Cl
HETATM    6  C   UNL     1      45.362 -11.184   7.705  1.00  0.00     0.027 A 
HETATM    7  C   UNL     1      44.559 -11.539   6.616  1.00  0.00     0.031 A 
ENDROOT
BRANCH   1   8
HETATM    8  N   UNL     1      42.573 -11.087   5.208  1.00  0.00    -0.327 N 
HETATM    9  C   UNL     1      42.963 -11.168   3.876  1.00  0.00     0.226 C 
HETATM   10  O   UNL     1      44.121 -11.214   3.471  1.00  0.00    -0.273 OA
HETATM   11  H   UNL     1      41.586 -11.217   5.398  1.00  0.00     0.169 HD
BRANCH   9  12
HETATM   12  C   UNL     1      41.797 -11.118   2.910  1.00  0.00     0.144 C 
BRANCH  12  13
HETATM   13  C   UNL     1      40.897 -12.314   2.842  1.00  0.00    -0.021 A 
HETATM   14  C   UNL     1      41.185 -13.723   2.801  1.00  0.00     0.001 A 
HETATM   15  C   UNL     1      42.354 -14.516   2.850  1.00  0.00     0.051 A 
HETATM   16  C   UNL     1      39.965 -14.392   2.655  1.00  0.00     0.043 A 
HETATM   17  C   UNL     1      42.275 -15.917   2.756  1.00  0.00     0.069 A 
HETATM   18  C   UNL     1      41.038 -16.536   2.602  1.00  0.00     0.039 A 
HETATM   19  C   UNL     1      39.861 -15.784   2.549  1.00  0.00     0.033 A 
HETATM   20  N   UNL     1      38.975 -13.443   2.625  1.00  0.00    -0.365 N 
HETATM   21  H   UNL     1      37.992 -13.645   2.512  1.00  0.00     0.165 HD
HETATM   22  C   UNL     1      39.518 -12.198   2.743  1.00  0.00     0.097 A 
BRANCH  17  23
HETATM   23  O   UNL     1      43.483 -16.561   2.829  1.00  0.00    -0.356 OA
HETATM   24  C   UNL     1      43.493 -17.948   2.516  1.00  0.00     0.210 C 
ENDBRANCH  17  23
ENDBRANCH  12  13
ENDBRANCH   9  12
ENDBRANCH   1   8
BRANCH   3  25
HETATM   25  C   UNL     1      43.456  -8.229   9.060  1.00  0.00     0.165 A 
HETATM   26  N   UNL     1      42.921  -8.290  10.331  1.00  0.00    -0.316 N 
HETATM   27  C   UNL     1      42.711  -6.989  10.718  1.00  0.00     0.130 A 
HETATM   28  C   UNL     1      42.606  -9.505  11.053  1.00  0.00     0.132 C 
HETATM   29  C   UNL     1      42.146  -6.540  12.021  1.00  0.00     0.081 C 
HETATM   30  N   UNL     1      43.085  -6.191   9.740  1.00  0.00    -0.134 NA
HETATM   31  C   UNL     1      40.959  -7.384  12.470  1.00  0.00     0.008 C 
HETATM   32  C   UNL     1      41.359  -8.699  13.141  1.00  0.00     0.002 C 
HETATM   33  C   UNL     1      42.599  -9.392  12.574  1.00  0.00     0.020 C 
HETATM   34  N   UNL     1      43.547  -6.964   8.707  1.00  0.00    -0.129 NA
ENDBRANCH   3  25
TORSDOF 5
ENDMDL
MODEL 9
REMARK VINA RESULT:      -8.5      2.972      9.986
REMARK  5 active torsions:
REMARK  status: ('A' for Active; 'I' for Inactive)
REMARK    1  A    between atoms: O_2  and  C_3 
REMARK    2  A    between atoms: C_10  and  C_11 
REMARK    3  A    between atoms: C_11  and  C_12 
REMARK       I    between atoms: C_12  and  N_13 
REMARK    4  A    between atoms: N_13  and  C_14 
REMARK    5  A    between atoms: C_16  and  C_17 
ROOT
HETATM    1  C   UNL     1      42.930 -11.520   5.375  1.00  0.00     0.035 A 
HETATM    2  C   UNL     1      43.284 -12.711   4.723  1.00  0.00     0.046 A 
HETATM    3  C   UNL     1      42.374 -13.380   3.882  1.00  0.00     0.036 A 
HETATM    4  C   UNL     1      41.098 -12.836   3.690  1.00  0.00     0.048 A 
HETATM    5 CL   UNL     1      39.907 -13.599   2.696  1.00  0.00    -0.083 Cl
HETATM    6  C   UNL     1      40.742 -11.650   4.332  1.00  0.00     0.027 A 
HETATM    7  C   UNL     1      41.652 -10.999   5.171  1.00  0.00     0.031 A 
ENDROOT
BRANCH   1   8
HETATM    8  N   UNL     1      43.917 -10.890   6.164  1.00  0.00    -0.327 N 
HETATM    9  C   UNL     1      44.347 -11.272   7.431  1.00  0.00     0.226 C 
HETATM   10  O   UNL     1      44.077 -12.333   7.988  1.00  0.00    -0.273 OA
HETATM   11  H   UNL     1      44.348 -10.060   5.774  1.00  0.00     0.169 HD
BRANCH   9  12
HETATM   12  C   UNL     1      45.149 -10.198   8.137  1.00  0.00     0.144 C 
BRANCH  12  13
HETATM   13  C   UNL     1      44.488  -9.463   9.264  1.00  0.00    -0.021 A 
HETATM   14  C   UNL     1      43.640  -8.301   9.277  1.00  0.00     0.001 A 
HETATM   15  C   UNL     1      43.076  -7.452   8.298  1.00  0.00     0.051 A 
HETATM   16  C   UNL     1      43.376  -7.995  10.616  1.00  0.00     0.043 A 
HETATM   17  C   UNL     1      42.285  -6.351   8.672  1.00  0.00     0.069 A 
HETATM   18  C   UNL     1      42.059  -6.083  10.020  1.00  0.00     0.039 A 
HETATM   19  C   UNL     1      42.601  -6.900  11.015  1.00  0.00     0.033 A 
HETATM   20  N   UNL     1      44.016  -8.932  11.387  1.00  0.00    -0.365 N 
HETATM   21  H   UNL     1      44.009  -8.944  12.397  1.00  0.00     0.165 HD
HETATM   22  C   UNL     1      44.678  -9.819  10.591  1.00  0.00     0.097 A 
BRANCH  17  23
HETATM   23  O   UNL     1      41.794  -5.620   7.622  1.00  0.00    -0.356 OA
HETATM   24  C   UNL     1      41.777  -6.254   6.349  1.00  0.00     0.210 C 
ENDBRANCH  17  23
ENDBRANCH  12  13
ENDBRANCH   9  12
ENDBRANCH   1   8
BRANCH   3  25
HETATM   25  C   UNL     1      42.791 -14.610   3.219  1.00  0.00     0.165 A 
HETATM   26  N   UNL     1      43.005 -15.827   3.833  1.00  0.00    -0.316 N 
HETATM   27  C   UNL     1      43.373 -16.697   2.835  1.00  0.00     0.130 A 
HETATM   28  C   UNL     1      42.906 -16.080   5.255  1.00  0.00     0.132 C 
HETATM   29  C   UNL     1      43.708 -18.138   3.005  1.00  0.00     0.081 C 
HETATM   30  N   UNL     1      43.391 -16.045   1.691  1.00  0.00    -0.134 NA
HETATM   31  C   UNL     1      44.575 -18.400   4.230  1.00  0.00     0.008 C 
HETATM   32  C   UNL     1      43.786 -18.469   5.539  1.00  0.00     0.002 C 
HETATM   33  C   UNL     1      42.595 -17.518   5.654  1.00  0.00     0.020 C 
HETATM   34  N   UNL     1      43.031 -14.745   1.930  1.00  0.00    -0.129 NA
ENDBRANCH   3  25
TORSDOF 5
ENDMDL
MODEL 10
REMARK VINA RESULT:      -8.4      5.803      8.640
REMARK  5 active torsions:
REMARK  status: ('A' for Active; 'I' for Inactive)
REMARK    1  A    between atoms: O_2  and  C_3 
REMARK    2  A    between atoms: C_10  and  C_11 
REMARK    3  A    between atoms: C_11  and  C_12 
REMARK       I    between atoms: C_12  and  N_13 
REMARK    4  A    between atoms: N_13  and  C_14 
REMARK    5  A    between atoms: C_16  and  C_17 
ROOT
HETATM    1  C   UNL     1      40.597 -12.682   2.695  1.00  0.00     0.035 A 
HETATM    2  C   UNL     1      40.753 -12.496   1.314  1.00  0.00     0.046 A 
HETATM    3  C   UNL     1      39.723 -11.937   0.533  1.00  0.00     0.036 A 
HETATM    4  C   UNL     1      38.528 -11.553   1.155  1.00  0.00     0.048 A 
HETATM    5 CL   UNL     1      37.201 -10.881   0.274  1.00  0.00    -0.083 Cl
HETATM    6  C   UNL     1      38.370 -11.731   2.529  1.00  0.00     0.027 A 
HETATM    7  C   UNL     1      39.398 -12.296   3.293  1.00  0.00     0.031 A 
ENDROOT
BRANCH   1   8
HETATM    8  N   UNL     1      41.696 -13.207   3.411  1.00  0.00    -0.327 N 
HETATM    9  C   UNL     1      41.774 -14.449   4.031  1.00  0.00     0.226 C 
HETATM   10  O   UNL     1      40.974 -15.371   3.892  1.00  0.00    -0.273 OA
HETATM   11  H   UNL     1      42.509 -12.608   3.497  1.00  0.00     0.169 HD
BRANCH   9  12
HETATM   12  C   UNL     1      42.937 -14.561   4.997  1.00  0.00     0.144 C 
BRANCH  12  13
HETATM   13  C   UNL     1      43.134 -15.870   5.700  1.00  0.00    -0.021 A 
HETATM   14  C   UNL     1      43.461 -17.180   5.202  1.00  0.00     0.001 A 
HETATM   15  C   UNL     1      43.757 -17.734   3.935  1.00  0.00     0.051 A 
HETATM   16  C   UNL     1      43.438 -18.056   6.292  1.00  0.00     0.043 A 
HETATM   17  C   UNL     1      44.015 -19.109   3.796  1.00  0.00     0.069 A 
HETATM   18  C   UNL     1      43.970 -19.942   4.911  1.00  0.00     0.039 A 
HETATM   19  C   UNL     1      43.681 -19.429   6.178  1.00  0.00     0.033 A 
HETATM   20  N   UNL     1      43.130 -17.319   7.407  1.00  0.00    -0.365 N 
HETATM   21  H   UNL     1      43.030 -17.701   8.337  1.00  0.00     0.165 HD
HETATM   22  C   UNL     1      42.953 -16.010   7.068  1.00  0.00     0.097 A 
BRANCH  17  23
HETATM   23  O   UNL     1      44.297 -19.508   2.516  1.00  0.00    -0.356 OA
HETATM   24  C   UNL     1      43.325 -20.316   1.864  1.00  0.00     0.210 C 
ENDBRANCH  17  23
ENDBRANCH  12  13
ENDBRANCH   9  12
ENDBRANCH   1   8
BRANCH   3  25
HETATM   25  C   UNL     1      39.935 -11.754  -0.899  1.00  0.00     0.165 A 
HETATM   26  N   UNL     1      40.538 -10.665  -1.493  1.00  0.00    -0.316 N 
HETATM   27  C   UNL     1      40.534 -10.917  -2.843  1.00  0.00     0.130 A 
HETATM   28  C   UNL     1      41.013  -9.485  -0.800  1.00  0.00     0.132 C 
HETATM   29  C   UNL     1      41.079 -10.027  -3.905  1.00  0.00     0.081 C 
HETATM   30  N   UNL     1      39.956 -12.081  -3.054  1.00  0.00    -0.134 NA
HETATM   31  C   UNL     1      40.735  -8.560  -3.679  1.00  0.00     0.008 C 
HETATM   32  C   UNL     1      41.653  -7.860  -2.675  1.00  0.00     0.002 C 
HETATM   33  C   UNL     1      42.127  -8.710  -1.495  1.00  0.00     0.020 C 
HETATM   34  N   UNL     1      39.582 -12.601  -1.843  1.00  0.00    -0.129 NA
ENDBRANCH   3  25
TORSDOF 5
ENDMDL
