MODEL 1
REMARK VINA RESULT:      -7.8      0.000      0.000
REMARK  3 active torsions:
REMARK  status: ('A' for Active; 'I' for Inactive)
REMARK    1  A    between atoms: C_9  and  C_10 
REMARK    2  A    between atoms: C_16  and  C_17 
REMARK       I    between atoms: C_17  and  N_18 
REMARK    3  A    between atoms: N_18  and  C_19 
ROOT
HETATM    1  C   UNL     1      43.956 -14.414   6.409  1.00  0.00     0.070 C 
HETATM    2  C   UNL     1      42.759 -13.876   5.663  1.00  0.00     0.037 C 
HETATM    3  N   UNL     1      42.544 -12.507   5.784  1.00  0.00    -0.192 N 
HETATM    4  C   UNL     1      41.395 -11.914   5.409  1.00  0.00     0.725 A 
HETATM    5  N   UNL     1      40.460 -12.636   4.718  1.00  0.00    -0.082 N 
HETATM    6  N   UNL     1      39.313 -11.933   4.564  1.00  0.00    -0.149 NA
HETATM    7  C   UNL     1      39.668 -10.765   5.116  1.00  0.00     0.275 A 
HETATM    8  N   UNL     1      40.931 -10.713   5.646  1.00  0.00    -0.054 NA
HETATM    9  C   UNL     1      40.633 -14.033   4.320  1.00  0.00     0.221 C 
HETATM   10  C   UNL     1      41.875 -14.635   4.967  1.00  0.00     0.064 C 
HETATM   11  H   UNL     1      43.180 -11.981   6.377  1.00  0.00     0.184 HD
ENDROOT
BRANCH  10  12
HETATM   12  C   UNL     1      41.944 -16.114   4.850  1.00  0.00     0.256 C 
HETATM   13  N   UNL     1      42.803 -16.563   3.875  1.00  0.00    -0.322 N 
HETATM   14  H   UNL     1      43.215 -15.864   3.268  1.00  0.00     0.169 HD
HETATM   15  O   UNL     1      41.239 -16.796   5.584  1.00  0.00    -0.267 OA
BRANCH  13  16
HETATM   16  C   UNL     1      43.201 -17.901   3.666  1.00  0.00     0.052 A 
HETATM   17  C   UNL     1      43.901 -18.683   4.582  1.00  0.00     0.145 A 
HETATM   18  N   UNL     1      44.316 -19.954   4.342  1.00  0.00    -0.271 NA
HETATM   19  C   UNL     1      44.024 -20.473   3.133  1.00  0.00     0.116 A 
HETATM   20  C   UNL     1      43.330 -19.783   2.154  1.00  0.00     0.021 A 
HETATM   21  C   UNL     1      42.911 -18.481   2.429  1.00  0.00     0.032 A 
ENDBRANCH  13  16
ENDBRANCH  10  12
BRANCH   9  22
HETATM   22  C   UNL     1      40.667 -14.100   2.796  1.00  0.00     0.064 A 
HETATM   23  N   UNL     1      41.409 -13.177   2.120  1.00  0.00    -0.263 NA
HETATM   24  C   UNL     1      41.364 -13.209   0.769  1.00  0.00     0.117 A 
HETATM   25  C   UNL     1      40.625 -14.124   0.042  1.00  0.00     0.019 A 
HETATM   26  C   UNL     1      39.884 -15.069   0.738  1.00  0.00     0.003 A 
HETATM   27  C   UNL     1      39.901 -15.060   2.129  1.00  0.00     0.030 A 
ENDBRANCH   9  22
TORSDOF 3
ENDMDL
MODEL 2
REMARK VINA RESULT:      -7.8      2.165      2.416
REMARK  3 active torsions:
REMARK  status: ('A' for Active; 'I' for Inactive)
REMARK    1  A    between atoms: C_9  and  C_10 
REMARK    2  A    between atoms: C_16  and  C_17 
REMARK       I    between atoms: C_17  and  N_18 
REMARK    3  A    between atoms: N_18  and  C_19 
ROOT
HETATM    1  C   UNL     1      44.300 -11.734   3.747  1.00  0.00     0.070 C 
HETATM    2  C   UNL     1      42.880 -11.865   3.254  1.00  0.00     0.037 C 
HETATM    3  N   UNL     1      42.081 -10.739   3.424  1.00  0.00    -0.192 N 
HETATM    4  C   UNL     1      40.741 -10.767   3.285  1.00  0.00     0.725 A 
HETATM    5  N   UNL     1      40.141 -11.891   2.786  1.00  0.00    -0.082 N 
HETATM    6  N   UNL     1      38.793 -11.803   2.864  1.00  0.00    -0.149 NA
HETATM    7  C   UNL     1      38.658 -10.560   3.343  1.00  0.00     0.275 A 
HETATM    8  N   UNL     1      39.825  -9.894   3.616  1.00  0.00    -0.054 NA
HETATM    9  C   UNL     1      40.867 -13.085   2.352  1.00  0.00     0.221 C 
HETATM   10  C   UNL     1      42.340 -12.998   2.740  1.00  0.00     0.064 C 
HETATM   11  H   UNL     1      42.494  -9.933   3.885  1.00  0.00     0.184 HD
ENDROOT
BRANCH  10  12
HETATM   12  C   UNL     1      43.063 -14.288   2.601  1.00  0.00     0.256 C 
HETATM   13  N   UNL     1      42.745 -15.219   3.561  1.00  0.00    -0.322 N 
HETATM   14  H   UNL     1      42.148 -14.911   4.320  1.00  0.00     0.169 HD
HETATM   15  O   UNL     1      43.875 -14.413   1.692  1.00  0.00    -0.267 OA
BRANCH  13  16
HETATM   16  C   UNL     1      43.135 -16.576   3.570  1.00  0.00     0.052 A 
HETATM   17  C   UNL     1      43.878 -17.190   4.576  1.00  0.00     0.145 A 
HETATM   18  N   UNL     1      44.283 -18.486   4.541  1.00  0.00    -0.271 NA
HETATM   19  C   UNL     1      43.936 -19.206   3.456  1.00  0.00     0.116 A 
HETATM   20  C   UNL     1      43.197 -18.693   2.404  1.00  0.00     0.021 A 
HETATM   21  C   UNL     1      42.788 -17.360   2.468  1.00  0.00     0.032 A 
ENDBRANCH  13  16
ENDBRANCH  10  12
BRANCH   9  22
HETATM   22  C   UNL     1      40.660 -13.258   0.850  1.00  0.00     0.064 A 
HETATM   23  N   UNL     1      41.053 -12.252   0.019  1.00  0.00    -0.263 NA
HETATM   24  C   UNL     1      40.789 -12.394  -1.300  1.00  0.00     0.117 A 
HETATM   25  C   UNL     1      40.161 -13.497  -1.848  1.00  0.00     0.019 A 
HETATM   26  C   UNL     1      39.777 -14.524  -0.996  1.00  0.00     0.003 A 
HETATM   27  C   UNL     1      40.025 -14.406   0.368  1.00  0.00     0.030 A 
ENDBRANCH   9  22
TORSDOF 3
ENDMDL
MODEL 3
REMARK VINA RESULT:      -7.6      2.181      5.797
REMARK  3 active torsions:
REMARK  status: ('A' for Active; 'I' for Inactive)
REMARK    1  A    between atoms: C_9  and  C_10 
REMARK    2  A    between atoms: C_16  and  C_17 
REMARK       I    between atoms: C_17  and  N_18 
REMARK    3  A    between atoms: N_18  and  C_19 
ROOT
HETATM    1  C   UNL     1      43.151 -16.356   1.673  1.00  0.00     0.070 C 
HETATM    2  C   UNL     1      42.722 -15.941   3.059  1.00  0.00     0.037 C 
HETATM    3  N   UNL     1      43.623 -16.234   4.078  1.00  0.00    -0.192 N 
HETATM    4  C   UNL     1      43.293 -16.173   5.383  1.00  0.00     0.725 A 
HETATM    5  N   UNL     1      42.089 -15.636   5.747  1.00  0.00    -0.082 N 
HETATM    6  N   UNL     1      41.860 -15.799   7.071  1.00  0.00    -0.149 NA
HETATM    7  C   UNL     1      43.011 -16.369   7.449  1.00  0.00     0.275 A 
HETATM    8  N   UNL     1      43.913 -16.617   6.447  1.00  0.00    -0.054 NA
HETATM    9  C   UNL     1      41.120 -15.079   4.803  1.00  0.00     0.221 C 
HETATM   10  C   UNL     1      41.523 -15.384   3.364  1.00  0.00     0.064 C 
HETATM   11  H   UNL     1      44.477 -16.723   3.825  1.00  0.00     0.184 HD
ENDROOT
BRANCH  10  12
HETATM   12  C   UNL     1      40.444 -15.115   2.380  1.00  0.00     0.256 C 
HETATM   13  N   UNL     1      40.651 -13.998   1.606  1.00  0.00    -0.322 N 
HETATM   14  H   UNL     1      41.442 -13.413   1.847  1.00  0.00     0.169 HD
HETATM   15  O   UNL     1      39.476 -15.866   2.349  1.00  0.00    -0.267 OA
BRANCH  13  16
HETATM   16  C   UNL     1      39.893 -13.609   0.481  1.00  0.00     0.052 A 
HETATM   17  C   UNL     1      39.149 -12.436   0.381  1.00  0.00     0.145 A 
HETATM   18  N   UNL     1      38.388 -12.104  -0.694  1.00  0.00    -0.271 NA
HETATM   19  C   UNL     1      38.361 -12.980  -1.718  1.00  0.00     0.116 A 
HETATM   20  C   UNL     1      39.066 -14.172  -1.720  1.00  0.00     0.021 A 
HETATM   21  C   UNL     1      39.845 -14.485  -0.606  1.00  0.00     0.032 A 
ENDBRANCH  13  16
ENDBRANCH  10  12
BRANCH   9  22
HETATM   22  C   UNL     1      40.982 -13.584   5.076  1.00  0.00     0.064 A 
HETATM   23  N   UNL     1      41.934 -12.742   4.581  1.00  0.00    -0.263 NA
HETATM   24  C   UNL     1      41.833 -11.432   4.899  1.00  0.00     0.117 A 
HETATM   25  C   UNL     1      40.822 -10.902   5.681  1.00  0.00     0.019 A 
HETATM   26  C   UNL     1      39.850 -11.764   6.168  1.00  0.00     0.003 A 
HETATM   27  C   UNL     1      39.927 -13.120   5.866  1.00  0.00     0.030 A 
ENDBRANCH   9  22
TORSDOF 3
ENDMDL
MODEL 4
REMARK VINA RESULT:      -7.6      2.081      4.168
REMARK  3 active torsions:
REMARK  status: ('A' for Active; 'I' for Inactive)
REMARK    1  A    between atoms: C_9  and  C_10 
REMARK    2  A    between atoms: C_16  and  C_17 
REMARK       I    between atoms: C_17  and  N_18 
REMARK    3  A    between atoms: N_18  and  C_19 
ROOT
HETATM    1  C   UNL     1      39.827 -15.842   1.021  1.00  0.00     0.070 C 
HETATM    2  C   UNL     1      40.389 -14.463   1.265  1.00  0.00     0.037 C 
HETATM    3  N   UNL     1      39.559 -13.405   0.909  1.00  0.00    -0.192 N 
HETATM    4  C   UNL     1      39.996 -12.135   0.814  1.00  0.00     0.725 A 
HETATM    5  N   UNL     1      41.255 -11.823   1.251  1.00  0.00    -0.082 N 
HETATM    6  N   UNL     1      41.581 -10.548   0.937  1.00  0.00    -0.149 NA
HETATM    7  C   UNL     1      40.433 -10.132   0.386  1.00  0.00     0.275 A 
HETATM    8  N   UNL     1      39.440 -11.072   0.290  1.00  0.00    -0.054 NA
HETATM    9  C   UNL     1      42.174 -12.786   1.858  1.00  0.00     0.221 C 
HETATM   10  C   UNL     1      41.639 -14.207   1.729  1.00  0.00     0.064 C 
HETATM   11  H   UNL     1      38.660 -13.632   0.491  1.00  0.00     0.184 HD
ENDROOT
BRANCH  10  12
HETATM   12  C   UNL     1      42.648 -15.249   2.048  1.00  0.00     0.256 C 
HETATM   13  N   UNL     1      42.236 -16.164   2.988  1.00  0.00    -0.322 N 
HETATM   14  H   UNL     1      41.351 -15.984   3.447  1.00  0.00     0.169 HD
HETATM   15  O   UNL     1      43.738 -15.203   1.491  1.00  0.00    -0.267 OA
BRANCH  13  16
HETATM   16  C   UNL     1      42.908 -17.353   3.346  1.00  0.00     0.052 A 
HETATM   17  C   UNL     1      43.548 -17.577   4.563  1.00  0.00     0.145 A 
HETATM   18  N   UNL     1      44.229 -18.712   4.870  1.00  0.00    -0.271 NA
HETATM   19  C   UNL     1      44.281 -19.668   3.921  1.00  0.00     0.116 A 
HETATM   20  C   UNL     1      43.677 -19.546   2.681  1.00  0.00     0.021 A 
HETATM   21  C   UNL     1      42.978 -18.373   2.395  1.00  0.00     0.032 A 
ENDBRANCH  13  16
ENDBRANCH  10  12
BRANCH   9  22
HETATM   22  C   UNL     1      42.418 -12.374   3.307  1.00  0.00     0.064 A 
HETATM   23  N   UNL     1      41.393 -12.493   4.198  1.00  0.00    -0.263 NA
HETATM   24  C   UNL     1      41.608 -12.051   5.458  1.00  0.00     0.117 A 
HETATM   25  C   UNL     1      42.801 -11.503   5.892  1.00  0.00     0.019 A 
HETATM   26  C   UNL     1      43.844 -11.400   4.982  1.00  0.00     0.003 A 
HETATM   27  C   UNL     1      43.655 -11.837   3.675  1.00  0.00     0.030 A 
ENDBRANCH   9  22
TORSDOF 3
ENDMDL
MODEL 5
REMARK VINA RESULT:      -7.6      2.912      5.923
REMARK  3 active torsions:
REMARK  status: ('A' for Active; 'I' for Inactive)
REMARK    1  A    between atoms: C_9  and  C_10 
REMARK    2  A    between atoms: C_16  and  C_17 
REMARK       I    between atoms: C_17  and  N_18 
REMARK    3  A    between atoms: N_18  and  C_19 
ROOT
HETATM    1  C   UNL     1      38.534 -10.980   2.661  1.00  0.00     0.070 C 
HETATM    2  C   UNL     1      39.852 -11.602   3.054  1.00  0.00     0.037 C 
HETATM    3  N   UNL     1      40.217 -11.438   4.387  1.00  0.00    -0.192 N 
HETATM    4  C   UNL     1      41.460 -11.694   4.839  1.00  0.00     0.725 A 
HETATM    5  N   UNL     1      42.363 -12.307   4.013  1.00  0.00    -0.082 N 
HETATM    6  N   UNL     1      43.594 -12.341   4.573  1.00  0.00    -0.149 NA
HETATM    7  C   UNL     1      43.332 -11.806   5.772  1.00  0.00     0.275 A 
HETATM    8  N   UNL     1      42.039 -11.395   5.974  1.00  0.00    -0.054 NA
HETATM    9  C   UNL     1      42.062 -12.743   2.649  1.00  0.00     0.221 C 
HETATM   10  C   UNL     1      40.701 -12.224   2.199  1.00  0.00     0.064 C 
HETATM   11  H   UNL     1      39.596 -10.898   4.983  1.00  0.00     0.184 HD
ENDROOT
BRANCH  10  12
HETATM   12  C   UNL     1      40.467 -12.372   0.739  1.00  0.00     0.256 C 
HETATM   13  N   UNL     1      39.520 -13.314   0.412  1.00  0.00    -0.322 N 
HETATM   14  H   UNL     1      39.160 -13.884   1.168  1.00  0.00     0.169 HD
HETATM   15  O   UNL     1      41.127 -11.689  -0.035  1.00  0.00    -0.267 OA
BRANCH  13  16
HETATM   16  C   UNL     1      38.971 -13.535  -0.869  1.00  0.00     0.052 A 
HETATM   17  C   UNL     1      38.044 -12.707  -1.497  1.00  0.00     0.145 A 
HETATM   18  N   UNL     1      37.492 -12.963  -2.712  1.00  0.00    -0.271 NA
HETATM   19  C   UNL     1      37.876 -14.097  -3.331  1.00  0.00     0.116 A 
HETATM   20  C   UNL     1      38.792 -14.985  -2.795  1.00  0.00     0.021 A 
HETATM   21  C   UNL     1      39.349 -14.695  -1.549  1.00  0.00     0.032 A 
ENDBRANCH  13  16
ENDBRANCH  10  12
BRANCH   9  22
HETATM   22  C   UNL     1      42.164 -14.264   2.595  1.00  0.00     0.064 A 
HETATM   23  N   UNL     1      41.302 -15.002   3.352  1.00  0.00    -0.263 NA
HETATM   24  C   UNL     1      41.461 -16.345   3.347  1.00  0.00     0.117 A 
HETATM   25  C   UNL     1      42.431 -17.006   2.614  1.00  0.00     0.019 A 
HETATM   26  C   UNL     1      43.294 -16.248   1.835  1.00  0.00     0.003 A 
HETATM   27  C   UNL     1      43.165 -14.863   1.824  1.00  0.00     0.030 A 
ENDBRANCH   9  22
TORSDOF 3
ENDMDL
MODEL 6
REMARK VINA RESULT:      -7.3      2.634      6.274
REMARK  3 active torsions:
REMARK  status: ('A' for Active; 'I' for Inactive)
REMARK    1  A    between atoms: C_9  and  C_10 
REMARK    2  A    between atoms: C_16  and  C_17 
REMARK       I    between atoms: C_17  and  N_18 
REMARK    3  A    between atoms: N_18  and  C_19 
ROOT
HETATM    1  C   UNL     1      42.952 -11.249   2.751  1.00  0.00     0.070 C 
HETATM    2  C   UNL     1      42.354 -12.617   2.967  1.00  0.00     0.037 C 
HETATM    3  N   UNL     1      41.944 -13.280   1.814  1.00  0.00    -0.192 N 
HETATM    4  C   UNL     1      41.163 -14.377   1.842  1.00  0.00     0.725 A 
HETATM    5  N   UNL     1      40.897 -14.982   3.040  1.00  0.00    -0.082 N 
HETATM    6  N   UNL     1      39.977 -15.965   2.899  1.00  0.00    -0.149 NA
HETATM    7  C   UNL     1      39.801 -15.945   1.572  1.00  0.00     0.275 A 
HETATM    8  N   UNL     1      40.505 -14.988   0.889  1.00  0.00    -0.054 NA
HETATM    9  C   UNL     1      41.438 -14.533   4.324  1.00  0.00     0.221 C 
HETATM   10  C   UNL     1      42.137 -13.186   4.179  1.00  0.00     0.064 C 
HETATM   11  H   UNL     1      42.049 -12.793   0.928  1.00  0.00     0.184 HD
ENDROOT
BRANCH  10  12
HETATM   12  C   UNL     1      42.441 -12.537   5.480  1.00  0.00     0.256 C 
HETATM   13  N   UNL     1      43.776 -12.524   5.807  1.00  0.00    -0.322 N 
HETATM   14  H   UNL     1      44.402 -13.043   5.202  1.00  0.00     0.169 HD
HETATM   15  O   UNL     1      41.513 -12.100   6.151  1.00  0.00    -0.267 OA
BRANCH  13  16
HETATM   16  C   UNL     1      44.366 -11.823   6.880  1.00  0.00     0.052 A 
HETATM   17  C   UNL     1      43.784 -11.632   8.130  1.00  0.00     0.145 A 
HETATM   18  N   UNL     1      44.350 -10.913   9.134  1.00  0.00    -0.271 NA
HETATM   19  C   UNL     1      45.550 -10.353   8.883  1.00  0.00     0.116 A 
HETATM   20  C   UNL     1      46.216 -10.485   7.677  1.00  0.00     0.021 A 
HETATM   21  C   UNL     1      45.615 -11.234   6.665  1.00  0.00     0.032 A 
ENDBRANCH  13  16
ENDBRANCH  10  12
BRANCH   9  22
HETATM   22  C   UNL     1      42.357 -15.622   4.869  1.00  0.00     0.064 A 
HETATM   23  N   UNL     1      43.353 -16.096   4.066  1.00  0.00    -0.263 NA
HETATM   24  C   UNL     1      44.106 -17.113   4.541  1.00  0.00     0.117 A 
HETATM   25  C   UNL     1      43.933 -17.686   5.788  1.00  0.00     0.019 A 
HETATM   26  C   UNL     1      42.926 -17.188   6.604  1.00  0.00     0.003 A 
HETATM   27  C   UNL     1      42.127 -16.147   6.143  1.00  0.00     0.030 A 
ENDBRANCH   9  22
TORSDOF 3
ENDMDL
MODEL 7
REMARK VINA RESULT:      -7.2      1.944      6.313
REMARK  3 active torsions:
REMARK  status: ('A' for Active; 'I' for Inactive)
REMARK    1  A    between atoms: C_9  and  C_10 
REMARK    2  A    between atoms: C_16  and  C_17 
REMARK       I    between atoms: C_17  and  N_18 
REMARK    3  A    between atoms: N_18  and  C_19 
ROOT
HETATM    1  C   UNL     1      42.910 -15.511   8.092  1.00  0.00     0.070 C 
HETATM    2  C   UNL     1      43.046 -16.059   6.692  1.00  0.00     0.037 C 
HETATM    3  N   UNL     1      43.131 -17.444   6.597  1.00  0.00    -0.192 N 
HETATM    4  C   UNL     1      43.514 -18.076   5.471  1.00  0.00     0.725 A 
HETATM    5  N   UNL     1      43.657 -17.359   4.314  1.00  0.00    -0.082 N 
HETATM    6  N   UNL     1      44.195 -18.118   3.331  1.00  0.00    -0.149 NA
HETATM    7  C   UNL     1      44.268 -19.303   3.950  1.00  0.00     0.275 A 
HETATM    8  N   UNL     1      43.864 -19.319   5.260  1.00  0.00    -0.054 NA
HETATM    9  C   UNL     1      43.390 -15.925   4.199  1.00  0.00     0.221 C 
HETATM   10  C   UNL     1      43.157 -15.303   5.572  1.00  0.00     0.064 C 
HETATM   11  H   UNL     1      43.124 -17.977   7.463  1.00  0.00     0.184 HD
ENDROOT
BRANCH  10  12
HETATM   12  C   UNL     1      43.179 -13.818   5.556  1.00  0.00     0.256 C 
HETATM   13  N   UNL     1      42.033 -13.241   5.061  1.00  0.00    -0.322 N 
HETATM   14  H   UNL     1      41.344 -13.864   4.658  1.00  0.00     0.169 HD
HETATM   15  O   UNL     1      44.186 -13.240   5.948  1.00  0.00    -0.267 OA
BRANCH  13  16
HETATM   16  C   UNL     1      41.707 -11.868   5.097  1.00  0.00     0.052 A 
HETATM   17  C   UNL     1      42.195 -10.904   4.218  1.00  0.00     0.145 A 
HETATM   18  N   UNL     1      41.904  -9.580   4.300  1.00  0.00    -0.271 NA
HETATM   19  C   UNL     1      41.092  -9.194   5.304  1.00  0.00     0.116 A 
HETATM   20  C   UNL     1      40.551 -10.071   6.228  1.00  0.00     0.021 A 
HETATM   21  C   UNL     1      40.861 -11.427   6.117  1.00  0.00     0.032 A 
ENDBRANCH  13  16
ENDBRANCH  10  12
BRANCH   9  22
HETATM   22  C   UNL     1      42.210 -15.728   3.251  1.00  0.00     0.064 A 
HETATM   23  N   UNL     1      40.959 -16.038   3.696  1.00  0.00    -0.263 NA
HETATM   24  C   UNL     1      39.939 -15.928   2.815  1.00  0.00     0.117 A 
HETATM   25  C   UNL     1      40.092 -15.511   1.505  1.00  0.00     0.019 A 
HETATM   26  C   UNL     1      41.367 -15.184   1.065  1.00  0.00     0.003 A 
HETATM   27  C   UNL     1      42.441 -15.294   1.943  1.00  0.00     0.030 A 
ENDBRANCH   9  22
TORSDOF 3
ENDMDL
MODEL 8
REMARK VINA RESULT:      -7.2      2.773      6.354
REMARK  3 active torsions:
REMARK  status: ('A' for Active; 'I' for Inactive)
REMARK    1  A    between atoms: C_9  and  C_10 
REMARK    2  A    between atoms: C_16  and  C_17 
REMARK       I    between atoms: C_17  and  N_18 
REMARK    3  A    between atoms: N_18  and  C_19 
ROOT
HETATM    1  C   UNL     1      43.576 -16.511   7.131  1.00  0.00     0.070 C 
HETATM    2  C   UNL     1      43.316 -15.813   5.819  1.00  0.00     0.037 C 
HETATM    3  N   UNL     1      43.095 -16.649   4.729  1.00  0.00    -0.192 N 
HETATM    4  C   UNL     1      43.109 -16.207   3.457  1.00  0.00     0.725 A 
HETATM    5  N   UNL     1      43.164 -14.862   3.212  1.00  0.00    -0.082 N 
HETATM    6  N   UNL     1      43.329 -14.610   1.893  1.00  0.00    -0.149 NA
HETATM    7  C   UNL     1      43.279 -15.853   1.399  1.00  0.00     0.275 A 
HETATM    8  N   UNL     1      43.148 -16.859   2.322  1.00  0.00    -0.054 NA
HETATM    9  C   UNL     1      43.179 -13.839   4.258  1.00  0.00     0.221 C 
HETATM   10  C   UNL     1      43.355 -14.469   5.635  1.00  0.00     0.064 C 
HETATM   11  H   UNL     1      43.151 -17.652   4.886  1.00  0.00     0.184 HD
ENDROOT
BRANCH  10  12
HETATM   12  C   UNL     1      43.678 -13.483   6.698  1.00  0.00     0.256 C 
HETATM   13  N   UNL     1      44.365 -12.378   6.253  1.00  0.00    -0.322 N 
HETATM   14  H   UNL     1      44.678 -12.390   5.289  1.00  0.00     0.169 HD
HETATM   15  O   UNL     1      43.343 -13.728   7.851  1.00  0.00    -0.267 OA
BRANCH  13  16
HETATM   16  C   UNL     1      44.640 -11.210   6.996  1.00  0.00     0.052 A 
HETATM   17  C   UNL     1      43.680 -10.327   7.485  1.00  0.00     0.145 A 
HETATM   18  N   UNL     1      43.969  -9.183   8.159  1.00  0.00    -0.271 NA
HETATM   19  C   UNL     1      45.273  -8.901   8.354  1.00  0.00     0.116 A 
HETATM   20  C   UNL     1      46.303  -9.714   7.912  1.00  0.00     0.021 A 
HETATM   21  C   UNL     1      45.978 -10.886   7.229  1.00  0.00     0.032 A 
ENDBRANCH  13  16
ENDBRANCH  10  12
BRANCH   9  22
HETATM   22  C   UNL     1      41.901 -13.013   4.144  1.00  0.00     0.064 A 
HETATM   23  N   UNL     1      42.008 -11.656   4.062  1.00  0.00    -0.263 NA
HETATM   24  C   UNL     1      40.861 -10.940   4.039  1.00  0.00     0.117 A 
HETATM   25  C   UNL     1      39.598 -11.503   4.081  1.00  0.00     0.019 A 
HETATM   26  C   UNL     1      39.498 -12.885   4.150  1.00  0.00     0.003 A 
HETATM   27  C   UNL     1      40.659 -13.652   4.184  1.00  0.00     0.030 A 
ENDBRANCH   9  22
TORSDOF 3
ENDMDL
MODEL 9
REMARK VINA RESULT:      -7.1      2.631      5.535
REMARK  3 active torsions:
REMARK  status: ('A' for Active; 'I' for Inactive)
REMARK    1  A    between atoms: C_9  and  C_10 
REMARK    2  A    between atoms: C_16  and  C_17 
REMARK       I    between atoms: C_17  and  N_18 
REMARK    3  A    between atoms: N_18  and  C_19 
ROOT
HETATM    1  C   UNL     1      39.841 -10.339   6.204  1.00  0.00     0.070 C 
HETATM    2  C   UNL     1      41.157 -11.075   6.254  1.00  0.00     0.037 C 
HETATM    3  N   UNL     1      42.060 -10.622   7.210  1.00  0.00    -0.192 N 
HETATM    4  C   UNL     1      43.358 -10.984   7.216  1.00  0.00     0.725 A 
HETATM    5  N   UNL     1      43.785 -11.969   6.369  1.00  0.00    -0.082 N 
HETATM    6  N   UNL     1      45.133 -12.091   6.397  1.00  0.00    -0.149 NA
HETATM    7  C   UNL     1      45.437 -11.201   7.351  1.00  0.00     0.275 A 
HETATM    8  N   UNL     1      44.381 -10.502   7.875  1.00  0.00    -0.054 NA
HETATM    9  C   UNL     1      42.908 -12.700   5.452  1.00  0.00     0.221 C 
HETATM   10  C   UNL     1      41.522 -12.068   5.404  1.00  0.00     0.064 C 
HETATM   11  H   UNL     1      41.786  -9.825   7.778  1.00  0.00     0.184 HD
ENDROOT
BRANCH  10  12
HETATM   12  C   UNL     1      40.685 -12.568   4.284  1.00  0.00     0.256 C 
HETATM   13  N   UNL     1      41.253 -12.412   3.041  1.00  0.00    -0.322 N 
HETATM   14  H   UNL     1      42.116 -11.883   2.995  1.00  0.00     0.169 HD
HETATM   15  O   UNL     1      39.583 -13.040   4.537  1.00  0.00    -0.267 OA
BRANCH  13  16
HETATM   16  C   UNL     1      40.772 -12.953   1.830  1.00  0.00     0.052 A 
HETATM   17  C   UNL     1      40.008 -12.264   0.891  1.00  0.00     0.145 A 
HETATM   18  N   UNL     1      39.516 -12.818  -0.247  1.00  0.00    -0.271 NA
HETATM   19  C   UNL     1      39.793 -14.120  -0.462  1.00  0.00     0.116 A 
HETATM   20  C   UNL     1      40.545 -14.893   0.405  1.00  0.00     0.021 A 
HETATM   21  C   UNL     1      41.044 -14.297   1.564  1.00  0.00     0.032 A 
ENDBRANCH  13  16
ENDBRANCH  10  12
BRANCH   9  22
HETATM   22  C   UNL     1      42.877 -14.165   5.879  1.00  0.00     0.064 A 
HETATM   23  N   UNL     1      42.673 -14.455   7.195  1.00  0.00    -0.263 NA
HETATM   24  C   UNL     1      42.725 -15.756   7.562  1.00  0.00     0.117 A 
HETATM   25  C   UNL     1      42.959 -16.798   6.683  1.00  0.00     0.019 A 
HETATM   26  C   UNL     1      43.152 -16.494   5.342  1.00  0.00     0.003 A 
HETATM   27  C   UNL     1      43.113 -15.165   4.931  1.00  0.00     0.030 A 
ENDBRANCH   9  22
TORSDOF 3
ENDMDL
MODEL 10
REMARK VINA RESULT:      -7.0      3.050      7.033
REMARK  3 active torsions:
REMARK  status: ('A' for Active; 'I' for Inactive)
REMARK    1  A    between atoms: C_9  and  C_10 
REMARK    2  A    between atoms: C_16  and  C_17 
REMARK       I    between atoms: C_17  and  N_18 
REMARK    3  A    between atoms: N_18  and  C_19 
ROOT
HETATM    1  C   UNL     1      41.665 -10.261  -0.443  1.00  0.00     0.070 C 
HETATM    2  C   UNL     1      41.157 -11.681  -0.455  1.00  0.00     0.037 C 
HETATM    3  N   UNL     1      41.015 -12.257  -1.714  1.00  0.00    -0.192 N 
HETATM    4  C   UNL     1      40.336 -13.402  -1.920  1.00  0.00     0.725 A 
HETATM    5  N   UNL     1      39.915 -14.136  -0.845  1.00  0.00    -0.082 N 
HETATM    6  N   UNL     1      39.121 -15.162  -1.233  1.00  0.00    -0.149 NA
HETATM    7  C   UNL     1      39.182 -15.027  -2.563  1.00  0.00     0.275 A 
HETATM    8  N   UNL     1      39.913 -13.962  -3.024  1.00  0.00    -0.054 NA
HETATM    9  C   UNL     1      40.180 -13.777   0.548  1.00  0.00     0.221 C 
HETATM   10  C   UNL     1      40.777 -12.377   0.646  1.00  0.00     0.064 C 
HETATM   11  H   UNL     1      41.233 -11.681  -2.522  1.00  0.00     0.184 HD
ENDROOT
BRANCH  10  12
HETATM   12  C   UNL     1      40.789 -11.837   2.030  1.00  0.00     0.256 C 
HETATM   13  N   UNL     1      39.554 -11.801   2.632  1.00  0.00    -0.322 N 
HETATM   14  H   UNL     1      38.755 -12.034   2.055  1.00  0.00     0.169 HD
HETATM   15  O   UNL     1      41.853 -11.455   2.503  1.00  0.00    -0.267 OA
BRANCH  13  16
HETATM   16  C   UNL     1      39.295 -11.512   3.989  1.00  0.00     0.052 A 
HETATM   17  C   UNL     1      39.414 -12.419   5.039  1.00  0.00     0.145 A 
HETATM   18  N   UNL     1      39.115 -12.132   6.333  1.00  0.00    -0.271 NA
HETATM   19  C   UNL     1      38.673 -10.886   6.596  1.00  0.00     0.116 A 
HETATM   20  C   UNL     1      38.523  -9.909   5.627  1.00  0.00     0.021 A 
HETATM   21  C   UNL     1      38.843 -10.228   4.307  1.00  0.00     0.032 A 
ENDBRANCH  13  16
ENDBRANCH  10  12
BRANCH   9  22
HETATM   22  C   UNL     1      41.077 -14.848   1.162  1.00  0.00     0.064 A 
HETATM   23  N   UNL     1      40.506 -15.795   1.961  1.00  0.00    -0.263 NA
HETATM   24  C   UNL     1      41.330 -16.687   2.555  1.00  0.00     0.117 A 
HETATM   25  C   UNL     1      42.703 -16.700   2.390  1.00  0.00     0.019 A 
HETATM   26  C   UNL     1      43.274 -15.742   1.564  1.00  0.00     0.003 A 
HETATM   27  C   UNL     1      42.456 -14.802   0.943  1.00  0.00     0.030 A 
ENDBRANCH   9  22
TORSDOF 3
ENDMDL
