MODEL 1
REMARK VINA RESULT:      -8.6      0.000      0.000
REMARK  8 active torsions:
REMARK  status: ('A' for Active; 'I' for Inactive)
REMARK    1  A    between atoms: C_2  and  C_3 
REMARK    2  A    between atoms: C_3  and  C_4 
REMARK    3  A    between atoms: C_7  and  N_8 
REMARK       I    between atoms: N_8  and  C_9 
REMARK    4  A    between atoms: C_9  and  C_10 
REMARK    5  A    between atoms: C_13  and  N_14 
REMARK       I    between atoms: N_14  and  C_15 
REMARK    6  A    between atoms: C_15  and  C_16 
REMARK    7  A    between atoms: C_16  and  C_17 
REMARK    8  A    between atoms: C_19  and  N_20 
ROOT
HETATM    1  C   UNL     1      44.201 -10.777   8.443  1.00  0.00     0.032 A 
HETATM    2  C   UNL     1      45.175 -10.523   9.416  1.00  0.00     0.019 A 
HETATM    3  C   UNL     1      44.918  -9.625  10.460  1.00  0.00     0.030 A 
HETATM    4  C   UNL     1      43.703  -8.942  10.532  1.00  0.00     0.034 A 
HETATM    5  C   UNL     1      42.745  -9.163   9.537  1.00  0.00     0.030 A 
HETATM    6  C   UNL     1      42.987 -10.082   8.507  1.00  0.00     0.019 A 
ENDROOT
BRANCH   4   7
HETATM    7  N   UNL     1      43.398  -7.994  11.532  1.00  0.00    -0.327 N 
HETATM    8  C   UNL     1      42.991  -8.272  12.822  1.00  0.00     0.223 C 
HETATM    9  O   UNL     1      42.751  -9.399  13.256  1.00  0.00    -0.273 OA
HETATM   10  H   UNL     1      43.385  -7.037  11.206  1.00  0.00     0.169 HD
BRANCH   8  11
HETATM   11  C   UNL     1      42.926  -7.092  13.786  1.00  0.00     0.128 C 
BRANCH  11  12
HETATM   12  C   UNL     1      41.691  -6.203  13.818  1.00  0.00     0.158 A 
HETATM   13  S   UNL     1      40.120  -6.988  13.388  1.00  0.00    -0.077 SA
HETATM   14  C   UNL     1      39.898  -5.879  12.046  1.00  0.00     0.168 A 
HETATM   15  N   UNL     1      40.842  -5.008  11.888  1.00  0.00    -0.189 NA
HETATM   16  C   UNL     1      41.818  -5.048  12.852  1.00  0.00     0.260 A 
HETATM   17  O   UNL     1      42.753  -4.258  12.892  1.00  0.00    -0.270 OA
BRANCH  14  18
HETATM   18  N   UNL     1      38.809  -5.999  11.208  1.00  0.00    -0.360 N 
HETATM   19  C   UNL     1      38.461  -5.015  10.175  1.00  0.00     0.125 C 
HETATM   20  C   UNL     1      39.136  -5.406   8.860  1.00  0.00     0.020 C 
HETATM   21  C   UNL     1      38.755  -6.830   8.446  1.00  0.00     0.003 C 
HETATM   22  C   UNL     1      38.983  -7.825   9.586  1.00  0.00     0.020 C 
HETATM   23  C   UNL     1      38.312  -7.345  10.874  1.00  0.00     0.125 C 
ENDBRANCH  14  18
ENDBRANCH  11  12
ENDBRANCH   8  11
ENDBRANCH   4   7
BRANCH   1  24
HETATM   24  C   UNL     1      44.419 -11.728   7.305  1.00  0.00     0.256 C 
HETATM   25  N   UNL     1      43.420 -12.665   7.106  1.00  0.00    -0.323 N 
HETATM   26  H   UNL     1      42.587 -12.584   7.669  1.00  0.00     0.169 HD
HETATM   27  O   UNL     1      45.438 -11.600   6.635  1.00  0.00    -0.267 OA
BRANCH  25  28
HETATM   28  C   UNL     1      43.407 -13.726   6.174  1.00  0.00     0.035 A 
HETATM   29  C   UNL     1      43.789 -15.034   6.468  1.00  0.00     0.030 A 
HETATM   30  C   UNL     1      43.729 -16.030   5.485  1.00  0.00     0.010 A 
HETATM   31  C   UNL     1      43.272 -15.743   4.192  1.00  0.00    -0.054 A 
HETATM   32  C   UNL     1      42.894 -14.427   3.901  1.00  0.00     0.010 A 
HETATM   33  C   UNL     1      42.966 -13.430   4.879  1.00  0.00     0.030 A 
BRANCH  31  34
HETATM   34  C   UNL     1      43.188 -16.811   3.113  1.00  0.00     0.014 C 
HETATM   35  C   UNL     1      41.782 -16.867   2.500  1.00  0.00     0.015 C 
BRANCH  34  36
HETATM   36  C   UNL     1      43.606 -18.204   3.624  1.00  0.00     0.004 C 
HETATM   37  C   UNL     1      43.578 -19.271   2.536  1.00  0.00     0.006 C 
ENDBRANCH  34  36
ENDBRANCH  31  34
ENDBRANCH  25  28
ENDBRANCH   1  24
TORSDOF 8
ENDMDL
MODEL 2
REMARK VINA RESULT:      -8.5      2.264      3.134
REMARK  8 active torsions:
REMARK  status: ('A' for Active; 'I' for Inactive)
REMARK    1  A    between atoms: C_2  and  C_3 
REMARK    2  A    between atoms: C_3  and  C_4 
REMARK    3  A    between atoms: C_7  and  N_8 
REMARK       I    between atoms: N_8  and  C_9 
REMARK    4  A    between atoms: C_9  and  C_10 
REMARK    5  A    between atoms: C_13  and  N_14 
REMARK       I    between atoms: N_14  and  C_15 
REMARK    6  A    between atoms: C_15  and  C_16 
REMARK    7  A    between atoms: C_16  and  C_17 
REMARK    8  A    between atoms: C_19  and  N_20 
ROOT
HETATM    1  C   UNL     1      44.148 -10.742   8.565  1.00  0.00     0.032 A 
HETATM    2  C   UNL     1      45.173 -10.462   9.476  1.00  0.00     0.019 A 
HETATM    3  C   UNL     1      44.935  -9.633  10.581  1.00  0.00     0.030 A 
HETATM    4  C   UNL     1      43.683  -9.045  10.774  1.00  0.00     0.034 A 
HETATM    5  C   UNL     1      42.671  -9.290   9.841  1.00  0.00     0.030 A 
HETATM    6  C   UNL     1      42.897 -10.141   8.751  1.00  0.00     0.019 A 
ENDROOT
BRANCH   4   7
HETATM    7  N   UNL     1      43.391  -8.168  11.841  1.00  0.00    -0.327 N 
HETATM    8  C   UNL     1      42.836  -8.519  13.056  1.00  0.00     0.223 C 
HETATM    9  O   UNL     1      42.436  -9.646  13.346  1.00  0.00    -0.273 OA
HETATM   10  H   UNL     1      43.512  -7.190  11.618  1.00  0.00     0.169 HD
BRANCH   8  11
HETATM   11  C   UNL     1      42.808  -7.437  14.130  1.00  0.00     0.128 C 
BRANCH  11  12
HETATM   12  C   UNL     1      41.508  -7.114  14.851  1.00  0.00     0.158 A 
HETATM   13  S   UNL     1      40.263  -6.208  13.903  1.00  0.00    -0.077 SA
HETATM   14  C   UNL     1      40.296  -4.890  15.060  1.00  0.00     0.168 A 
HETATM   15  N   UNL     1      41.112  -5.047  16.052  1.00  0.00    -0.189 NA
HETATM   16  C   UNL     1      41.752  -6.261  16.073  1.00  0.00     0.260 A 
HETATM   17  O   UNL     1      42.511  -6.603  16.971  1.00  0.00    -0.270 OA
BRANCH  14  18
HETATM   18  N   UNL     1      39.535  -3.758  14.858  1.00  0.00    -0.360 N 
HETATM   19  C   UNL     1      38.536  -3.626  13.789  1.00  0.00     0.125 C 
HETATM   20  C   UNL     1      37.174  -4.082  14.315  1.00  0.00     0.020 C 
HETATM   21  C   UNL     1      36.777  -3.299  15.570  1.00  0.00     0.003 C 
HETATM   22  C   UNL     1      37.891  -3.319  16.618  1.00  0.00     0.020 C 
HETATM   23  C   UNL     1      39.226  -2.890  16.007  1.00  0.00     0.125 C 
ENDBRANCH  14  18
ENDBRANCH  11  12
ENDBRANCH   8  11
ENDBRANCH   4   7
BRANCH   1  24
HETATM   24  C   UNL     1      44.345 -11.622   7.367  1.00  0.00     0.256 C 
HETATM   25  N   UNL     1      43.282 -12.448   7.047  1.00  0.00    -0.323 N 
HETATM   26  H   UNL     1      42.429 -12.334   7.575  1.00  0.00     0.169 HD
HETATM   27  O   UNL     1      45.407 -11.537   6.759  1.00  0.00    -0.267 OA
BRANCH  25  28
HETATM   28  C   UNL     1      43.228 -13.432   6.036  1.00  0.00     0.035 A 
HETATM   29  C   UNL     1      42.852 -13.184   4.718  1.00  0.00     0.030 A 
HETATM   30  C   UNL     1      42.845 -14.220   3.774  1.00  0.00     0.010 A 
HETATM   31  C   UNL     1      43.226 -15.521   4.125  1.00  0.00    -0.054 A 
HETATM   32  C   UNL     1      43.599 -15.765   5.452  1.00  0.00     0.010 A 
HETATM   33  C   UNL     1      43.595 -14.734   6.397  1.00  0.00     0.030 A 
BRANCH  31  34
HETATM   34  C   UNL     1      43.236 -16.656   3.115  1.00  0.00     0.014 C 
HETATM   35  C   UNL     1      41.853 -16.837   2.474  1.00  0.00     0.015 C 
BRANCH  34  36
HETATM   36  C   UNL     1      43.722 -17.987   3.722  1.00  0.00     0.004 C 
HETATM   37  C   UNL     1      43.724 -19.135   2.721  1.00  0.00     0.006 C 
ENDBRANCH  34  36
ENDBRANCH  31  34
ENDBRANCH  25  28
ENDBRANCH   1  24
TORSDOF 8
ENDMDL
MODEL 3
REMARK VINA RESULT:      -8.4      2.766      4.730
REMARK  8 active torsions:
REMARK  status: ('A' for Active; 'I' for Inactive)
REMARK    1  A    between atoms: C_2  and  C_3 
REMARK    2  A    between atoms: C_3  and  C_4 
REMARK    3  A    between atoms: C_7  and  N_8 
REMARK       I    between atoms: N_8  and  C_9 
REMARK    4  A    between atoms: C_9  and  C_10 
REMARK    5  A    between atoms: C_13  and  N_14 
REMARK       I    between atoms: N_14  and  C_15 
REMARK    6  A    between atoms: C_15  and  C_16 
REMARK    7  A    between atoms: C_16  and  C_17 
REMARK    8  A    between atoms: C_19  and  N_20 
ROOT
HETATM    1  C   UNL     1      42.157 -12.111   4.440  1.00  0.00     0.032 A 
HETATM    2  C   UNL     1      41.436 -12.140   5.639  1.00  0.00     0.019 A 
HETATM    3  C   UNL     1      40.964 -10.951   6.213  1.00  0.00     0.030 A 
HETATM    4  C   UNL     1      41.234  -9.717   5.620  1.00  0.00     0.034 A 
HETATM    5  C   UNL     1      41.992  -9.683   4.445  1.00  0.00     0.030 A 
HETATM    6  C   UNL     1      42.440 -10.871   3.853  1.00  0.00     0.019 A 
ENDROOT
BRANCH   4   7
HETATM    7  N   UNL     1      40.826  -8.481   6.169  1.00  0.00    -0.327 N 
HETATM    8  C   UNL     1      41.557  -7.692   7.033  1.00  0.00     0.223 C 
HETATM    9  O   UNL     1      42.645  -8.003   7.519  1.00  0.00    -0.273 OA
HETATM   10  H   UNL     1      39.864  -8.239   5.973  1.00  0.00     0.169 HD
BRANCH   8  11
HETATM   11  C   UNL     1      41.000  -6.303   7.325  1.00  0.00     0.128 C 
BRANCH  11  12
HETATM   12  C   UNL     1      40.265  -6.037   8.630  1.00  0.00     0.158 A 
HETATM   13  S   UNL     1      41.289  -5.803  10.101  1.00  0.00    -0.077 SA
HETATM   14  C   UNL     1      40.529  -7.177  10.886  1.00  0.00     0.168 A 
HETATM   15  N   UNL     1      39.618  -7.775  10.190  1.00  0.00    -0.189 NA
HETATM   16  C   UNL     1      39.341  -7.179   8.985  1.00  0.00     0.260 A 
HETATM   17  O   UNL     1      38.465  -7.575   8.227  1.00  0.00    -0.270 OA
BRANCH  14  18
HETATM   18  N   UNL     1      40.947  -7.592  12.133  1.00  0.00    -0.360 N 
HETATM   19  C   UNL     1      40.386  -8.753  12.838  1.00  0.00     0.125 C 
HETATM   20  C   UNL     1      41.201  -9.997  12.483  1.00  0.00     0.020 C 
HETATM   21  C   UNL     1      42.685  -9.796  12.802  1.00  0.00     0.003 C 
HETATM   22  C   UNL     1      43.220  -8.501  12.185  1.00  0.00     0.020 C 
HETATM   23  C   UNL     1      42.331  -7.311  12.553  1.00  0.00     0.125 C 
ENDBRANCH  14  18
ENDBRANCH  11  12
ENDBRANCH   8  11
ENDBRANCH   4   7
BRANCH   1  24
HETATM   24  C   UNL     1      42.684 -13.349   3.781  1.00  0.00     0.256 C 
HETATM   25  N   UNL     1      42.198 -14.547   4.276  1.00  0.00    -0.323 N 
HETATM   26  H   UNL     1      41.466 -14.501   4.969  1.00  0.00     0.169 HD
HETATM   27  O   UNL     1      43.481 -13.215   2.858  1.00  0.00    -0.267 OA
BRANCH  25  28
HETATM   28  C   UNL     1      42.587 -15.853   3.907  1.00  0.00     0.035 A 
HETATM   29  C   UNL     1      42.089 -16.538   2.800  1.00  0.00     0.030 A 
HETATM   30  C   UNL     1      42.544 -17.828   2.498  1.00  0.00     0.010 A 
HETATM   31  C   UNL     1      43.517 -18.454   3.288  1.00  0.00    -0.054 A 
HETATM   32  C   UNL     1      44.011 -17.764   4.401  1.00  0.00     0.010 A 
HETATM   33  C   UNL     1      43.547 -16.481   4.709  1.00  0.00     0.030 A 
BRANCH  31  34
HETATM   34  C   UNL     1      44.033 -19.849   2.972  1.00  0.00     0.014 C 
HETATM   35  C   UNL     1      43.578 -20.304   1.578  1.00  0.00     0.015 C 
BRANCH  34  36
HETATM   36  C   UNL     1      43.624 -20.888   4.034  1.00  0.00     0.004 C 
HETATM   37  C   UNL     1      44.506 -20.852   5.276  1.00  0.00     0.006 C 
ENDBRANCH  34  36
ENDBRANCH  31  34
ENDBRANCH  25  28
ENDBRANCH   1  24
TORSDOF 8
ENDMDL
MODEL 4
REMARK VINA RESULT:      -8.4      2.454      3.699
REMARK  8 active torsions:
REMARK  status: ('A' for Active; 'I' for Inactive)
REMARK    1  A    between atoms: C_2  and  C_3 
REMARK    2  A    between atoms: C_3  and  C_4 
REMARK    3  A    between atoms: C_7  and  N_8 
REMARK       I    between atoms: N_8  and  C_9 
REMARK    4  A    between atoms: C_9  and  C_10 
REMARK    5  A    between atoms: C_13  and  N_14 
REMARK       I    between atoms: N_14  and  C_15 
REMARK    6  A    between atoms: C_15  and  C_16 
REMARK    7  A    between atoms: C_16  and  C_17 
REMARK    8  A    between atoms: C_19  and  N_20 
ROOT
HETATM    1  C   UNL     1      44.163 -10.754   8.446  1.00  0.00     0.032 A 
HETATM    2  C   UNL     1      45.185 -10.530   9.376  1.00  0.00     0.019 A 
HETATM    3  C   UNL     1      44.974  -9.683  10.473  1.00  0.00     0.030 A 
HETATM    4  C   UNL     1      43.756  -9.022  10.640  1.00  0.00     0.034 A 
HETATM    5  C   UNL     1      42.748  -9.212   9.689  1.00  0.00     0.030 A 
HETATM    6  C   UNL     1      42.945 -10.080   8.607  1.00  0.00     0.019 A 
ENDROOT
BRANCH   4   7
HETATM    7  N   UNL     1      43.495  -8.124  11.698  1.00  0.00    -0.327 N 
HETATM    8  C   UNL     1      42.961  -8.449  12.929  1.00  0.00     0.223 C 
HETATM    9  O   UNL     1      42.554  -9.567  13.246  1.00  0.00    -0.273 OA
HETATM   10  H   UNL     1      43.622  -7.151  11.456  1.00  0.00     0.169 HD
BRANCH   8  11
HETATM   11  C   UNL     1      42.967  -7.349  13.986  1.00  0.00     0.128 C 
BRANCH  11  12
HETATM   12  C   UNL     1      41.662  -6.689  14.404  1.00  0.00     0.158 A 
HETATM   13  S   UNL     1      41.283  -5.094  13.643  1.00  0.00    -0.077 SA
HETATM   14  C   UNL     1      41.248  -4.317  15.216  1.00  0.00     0.168 A 
HETATM   15  N   UNL     1      41.480  -5.097  16.222  1.00  0.00    -0.189 NA
HETATM   16  C   UNL     1      41.632  -6.420  15.891  1.00  0.00     0.260 A 
HETATM   17  O   UNL     1      41.796  -7.305  16.721  1.00  0.00    -0.270 OA
BRANCH  14  18
HETATM   18  N   UNL     1      41.043  -2.957  15.324  1.00  0.00    -0.360 N 
HETATM   19  C   UNL     1      41.121  -2.217  16.590  1.00  0.00     0.125 C 
HETATM   20  C   UNL     1      42.550  -1.713  16.790  1.00  0.00     0.020 C 
HETATM   21  C   UNL     1      43.007  -0.863  15.601  1.00  0.00     0.003 C 
HETATM   22  C   UNL     1      42.780  -1.589  14.273  1.00  0.00     0.020 C 
HETATM   23  C   UNL     1      41.341  -2.097  14.166  1.00  0.00     0.125 C 
ENDBRANCH  14  18
ENDBRANCH  11  12
ENDBRANCH   8  11
ENDBRANCH   4   7
BRANCH   1  24
HETATM   24  C   UNL     1      44.330 -11.649   7.256  1.00  0.00     0.256 C 
HETATM   25  N   UNL     1      43.418 -12.685   7.150  1.00  0.00    -0.323 N 
HETATM   26  H   UNL     1      42.661 -12.709   7.817  1.00  0.00     0.169 HD
HETATM   27  O   UNL     1      45.235 -11.396   6.468  1.00  0.00    -0.267 OA
BRANCH  25  28
HETATM   28  C   UNL     1      43.397 -13.720   6.190  1.00  0.00     0.035 A 
HETATM   29  C   UNL     1      43.815 -15.027   6.434  1.00  0.00     0.030 A 
HETATM   30  C   UNL     1      43.743 -15.997   5.425  1.00  0.00     0.010 A 
HETATM   31  C   UNL     1      43.239 -15.684   4.157  1.00  0.00    -0.054 A 
HETATM   32  C   UNL     1      42.825 -14.369   3.915  1.00  0.00     0.010 A 
HETATM   33  C   UNL     1      42.908 -13.398   4.919  1.00  0.00     0.030 A 
BRANCH  31  34
HETATM   34  C   UNL     1      43.142 -16.723   3.051  1.00  0.00     0.014 C 
HETATM   35  C   UNL     1      41.714 -16.806   2.495  1.00  0.00     0.015 C 
BRANCH  34  36
HETATM   36  C   UNL     1      43.622 -18.116   3.503  1.00  0.00     0.004 C 
HETATM   37  C   UNL     1      43.445 -19.185   2.431  1.00  0.00     0.006 C 
ENDBRANCH  34  36
ENDBRANCH  31  34
ENDBRANCH  25  28
ENDBRANCH   1  24
TORSDOF 8
ENDMDL
MODEL 5
REMARK VINA RESULT:      -8.2      3.214     12.096
REMARK  8 active torsions:
REMARK  status: ('A' for Active; 'I' for Inactive)
REMARK    1  A    between atoms: C_2  and  C_3 
REMARK    2  A    between atoms: C_3  and  C_4 
REMARK    3  A    between atoms: C_7  and  N_8 
REMARK       I    between atoms: N_8  and  C_9 
REMARK    4  A    between atoms: C_9  and  C_10 
REMARK    5  A    between atoms: C_13  and  N_14 
REMARK       I    between atoms: N_14  and  C_15 
REMARK    6  A    between atoms: C_15  and  C_16 
REMARK    7  A    between atoms: C_16  and  C_17 
REMARK    8  A    between atoms: C_19  and  N_20 
ROOT
HETATM    1  C   UNL     1      42.900  -8.499  11.979  1.00  0.00     0.032 A 
HETATM    2  C   UNL     1      43.235  -9.854  12.082  1.00  0.00     0.019 A 
HETATM    3  C   UNL     1      43.448 -10.623  10.929  1.00  0.00     0.030 A 
HETATM    4  C   UNL     1      43.298 -10.061   9.660  1.00  0.00     0.034 A 
HETATM    5  C   UNL     1      42.922  -8.718   9.556  1.00  0.00     0.030 A 
HETATM    6  C   UNL     1      42.736  -7.940  10.706  1.00  0.00     0.019 A 
ENDROOT
BRANCH   4   7
HETATM    7  N   UNL     1      43.456 -10.790   8.461  1.00  0.00    -0.327 N 
HETATM    8  C   UNL     1      44.647 -11.258   7.942  1.00  0.00     0.223 C 
HETATM    9  O   UNL     1      45.759 -11.025   8.416  1.00  0.00    -0.273 OA
HETATM   10  H   UNL     1      42.614 -10.864   7.907  1.00  0.00     0.169 HD
BRANCH   8  11
HETATM   11  C   UNL     1      44.547 -12.200   6.747  1.00  0.00     0.128 C 
BRANCH  11  12
HETATM   12  C   UNL     1      43.252 -12.289   5.954  1.00  0.00     0.158 A 
HETATM   13  S   UNL     1      42.318 -13.829   6.104  1.00  0.00    -0.077 SA
HETATM   14  C   UNL     1      42.455 -14.117   4.379  1.00  0.00     0.168 A 
HETATM   15  N   UNL     1      43.103 -13.212   3.719  1.00  0.00    -0.189 NA
HETATM   16  C   UNL     1      43.502 -12.137   4.472  1.00  0.00     0.260 A 
HETATM   17  O   UNL     1      44.072 -11.161   3.999  1.00  0.00    -0.270 OA
BRANCH  14  18
HETATM   18  N   UNL     1      41.945 -15.268   3.816  1.00  0.00    -0.360 N 
HETATM   19  C   UNL     1      41.802 -15.475   2.369  1.00  0.00     0.125 C 
HETATM   20  C   UNL     1      43.072 -16.133   1.828  1.00  0.00     0.020 C 
HETATM   21  C   UNL     1      43.375 -17.440   2.567  1.00  0.00     0.003 C 
HETATM   22  C   UNL     1      43.371 -17.240   4.084  1.00  0.00     0.020 C 
HETATM   23  C   UNL     1      42.089 -16.541   4.541  1.00  0.00     0.125 C 
ENDBRANCH  14  18
ENDBRANCH  11  12
ENDBRANCH   8  11
ENDBRANCH   4   7
BRANCH   1  24
HETATM   24  C   UNL     1      42.662  -7.629  13.176  1.00  0.00     0.256 C 
HETATM   25  N   UNL     1      41.350  -7.243  13.386  1.00  0.00    -0.323 N 
HETATM   26  H   UNL     1      40.645  -7.643  12.785  1.00  0.00     0.169 HD
HETATM   27  O   UNL     1      43.625  -7.341  13.879  1.00  0.00    -0.267 OA
BRANCH  25  28
HETATM   28  C   UNL     1      40.859  -6.361  14.373  1.00  0.00     0.035 A 
HETATM   29  C   UNL     1      40.866  -4.972  14.260  1.00  0.00     0.030 A 
HETATM   30  C   UNL     1      40.341  -4.173  15.284  1.00  0.00     0.010 A 
HETATM   31  C   UNL     1      39.785  -4.745  16.435  1.00  0.00    -0.054 A 
HETATM   32  C   UNL     1      39.785  -6.141  16.546  1.00  0.00     0.010 A 
HETATM   33  C   UNL     1      40.320  -6.939  15.529  1.00  0.00     0.030 A 
BRANCH  31  34
HETATM   34  C   UNL     1      39.200  -3.897  17.553  1.00  0.00     0.014 C 
HETATM   35  C   UNL     1      38.292  -2.794  16.992  1.00  0.00     0.015 C 
BRANCH  34  36
HETATM   36  C   UNL     1      40.284  -3.287  18.464  1.00  0.00     0.004 C 
HETATM   37  C   UNL     1      40.733  -4.231  19.572  1.00  0.00     0.006 C 
ENDBRANCH  34  36
ENDBRANCH  31  34
ENDBRANCH  25  28
ENDBRANCH   1  24
TORSDOF 8
ENDMDL
MODEL 6
REMARK VINA RESULT:      -8.2      4.791     11.608
REMARK  8 active torsions:
REMARK  status: ('A' for Active; 'I' for Inactive)
REMARK    1  A    between atoms: C_2  and  C_3 
REMARK    2  A    between atoms: C_3  and  C_4 
REMARK    3  A    between atoms: C_7  and  N_8 
REMARK       I    between atoms: N_8  and  C_9 
REMARK    4  A    between atoms: C_9  and  C_10 
REMARK    5  A    between atoms: C_13  and  N_14 
REMARK       I    between atoms: N_14  and  C_15 
REMARK    6  A    between atoms: C_15  and  C_16 
REMARK    7  A    between atoms: C_16  and  C_17 
REMARK    8  A    between atoms: C_19  and  N_20 
ROOT
HETATM    1  C   UNL     1      44.054 -10.718   7.992  1.00  0.00     0.032 A 
HETATM    2  C   UNL     1      45.049 -11.500   7.393  1.00  0.00     0.019 A 
HETATM    3  C   UNL     1      44.885 -11.982   6.088  1.00  0.00     0.030 A 
HETATM    4  C   UNL     1      43.714 -11.721   5.373  1.00  0.00     0.034 A 
HETATM    5  C   UNL     1      42.701 -10.976   5.985  1.00  0.00     0.030 A 
HETATM    6  C   UNL     1      42.874 -10.468   7.280  1.00  0.00     0.019 A 
ENDROOT
BRANCH   4   7
HETATM    7  N   UNL     1      43.469 -12.212   4.072  1.00  0.00    -0.327 N 
HETATM    8  C   UNL     1      42.963 -13.456   3.752  1.00  0.00     0.223 C 
HETATM    9  O   UNL     1      42.735 -14.352   4.566  1.00  0.00    -0.273 OA
HETATM   10  H   UNL     1      43.806 -11.612   3.332  1.00  0.00     0.169 HD
BRANCH   8  11
HETATM   11  C   UNL     1      42.585 -13.684   2.293  1.00  0.00     0.128 C 
BRANCH  11  12
HETATM   12  C   UNL     1      41.250 -13.182   1.765  1.00  0.00     0.158 A 
HETATM   13  S   UNL     1      40.520 -14.112   0.398  1.00  0.00    -0.077 SA
HETATM   14  C   UNL     1      40.549 -12.689  -0.628  1.00  0.00     0.168 A 
HETATM   15  N   UNL     1      41.031 -11.622  -0.076  1.00  0.00    -0.189 NA
HETATM   16  C   UNL     1      41.359 -11.766   1.248  1.00  0.00     0.260 A 
HETATM   17  O   UNL     1      41.769 -10.844   1.942  1.00  0.00    -0.270 OA
BRANCH  14  18
HETATM   18  N   UNL     1      40.136 -12.761  -1.942  1.00  0.00    -0.360 N 
HETATM   19  C   UNL     1      40.251 -13.969  -2.769  1.00  0.00     0.125 C 
HETATM   20  C   UNL     1      38.970 -14.793  -2.636  1.00  0.00     0.020 C 
HETATM   21  C   UNL     1      37.738 -13.962  -3.004  1.00  0.00     0.003 C 
HETATM   22  C   UNL     1      37.709 -12.634  -2.243  1.00  0.00     0.020 C 
HETATM   23  C   UNL     1      39.037 -11.889  -2.392  1.00  0.00     0.125 C 
ENDBRANCH  14  18
ENDBRANCH  11  12
ENDBRANCH   8  11
ENDBRANCH   4   7
BRANCH   1  24
HETATM   24  C   UNL     1      44.175 -10.176   9.383  1.00  0.00     0.256 C 
HETATM   25  N   UNL     1      42.996  -9.744   9.965  1.00  0.00    -0.323 N 
HETATM   26  H   UNL     1      42.139  -9.909   9.457  1.00  0.00     0.169 HD
HETATM   27  O   UNL     1      45.286 -10.168   9.903  1.00  0.00    -0.267 OA
BRANCH  25  28
HETATM   28  C   UNL     1      42.833  -9.112  11.217  1.00  0.00     0.035 A 
HETATM   29  C   UNL     1      43.090  -7.764  11.456  1.00  0.00     0.030 A 
HETATM   30  C   UNL     1      42.884  -7.216  12.729  1.00  0.00     0.010 A 
HETATM   31  C   UNL     1      42.403  -8.001  13.785  1.00  0.00    -0.054 A 
HETATM   32  C   UNL     1      42.150  -9.356  13.540  1.00  0.00     0.010 A 
HETATM   33  C   UNL     1      42.368  -9.906  12.273  1.00  0.00     0.030 A 
BRANCH  31  34
HETATM   34  C   UNL     1      42.162  -7.424  15.171  1.00  0.00     0.014 C 
HETATM   35  C   UNL     1      41.162  -8.281  15.959  1.00  0.00     0.015 C 
BRANCH  34  36
HETATM   36  C   UNL     1      41.694  -5.956  15.130  1.00  0.00     0.004 C 
HETATM   37  C   UNL     1      40.586  -5.655  16.132  1.00  0.00     0.006 C 
ENDBRANCH  34  36
ENDBRANCH  31  34
ENDBRANCH  25  28
ENDBRANCH   1  24
TORSDOF 8
ENDMDL
MODEL 7
REMARK VINA RESULT:      -8.1      3.808     11.170
REMARK  8 active torsions:
REMARK  status: ('A' for Active; 'I' for Inactive)
REMARK    1  A    between atoms: C_2  and  C_3 
REMARK    2  A    between atoms: C_3  and  C_4 
REMARK    3  A    between atoms: C_7  and  N_8 
REMARK       I    between atoms: N_8  and  C_9 
REMARK    4  A    between atoms: C_9  and  C_10 
REMARK    5  A    between atoms: C_13  and  N_14 
REMARK       I    between atoms: N_14  and  C_15 
REMARK    6  A    between atoms: C_15  and  C_16 
REMARK    7  A    between atoms: C_16  and  C_17 
REMARK    8  A    between atoms: C_19  and  N_20 
ROOT
HETATM    1  C   UNL     1      42.623 -10.483   6.928  1.00  0.00     0.032 A 
HETATM    2  C   UNL     1      43.582 -11.292   6.306  1.00  0.00     0.019 A 
HETATM    3  C   UNL     1      43.228 -12.105   5.221  1.00  0.00     0.030 A 
HETATM    4  C   UNL     1      41.911 -12.150   4.763  1.00  0.00     0.034 A 
HETATM    5  C   UNL     1      40.943 -11.375   5.410  1.00  0.00     0.030 A 
HETATM    6  C   UNL     1      41.298 -10.539   6.477  1.00  0.00     0.019 A 
ENDROOT
BRANCH   4   7
HETATM    7  N   UNL     1      41.481 -12.980   3.703  1.00  0.00    -0.327 N 
HETATM    8  C   UNL     1      41.633 -12.724   2.355  1.00  0.00     0.223 C 
HETATM    9  O   UNL     1      42.092 -11.682   1.885  1.00  0.00    -0.273 OA
HETATM   10  H   UNL     1      40.923 -13.770   3.996  1.00  0.00     0.169 HD
BRANCH   8  11
HETATM   11  C   UNL     1      41.282 -13.860   1.401  1.00  0.00     0.128 C 
BRANCH  11  12
HETATM   12  C   UNL     1      41.649 -15.293   1.756  1.00  0.00     0.158 A 
HETATM   13  S   UNL     1      40.720 -16.054   3.107  1.00  0.00    -0.077 SA
HETATM   14  C   UNL     1      42.195 -16.297   4.027  1.00  0.00     0.168 A 
HETATM   15  N   UNL     1      43.277 -15.884   3.451  1.00  0.00    -0.189 NA
HETATM   16  C   UNL     1      43.096 -15.402   2.180  1.00  0.00     0.260 A 
HETATM   17  O   UNL     1      44.018 -15.027   1.466  1.00  0.00    -0.270 OA
BRANCH  14  18
HETATM   18  N   UNL     1      42.151 -16.838   5.294  1.00  0.00    -0.360 N 
HETATM   19  C   UNL     1      43.279 -17.537   5.924  1.00  0.00     0.125 C 
HETATM   20  C   UNL     1      44.119 -16.529   6.710  1.00  0.00     0.020 C 
HETATM   21  C   UNL     1      43.264 -15.780   7.737  1.00  0.00     0.003 C 
HETATM   22  C   UNL     1      42.011 -15.183   7.094  1.00  0.00     0.020 C 
HETATM   23  C   UNL     1      41.248 -16.242   6.294  1.00  0.00     0.125 C 
ENDBRANCH  14  18
ENDBRANCH  11  12
ENDBRANCH   8  11
ENDBRANCH   4   7
BRANCH   1  24
HETATM   24  C   UNL     1      42.943  -9.593   8.091  1.00  0.00     0.256 C 
HETATM   25  N   UNL     1      42.397  -9.971   9.305  1.00  0.00    -0.323 N 
HETATM   26  H   UNL     1      41.909 -10.854   9.341  1.00  0.00     0.169 HD
HETATM   27  O   UNL     1      43.665  -8.622   7.891  1.00  0.00    -0.267 OA
BRANCH  25  28
HETATM   28  C   UNL     1      42.460  -9.276  10.532  1.00  0.00     0.035 A 
HETATM   29  C   UNL     1      43.631  -9.063  11.255  1.00  0.00     0.030 A 
HETATM   30  C   UNL     1      43.604  -8.346  12.459  1.00  0.00     0.010 A 
HETATM   31  C   UNL     1      42.408  -7.815  12.956  1.00  0.00    -0.054 A 
HETATM   32  C   UNL     1      41.232  -8.036  12.229  1.00  0.00     0.010 A 
HETATM   33  C   UNL     1      41.258  -8.762  11.034  1.00  0.00     0.030 A 
BRANCH  31  34
HETATM   34  C   UNL     1      42.357  -7.024  14.254  1.00  0.00     0.014 C 
HETATM   35  C   UNL     1      41.740  -7.858  15.385  1.00  0.00     0.015 C 
BRANCH  34  36
HETATM   36  C   UNL     1      41.606  -5.686  14.105  1.00  0.00     0.004 C 
HETATM   37  C   UNL     1      42.301  -4.714  13.159  1.00  0.00     0.006 C 
ENDBRANCH  34  36
ENDBRANCH  31  34
ENDBRANCH  25  28
ENDBRANCH   1  24
TORSDOF 8
ENDMDL
MODEL 8
REMARK VINA RESULT:      -7.8      2.099      3.368
REMARK  8 active torsions:
REMARK  status: ('A' for Active; 'I' for Inactive)
REMARK    1  A    between atoms: C_2  and  C_3 
REMARK    2  A    between atoms: C_3  and  C_4 
REMARK    3  A    between atoms: C_7  and  N_8 
REMARK       I    between atoms: N_8  and  C_9 
REMARK    4  A    between atoms: C_9  and  C_10 
REMARK    5  A    between atoms: C_13  and  N_14 
REMARK       I    between atoms: N_14  and  C_15 
REMARK    6  A    between atoms: C_15  and  C_16 
REMARK    7  A    between atoms: C_16  and  C_17 
REMARK    8  A    between atoms: C_19  and  N_20 
ROOT
HETATM    1  C   UNL     1      43.803  -9.897   7.939  1.00  0.00     0.032 A 
HETATM    2  C   UNL     1      44.757  -8.954   8.339  1.00  0.00     0.019 A 
HETATM    3  C   UNL     1      44.358  -7.732   8.897  1.00  0.00     0.030 A 
HETATM    4  C   UNL     1      43.004  -7.419   9.034  1.00  0.00     0.034 A 
HETATM    5  C   UNL     1      42.050  -8.342   8.596  1.00  0.00     0.030 A 
HETATM    6  C   UNL     1      42.445  -9.577   8.064  1.00  0.00     0.019 A 
ENDROOT
BRANCH   4   7
HETATM    7  N   UNL     1      42.536  -6.190   9.548  1.00  0.00    -0.327 N 
HETATM    8  C   UNL     1      41.845  -5.223   8.846  1.00  0.00     0.223 C 
HETATM    9  O   UNL     1      41.615  -5.262   7.636  1.00  0.00    -0.273 OA
HETATM   10  H   UNL     1      42.847  -5.989  10.488  1.00  0.00     0.169 HD
BRANCH   8  11
HETATM   11  C   UNL     1      41.258  -4.076   9.661  1.00  0.00     0.128 C 
BRANCH  11  12
HETATM   12  C   UNL     1      40.646  -4.348  11.027  1.00  0.00     0.158 A 
HETATM   13  S   UNL     1      41.769  -4.944  12.312  1.00  0.00    -0.077 SA
HETATM   14  C   UNL     1      40.834  -6.419  12.489  1.00  0.00     0.168 A 
HETATM   15  N   UNL     1      39.801  -6.513  11.715  1.00  0.00    -0.189 NA
HETATM   16  C   UNL     1      39.565  -5.402  10.946  1.00  0.00     0.260 A 
HETATM   17  O   UNL     1      38.598  -5.294  10.203  1.00  0.00    -0.270 OA
BRANCH  14  18
HETATM   18  N   UNL     1      41.241  -7.408  13.360  1.00  0.00    -0.360 N 
HETATM   19  C   UNL     1      40.504  -8.660  13.575  1.00  0.00     0.125 C 
HETATM   20  C   UNL     1      41.023  -9.721  12.604  1.00  0.00     0.020 C 
HETATM   21  C   UNL     1      42.535  -9.913  12.752  1.00  0.00     0.003 C 
HETATM   22  C   UNL     1      43.280  -8.578  12.676  1.00  0.00     0.020 C 
HETATM   23  C   UNL     1      42.678  -7.560  13.646  1.00  0.00     0.125 C 
ENDBRANCH  14  18
ENDBRANCH  11  12
ENDBRANCH   8  11
ENDBRANCH   4   7
BRANCH   1  24
HETATM   24  C   UNL     1      44.171 -11.219   7.338  1.00  0.00     0.256 C 
HETATM   25  N   UNL     1      43.113 -11.991   6.890  1.00  0.00    -0.323 N 
HETATM   26  H   UNL     1      42.193 -11.577   6.912  1.00  0.00     0.169 HD
HETATM   27  O   UNL     1      45.361 -11.511   7.272  1.00  0.00    -0.267 OA
BRANCH  25  28
HETATM   28  C   UNL     1      43.163 -13.302   6.369  1.00  0.00     0.035 A 
HETATM   29  C   UNL     1      43.434 -14.439   7.127  1.00  0.00     0.030 A 
HETATM   30  C   UNL     1      43.446 -15.707   6.529  1.00  0.00     0.010 A 
HETATM   31  C   UNL     1      43.173 -15.864   5.165  1.00  0.00    -0.054 A 
HETATM   32  C   UNL     1      42.906 -14.719   4.406  1.00  0.00     0.010 A 
HETATM   33  C   UNL     1      42.906 -13.452   5.001  1.00  0.00     0.030 A 
BRANCH  31  34
HETATM   34  C   UNL     1      43.170 -17.231   4.498  1.00  0.00     0.014 C 
HETATM   35  C   UNL     1      44.235 -18.148   5.114  1.00  0.00     0.015 C 
BRANCH  34  36
HETATM   36  C   UNL     1      43.357 -17.146   2.970  1.00  0.00     0.004 C 
HETATM   37  C   UNL     1      42.052 -17.306   2.200  1.00  0.00     0.006 C 
ENDBRANCH  34  36
ENDBRANCH  31  34
ENDBRANCH  25  28
ENDBRANCH   1  24
TORSDOF 8
ENDMDL
MODEL 9
REMARK VINA RESULT:      -7.8      2.661      4.401
REMARK  8 active torsions:
REMARK  status: ('A' for Active; 'I' for Inactive)
REMARK    1  A    between atoms: C_2  and  C_3 
REMARK    2  A    between atoms: C_3  and  C_4 
REMARK    3  A    between atoms: C_7  and  N_8 
REMARK       I    between atoms: N_8  and  C_9 
REMARK    4  A    between atoms: C_9  and  C_10 
REMARK    5  A    between atoms: C_13  and  N_14 
REMARK       I    between atoms: N_14  and  C_15 
REMARK    6  A    between atoms: C_15  and  C_16 
REMARK    7  A    between atoms: C_16  and  C_17 
REMARK    8  A    between atoms: C_19  and  N_20 
ROOT
HETATM    1  C   UNL     1      40.632 -11.795   6.002  1.00  0.00     0.032 A 
HETATM    2  C   UNL     1      41.689 -10.960   6.383  1.00  0.00     0.019 A 
HETATM    3  C   UNL     1      41.440  -9.648   6.809  1.00  0.00     0.030 A 
HETATM    4  C   UNL     1      40.140  -9.140   6.829  1.00  0.00     0.034 A 
HETATM    5  C   UNL     1      39.088  -9.960   6.407  1.00  0.00     0.030 A 
HETATM    6  C   UNL     1      39.330 -11.281   6.008  1.00  0.00     0.019 A 
ENDROOT
BRANCH   4   7
HETATM    7  N   UNL     1      39.825  -7.816   7.206  1.00  0.00    -0.327 N 
HETATM    8  C   UNL     1      39.049  -7.438   8.283  1.00  0.00     0.223 C 
HETATM    9  O   UNL     1      38.445  -8.216   9.022  1.00  0.00    -0.273 OA
HETATM   10  H   UNL     1      40.124  -7.115   6.542  1.00  0.00     0.169 HD
BRANCH   8  11
HETATM   11  C   UNL     1      39.023  -5.950   8.616  1.00  0.00     0.128 C 
BRANCH  11  12
HETATM   12  C   UNL     1      39.672  -5.445   9.896  1.00  0.00     0.158 A 
HETATM   13  S   UNL     1      41.022  -6.444  10.565  1.00  0.00    -0.077 SA
HETATM   14  C   UNL     1      40.139  -6.691  12.061  1.00  0.00     0.168 A 
HETATM   15  N   UNL     1      38.978  -6.124  12.116  1.00  0.00    -0.189 NA
HETATM   16  C   UNL     1      38.670  -5.354  11.023  1.00  0.00     0.260 A 
HETATM   17  O   UNL     1      37.640  -4.697  10.934  1.00  0.00    -0.270 OA
BRANCH  14  18
HETATM   18  N   UNL     1      40.657  -7.490  13.059  1.00  0.00    -0.360 N 
HETATM   19  C   UNL     1      41.773  -8.425  12.860  1.00  0.00     0.125 C 
HETATM   20  C   UNL     1      43.089  -7.709  13.165  1.00  0.00     0.020 C 
HETATM   21  C   UNL     1      43.082  -7.118  14.578  1.00  0.00     0.003 C 
HETATM   22  C   UNL     1      41.834  -6.266  14.823  1.00  0.00     0.020 C 
HETATM   23  C   UNL     1      40.564  -7.036  14.457  1.00  0.00     0.125 C 
ENDBRANCH  14  18
ENDBRANCH  11  12
ENDBRANCH   8  11
ENDBRANCH   4   7
BRANCH   1  24
HETATM   24  C   UNL     1      40.839 -13.206   5.539  1.00  0.00     0.256 C 
HETATM   25  N   UNL     1      42.121 -13.519   5.121  1.00  0.00    -0.323 N 
HETATM   26  H   UNL     1      42.835 -12.817   5.243  1.00  0.00     0.169 HD
HETATM   27  O   UNL     1      39.881 -13.971   5.578  1.00  0.00    -0.267 OA
BRANCH  25  28
HETATM   28  C   UNL     1      42.571 -14.732   4.557  1.00  0.00     0.035 A 
HETATM   29  C   UNL     1      42.767 -14.940   3.193  1.00  0.00     0.030 A 
HETATM   30  C   UNL     1      43.234 -16.175   2.722  1.00  0.00     0.010 A 
HETATM   31  C   UNL     1      43.529 -17.221   3.605  1.00  0.00    -0.054 A 
HETATM   32  C   UNL     1      43.326 -17.009   4.974  1.00  0.00     0.010 A 
HETATM   33  C   UNL     1      42.848 -15.780   5.443  1.00  0.00     0.030 A 
BRANCH  31  34
HETATM   34  C   UNL     1      44.046 -18.564   3.117  1.00  0.00     0.014 C 
HETATM   35  C   UNL     1      43.048 -19.225   2.156  1.00  0.00     0.015 C 
BRANCH  34  36
HETATM   36  C   UNL     1      44.392 -19.523   4.273  1.00  0.00     0.004 C 
HETATM   37  C   UNL     1      43.865 -20.936   4.054  1.00  0.00     0.006 C 
ENDBRANCH  34  36
ENDBRANCH  31  34
ENDBRANCH  25  28
ENDBRANCH   1  24
TORSDOF 8
ENDMDL
MODEL 10
REMARK VINA RESULT:      -7.6     10.229     12.281
REMARK  8 active torsions:
REMARK  status: ('A' for Active; 'I' for Inactive)
REMARK    1  A    between atoms: C_2  and  C_3 
REMARK    2  A    between atoms: C_3  and  C_4 
REMARK    3  A    between atoms: C_7  and  N_8 
REMARK       I    between atoms: N_8  and  C_9 
REMARK    4  A    between atoms: C_9  and  C_10 
REMARK    5  A    between atoms: C_13  and  N_14 
REMARK       I    between atoms: N_14  and  C_15 
REMARK    6  A    between atoms: C_15  and  C_16 
REMARK    7  A    between atoms: C_16  and  C_17 
REMARK    8  A    between atoms: C_19  and  N_20 
ROOT
HETATM    1  C   UNL     1      39.456 -13.266  -1.302  1.00  0.00     0.032 A 
HETATM    2  C   UNL     1      40.311 -12.186  -1.549  1.00  0.00     0.019 A 
HETATM    3  C   UNL     1      39.893 -11.119  -2.356  1.00  0.00     0.030 A 
HETATM    4  C   UNL     1      38.631 -11.129  -2.954  1.00  0.00     0.034 A 
HETATM    5  C   UNL     1      37.792 -12.228  -2.742  1.00  0.00     0.030 A 
HETATM    6  C   UNL     1      38.196 -13.282  -1.913  1.00  0.00     0.019 A 
ENDROOT
BRANCH   4   7
HETATM    7  N   UNL     1      38.166 -10.107  -3.811  1.00  0.00    -0.327 N 
HETATM    8  C   UNL     1      37.299  -9.089  -3.469  1.00  0.00     0.223 C 
HETATM    9  O   UNL     1      36.737  -8.981  -2.378  1.00  0.00    -0.273 OA
HETATM   10  H   UNL     1      38.428 -10.228  -4.779  1.00  0.00     0.169 HD
BRANCH   8  11
HETATM   11  C   UNL     1      37.106  -7.982  -4.500  1.00  0.00     0.128 C 
BRANCH  11  12
HETATM   12  C   UNL     1      38.130  -6.864  -4.617  1.00  0.00     0.158 A 
HETATM   13  S   UNL     1      39.783  -7.339  -5.176  1.00  0.00    -0.077 SA
HETATM   14  C   UNL     1      40.492  -6.743  -3.685  1.00  0.00     0.168 A 
HETATM   15  N   UNL     1      39.653  -6.241  -2.838  1.00  0.00    -0.189 NA
HETATM   16  C   UNL     1      38.358  -6.183  -3.288  1.00  0.00     0.260 A 
HETATM   17  O   UNL     1      37.445  -5.683  -2.642  1.00  0.00    -0.270 OA
BRANCH  14  18
HETATM   18  N   UNL     1      41.844  -6.875  -3.448  1.00  0.00    -0.360 N 
HETATM   19  C   UNL     1      42.774  -5.741  -3.367  1.00  0.00     0.125 C 
HETATM   20  C   UNL     1      42.872  -5.275  -1.914  1.00  0.00     0.020 C 
HETATM   21  C   UNL     1      43.288  -6.424  -0.992  1.00  0.00     0.003 C 
HETATM   22  C   UNL     1      42.402  -7.655  -1.195  1.00  0.00     0.020 C 
HETATM   23  C   UNL     1      42.323  -8.034  -2.675  1.00  0.00     0.125 C 
ENDBRANCH  14  18
ENDBRANCH  11  12
ENDBRANCH   8  11
ENDBRANCH   4   7
BRANCH   1  24
HETATM   24  C   UNL     1      39.849 -14.433  -0.447  1.00  0.00     0.256 C 
HETATM   25  N   UNL     1      40.757 -14.160   0.561  1.00  0.00    -0.323 N 
HETATM   26  H   UNL     1      41.013 -13.195   0.708  1.00  0.00     0.169 HD
HETATM   27  O   UNL     1      39.337 -15.521  -0.688  1.00  0.00    -0.267 OA
BRANCH  25  28
HETATM   28  C   UNL     1      41.362 -15.077   1.448  1.00  0.00     0.035 A 
HETATM   29  C   UNL     1      40.728 -15.635   2.556  1.00  0.00     0.030 A 
HETATM   30  C   UNL     1      41.400 -16.552   3.373  1.00  0.00     0.010 A 
HETATM   31  C   UNL     1      42.715 -16.942   3.092  1.00  0.00    -0.054 A 
HETATM   32  C   UNL     1      43.350 -16.376   1.980  1.00  0.00     0.010 A 
HETATM   33  C   UNL     1      42.683 -15.450   1.171  1.00  0.00     0.030 A 
BRANCH  31  34
HETATM   34  C   UNL     1      43.460 -17.945   3.959  1.00  0.00     0.014 C 
HETATM   35  C   UNL     1      44.316 -17.233   5.016  1.00  0.00     0.015 C 
BRANCH  34  36
HETATM   36  C   UNL     1      44.327 -18.915   3.133  1.00  0.00     0.004 C 
HETATM   37  C   UNL     1      43.516 -20.014   2.459  1.00  0.00     0.006 C 
ENDBRANCH  34  36
ENDBRANCH  31  34
ENDBRANCH  25  28
ENDBRANCH   1  24
TORSDOF 8
ENDMDL
