MODEL 1
REMARK VINA RESULT:      -8.2      0.000      0.000
REMARK  10 active torsions:
REMARK  status: ('A' for Active; 'I' for Inactive)
REMARK    1  A    between atoms: C_2  and  C_3 
REMARK    2  A    between atoms: C_3  and  C_4 
REMARK    3  A    between atoms: N_7  and  C_9 
REMARK    4  A    between atoms: C_9  and  C_10 
REMARK    5  A    between atoms: C_12  and  O_13 
REMARK    6  A    between atoms: O_13  and  C_14 
REMARK    7  A    between atoms: C_16  and  O_17 
REMARK    8  A    between atoms: N_25  and  C_26 
REMARK    9  A    between atoms: C_26  and  C_27 
REMARK   10  A    between atoms: C_27  and  C_28 
ROOT
HETATM    1  C   UNL     1      40.566 -13.903   3.512  1.00  0.00     0.026 C 
HETATM    2  C   UNL     1      40.159 -15.370   3.282  1.00  0.00     0.035 C 
HETATM    3  C   UNL     1      41.322 -16.316   2.989  1.00  0.00     0.235 C 
HETATM    4  N   UNL     1      42.174 -15.798   1.857  1.00  0.00    -0.067 N 
HETATM    5  H   UNL     1      41.594 -15.844   1.010  1.00  0.00     0.280 HD
HETATM    6  C   UNL     1      42.621 -14.367   2.037  1.00  0.00     0.235 C 
HETATM    7  C   UNL     1      41.438 -13.461   2.320  1.00  0.00     0.035 C 
ENDROOT
BRANCH   1   8
HETATM    8  C   UNL     1      41.150 -13.620   4.932  1.00  0.00     0.119 C 
HETATM    9  N   UNL     1      42.420 -14.287   5.167  1.00  0.00    -0.324 N 
HETATM   10  C   UNL     1      43.349 -13.420   5.705  1.00  0.00     0.326 C 
HETATM   11  H   UNL     1      42.487 -15.222   5.557  1.00  0.00     0.165 HD
HETATM   12  O   UNL     1      44.381 -13.810   6.219  1.00  0.00    -0.247 OA
HETATM   13  N   UNL     1      42.902 -12.148   5.564  1.00  0.00    -0.268 N 
HETATM   14  C   UNL     1      41.615 -12.152   5.101  1.00  0.00     0.256 C 
HETATM   15  O   UNL     1      40.919 -11.172   4.877  1.00  0.00    -0.270 OA
BRANCH   8  16
HETATM   16  C   UNL     1      40.207 -13.976   6.111  1.00  0.00     0.037 C 
HETATM   17  C   UNL     1      40.372 -15.372   6.697  1.00  0.00     0.008 C 
ENDBRANCH   8  16
BRANCH  13  18
HETATM   18  C   UNL     1      43.588 -10.979   6.093  1.00  0.00     0.142 C 
BRANCH  18  19
HETATM   19  C   UNL     1      43.523 -10.882   7.622  1.00  0.00     0.068 C 
BRANCH  19  20
HETATM   20  C   UNL     1      43.721  -9.474   8.085  1.00  0.00     0.010 A 
HETATM   21  S   UNL     1      42.379  -8.480   8.483  1.00  0.00    -0.085 SA
HETATM   22  C   UNL     1      43.456  -7.207   8.868  1.00  0.00     0.166 A 
HETATM   23  N   UNL     1      44.735  -7.470   8.722  1.00  0.00    -0.258 NA
HETATM   24  C   UNL     1      44.901  -8.768   8.268  1.00  0.00     0.044 A 
HETATM   25  C   UNL     1      46.287  -9.259   8.037  1.00  0.00     0.071 C 
ENDBRANCH  19  20
ENDBRANCH  18  19
ENDBRANCH  13  18
ENDBRANCH   1   8
BRANCH   4  26
HETATM   26  C   UNL     1      43.397 -16.664   1.577  1.00  0.00     0.273 C 
BRANCH  26  27
HETATM   27  C   UNL     1      43.555 -17.860   2.475  1.00  0.00    -0.030 A 
HETATM   28  C   UNL     1      43.773 -17.673   3.856  1.00  0.00     0.048 A 
HETATM   29  C   UNL     1      43.901 -18.767   4.711  1.00  0.00     0.102 A 
HETATM   30  C   UNL     1      43.807 -20.052   4.170  1.00  0.00     0.099 A 
HETATM   31  C   UNL     1      43.597 -20.258   2.812  1.00  0.00     0.040 A 
HETATM   32  C   UNL     1      43.470 -19.162   1.960  1.00  0.00     0.012 A 
BRANCH  29  33
HETATM   33  O   UNL     1      44.107 -18.717   6.063  1.00  0.00    -0.349 OA
BRANCH  33  34
HETATM   34  C   UNL     1      43.167 -17.980   6.845  1.00  0.00     0.171 C 
HETATM   35  C   UNL     1      43.912 -16.868   7.559  1.00  0.00     0.034 C 
ENDBRANCH  33  34
ENDBRANCH  29  33
BRANCH  30  36
HETATM   36  O   UNL     1      43.925 -21.151   4.972  1.00  0.00    -0.358 OA
HETATM   37  H   UNL     1      43.590 -20.881   5.850  1.00  0.00     0.218 HD
ENDBRANCH  30  36
ENDBRANCH  26  27
ENDBRANCH   4  26
TORSDOF 10
ENDMDL
MODEL 2
REMARK VINA RESULT:      -8.0      3.787      6.792
REMARK  10 active torsions:
REMARK  status: ('A' for Active; 'I' for Inactive)
REMARK    1  A    between atoms: C_2  and  C_3 
REMARK    2  A    between atoms: C_3  and  C_4 
REMARK    3  A    between atoms: N_7  and  C_9 
REMARK    4  A    between atoms: C_9  and  C_10 
REMARK    5  A    between atoms: C_12  and  O_13 
REMARK    6  A    between atoms: O_13  and  C_14 
REMARK    7  A    between atoms: C_16  and  O_17 
REMARK    8  A    between atoms: N_25  and  C_26 
REMARK    9  A    between atoms: C_26  and  C_27 
REMARK   10  A    between atoms: C_27  and  C_28 
ROOT
HETATM    1  C   UNL     1      40.917 -14.018   5.849  1.00  0.00     0.026 C 
HETATM    2  C   UNL     1      42.104 -13.543   6.706  1.00  0.00     0.035 C 
HETATM    3  C   UNL     1      43.218 -14.575   6.879  1.00  0.00     0.235 C 
HETATM    4  N   UNL     1      42.670 -15.890   7.378  1.00  0.00    -0.067 N 
HETATM    5  H   UNL     1      42.333 -15.722   8.334  1.00  0.00     0.280 HD
HETATM    6  C   UNL     1      41.513 -16.416   6.562  1.00  0.00     0.235 C 
HETATM    7  C   UNL     1      40.429 -15.364   6.419  1.00  0.00     0.035 C 
ENDROOT
BRANCH   1   8
HETATM    8  C   UNL     1      41.186 -13.981   4.312  1.00  0.00     0.119 C 
HETATM    9  N   UNL     1      40.677 -15.152   3.618  1.00  0.00    -0.324 N 
HETATM   10  C   UNL     1      39.963 -14.795   2.491  1.00  0.00     0.326 C 
HETATM   11  H   UNL     1      41.228 -15.993   3.480  1.00  0.00     0.165 HD
HETATM   12  O   UNL     1      39.672 -15.599   1.626  1.00  0.00    -0.247 OA
HETATM   13  N   UNL     1      39.690 -13.468   2.541  1.00  0.00    -0.268 N 
HETATM   14  C   UNL     1      40.354 -12.892   3.589  1.00  0.00     0.256 C 
HETATM   15  O   UNL     1      40.331 -11.711   3.904  1.00  0.00    -0.270 OA
BRANCH   8  16
HETATM   16  C   UNL     1      42.675 -13.807   3.913  1.00  0.00     0.037 C 
HETATM   17  C   UNL     1      42.974 -12.680   2.934  1.00  0.00     0.008 C 
ENDBRANCH   8  16
BRANCH  13  18
HETATM   18  C   UNL     1      39.024 -12.732   1.477  1.00  0.00     0.142 C 
BRANCH  18  19
HETATM   19  C   UNL     1      39.855 -12.647   0.192  1.00  0.00     0.068 C 
BRANCH  19  20
HETATM   20  C   UNL     1      39.048 -13.045  -1.003  1.00  0.00     0.010 A 
HETATM   21  S   UNL     1      39.371 -14.509  -1.837  1.00  0.00    -0.085 SA
HETATM   22  C   UNL     1      38.094 -14.157  -2.920  1.00  0.00     0.166 A 
HETATM   23  N   UNL     1      37.449 -13.033  -2.703  1.00  0.00    -0.258 NA
HETATM   24  C   UNL     1      37.990 -12.382  -1.608  1.00  0.00     0.044 A 
HETATM   25  C   UNL     1      37.395 -11.079  -1.201  1.00  0.00     0.071 C 
ENDBRANCH  19  20
ENDBRANCH  18  19
ENDBRANCH  13  18
ENDBRANCH   1   8
BRANCH   4  26
HETATM   26  C   UNL     1      43.728 -16.980   7.490  1.00  0.00     0.273 C 
BRANCH  26  27
HETATM   27  C   UNL     1      43.731 -17.989   6.375  1.00  0.00    -0.030 A 
HETATM   28  C   UNL     1      43.864 -17.555   5.040  1.00  0.00     0.048 A 
HETATM   29  C   UNL     1      43.892 -18.474   3.992  1.00  0.00     0.102 A 
HETATM   30  C   UNL     1      43.787 -19.834   4.293  1.00  0.00     0.099 A 
HETATM   31  C   UNL     1      43.651 -20.283   5.601  1.00  0.00     0.040 A 
HETATM   32  C   UNL     1      43.623 -19.362   6.647  1.00  0.00     0.012 A 
BRANCH  29  33
HETATM   33  O   UNL     1      44.023 -18.180   2.661  1.00  0.00    -0.349 OA
BRANCH  33  34
HETATM   34  C   UNL     1      42.925 -17.528   2.021  1.00  0.00     0.171 C 
HETATM   35  C   UNL     1      43.411 -16.193   1.487  1.00  0.00     0.034 C 
ENDBRANCH  33  34
ENDBRANCH  29  33
BRANCH  30  36
HETATM   36  O   UNL     1      43.811 -20.768   3.296  1.00  0.00    -0.358 OA
HETATM   37  H   UNL     1      43.789 -21.637   3.741  1.00  0.00     0.218 HD
ENDBRANCH  30  36
ENDBRANCH  26  27
ENDBRANCH   4  26
TORSDOF 10
ENDMDL
MODEL 3
REMARK VINA RESULT:      -8.0      3.338      8.372
REMARK  10 active torsions:
REMARK  status: ('A' for Active; 'I' for Inactive)
REMARK    1  A    between atoms: C_2  and  C_3 
REMARK    2  A    between atoms: C_3  and  C_4 
REMARK    3  A    between atoms: N_7  and  C_9 
REMARK    4  A    between atoms: C_9  and  C_10 
REMARK    5  A    between atoms: C_12  and  O_13 
REMARK    6  A    between atoms: O_13  and  C_14 
REMARK    7  A    between atoms: C_16  and  O_17 
REMARK    8  A    between atoms: N_25  and  C_26 
REMARK    9  A    between atoms: C_26  and  C_27 
REMARK   10  A    between atoms: C_27  and  C_28 
ROOT
HETATM    1  C   UNL     1      39.877 -11.006   5.551  1.00  0.00     0.026 C 
HETATM    2  C   UNL     1      40.442  -9.629   5.158  1.00  0.00     0.035 C 
HETATM    3  C   UNL     1      41.139  -8.879   6.292  1.00  0.00     0.235 C 
HETATM    4  N   UNL     1      40.251  -8.782   7.508  1.00  0.00    -0.067 N 
HETATM    5  H   UNL     1      39.466  -8.172   7.249  1.00  0.00     0.280 HD
HETATM    6  C   UNL     1      39.682 -10.108   7.953  1.00  0.00     0.235 C 
HETATM    7  C   UNL     1      38.995 -10.817   6.801  1.00  0.00     0.035 C 
ENDROOT
BRANCH   1   8
HETATM    8  C   UNL     1      40.952 -12.135   5.634  1.00  0.00     0.119 C 
HETATM    9  N   UNL     1      40.576 -13.212   6.535  1.00  0.00    -0.324 N 
HETATM   10  C   UNL     1      40.769 -14.446   5.948  1.00  0.00     0.326 C 
HETATM   11  H   UNL     1      40.809 -13.209   7.523  1.00  0.00     0.165 HD
HETATM   12  O   UNL     1      40.772 -15.478   6.593  1.00  0.00    -0.247 OA
HETATM   13  N   UNL     1      40.954 -14.280   4.615  1.00  0.00    -0.268 N 
HETATM   14  C   UNL     1      41.062 -12.948   4.320  1.00  0.00     0.256 C 
HETATM   15  O   UNL     1      41.243 -12.461   3.213  1.00  0.00    -0.270 OA
BRANCH   8  16
HETATM   16  C   UNL     1      42.372 -11.658   6.037  1.00  0.00     0.037 C 
HETATM   17  C   UNL     1      43.465 -11.874   4.999  1.00  0.00     0.008 C 
ENDBRANCH   8  16
BRANCH  13  18
HETATM   18  C   UNL     1      41.269 -15.361   3.694  1.00  0.00     0.142 C 
BRANCH  18  19
HETATM   19  C   UNL     1      42.762 -15.450   3.357  1.00  0.00     0.068 C 
BRANCH  19  20
HETATM   20  C   UNL     1      43.315 -16.796   3.698  1.00  0.00     0.010 A 
HETATM   21  S   UNL     1      43.226 -18.096   2.581  1.00  0.00    -0.085 SA
HETATM   22  C   UNL     1      44.026 -19.103   3.709  1.00  0.00     0.166 A 
HETATM   23  N   UNL     1      44.353 -18.541   4.851  1.00  0.00    -0.258 NA
HETATM   24  C   UNL     1      43.946 -17.218   4.860  1.00  0.00     0.044 A 
HETATM   25  C   UNL     1      44.224 -16.406   6.076  1.00  0.00     0.071 C 
ENDBRANCH  19  20
ENDBRANCH  18  19
ENDBRANCH  13  18
ENDBRANCH   1   8
BRANCH   4  26
HETATM   26  C   UNL     1      40.928  -8.113   8.698  1.00  0.00     0.273 C 
BRANCH  26  27
HETATM   27  C   UNL     1      41.814  -9.009   9.519  1.00  0.00    -0.030 A 
HETATM   28  C   UNL     1      43.004  -9.520   8.958  1.00  0.00     0.048 A 
HETATM   29  C   UNL     1      43.852 -10.334   9.707  1.00  0.00     0.102 A 
HETATM   30  C   UNL     1      43.499 -10.631  11.026  1.00  0.00     0.099 A 
HETATM   31  C   UNL     1      42.330 -10.141  11.596  1.00  0.00     0.040 A 
HETATM   32  C   UNL     1      41.484  -9.329  10.845  1.00  0.00     0.012 A 
BRANCH  29  33
HETATM   33  O   UNL     1      45.031 -10.884   9.281  1.00  0.00    -0.349 OA
BRANCH  33  34
HETATM   34  C   UNL     1      45.462 -10.570   7.956  1.00  0.00     0.171 C 
HETATM   35  C   UNL     1      46.372  -9.358   8.027  1.00  0.00     0.034 C 
ENDBRANCH  33  34
ENDBRANCH  29  33
BRANCH  30  36
HETATM   36  O   UNL     1      44.302 -11.424  11.796  1.00  0.00    -0.358 OA
HETATM   37  H   UNL     1      44.596 -12.154  11.215  1.00  0.00     0.218 HD
ENDBRANCH  30  36
ENDBRANCH  26  27
ENDBRANCH   4  26
TORSDOF 10
ENDMDL
MODEL 4
REMARK VINA RESULT:      -8.0      2.353      3.691
REMARK  10 active torsions:
REMARK  status: ('A' for Active; 'I' for Inactive)
REMARK    1  A    between atoms: C_2  and  C_3 
REMARK    2  A    between atoms: C_3  and  C_4 
REMARK    3  A    between atoms: N_7  and  C_9 
REMARK    4  A    between atoms: C_9  and  C_10 
REMARK    5  A    between atoms: C_12  and  O_13 
REMARK    6  A    between atoms: O_13  and  C_14 
REMARK    7  A    between atoms: C_16  and  O_17 
REMARK    8  A    between atoms: N_25  and  C_26 
REMARK    9  A    between atoms: C_26  and  C_27 
REMARK   10  A    between atoms: C_27  and  C_28 
ROOT
HETATM    1  C   UNL     1      42.861 -11.024   4.459  1.00  0.00     0.026 C 
HETATM    2  C   UNL     1      41.363 -11.185   4.146  1.00  0.00     0.035 C 
HETATM    3  C   UNL     1      40.891 -12.632   4.010  1.00  0.00     0.235 C 
HETATM    4  N   UNL     1      41.744 -13.391   3.023  1.00  0.00    -0.067 N 
HETATM    5  H   UNL     1      41.560 -12.980   2.100  1.00  0.00     0.280 HD
HETATM    6  C   UNL     1      43.226 -13.287   3.292  1.00  0.00     0.235 C 
HETATM    7  C   UNL     1      43.653 -11.836   3.415  1.00  0.00     0.035 C 
ENDROOT
BRANCH   1   8
HETATM    8  C   UNL     1      43.231 -11.283   5.954  1.00  0.00     0.119 C 
HETATM    9  N   UNL     1      44.654 -11.148   6.218  1.00  0.00    -0.324 N 
HETATM   10  C   UNL     1      44.884 -10.370   7.335  1.00  0.00     0.326 C 
HETATM   11  H   UNL     1      45.303 -11.925   6.143  1.00  0.00     0.165 HD
HETATM   12  O   UNL     1      45.966 -10.336   7.891  1.00  0.00    -0.247 OA
HETATM   13  N   UNL     1      43.742  -9.716   7.663  1.00  0.00    -0.268 N 
HETATM   14  C   UNL     1      42.704 -10.171   6.896  1.00  0.00     0.256 C 
HETATM   15  O   UNL     1      41.542  -9.797   6.949  1.00  0.00    -0.270 OA
BRANCH   8  16
HETATM   16  C   UNL     1      42.776 -12.657   6.512  1.00  0.00     0.037 C 
HETATM   17  C   UNL     1      43.884 -13.668   6.772  1.00  0.00     0.008 C 
ENDBRANCH   8  16
BRANCH  13  18
HETATM   18  C   UNL     1      43.595  -8.870   8.838  1.00  0.00     0.142 C 
BRANCH  18  19
HETATM   19  C   UNL     1      43.285  -9.661  10.114  1.00  0.00     0.068 C 
BRANCH  19  20
HETATM   20  C   UNL     1      42.133  -9.061  10.856  1.00  0.00     0.010 A 
HETATM   21  S   UNL     1      40.538  -9.147  10.229  1.00  0.00    -0.085 SA
HETATM   22  C   UNL     1      39.968  -8.302  11.604  1.00  0.00     0.166 A 
HETATM   23  N   UNL     1      40.877  -7.965  12.490  1.00  0.00    -0.258 NA
HETATM   24  C   UNL     1      42.126  -8.390  12.071  1.00  0.00     0.044 A 
HETATM   25  C   UNL     1      43.297  -8.099  12.943  1.00  0.00     0.071 C 
ENDBRANCH  19  20
ENDBRANCH  18  19
ENDBRANCH  13  18
ENDBRANCH   1   8
BRANCH   4  26
HETATM   26  C   UNL     1      41.368 -14.864   2.909  1.00  0.00     0.273 C 
BRANCH  26  27
HETATM   27  C   UNL     1      41.817 -15.731   4.053  1.00  0.00    -0.030 A 
HETATM   28  C   UNL     1      42.921 -16.594   3.883  1.00  0.00     0.048 A 
HETATM   29  C   UNL     1      43.368 -17.391   4.936  1.00  0.00     0.102 A 
HETATM   30  C   UNL     1      42.702 -17.315   6.162  1.00  0.00     0.099 A 
HETATM   31  C   UNL     1      41.611 -16.475   6.348  1.00  0.00     0.040 A 
HETATM   32  C   UNL     1      41.165 -15.680   5.294  1.00  0.00     0.012 A 
BRANCH  29  33
HETATM   33  O   UNL     1      44.426 -18.260   4.900  1.00  0.00    -0.349 OA
BRANCH  33  34
HETATM   34  C   UNL     1      44.256 -19.472   4.164  1.00  0.00     0.171 C 
HETATM   35  C   UNL     1      44.336 -20.633   5.136  1.00  0.00     0.034 C 
ENDBRANCH  33  34
ENDBRANCH  29  33
BRANCH  30  36
HETATM   36  O   UNL     1      43.110 -18.078   7.220  1.00  0.00    -0.358 OA
HETATM   37  H   UNL     1      44.023 -17.795   7.419  1.00  0.00     0.218 HD
ENDBRANCH  30  36
ENDBRANCH  26  27
ENDBRANCH   4  26
TORSDOF 10
ENDMDL
MODEL 5
REMARK VINA RESULT:      -8.0      3.128      8.331
REMARK  10 active torsions:
REMARK  status: ('A' for Active; 'I' for Inactive)
REMARK    1  A    between atoms: C_2  and  C_3 
REMARK    2  A    between atoms: C_3  and  C_4 
REMARK    3  A    between atoms: N_7  and  C_9 
REMARK    4  A    between atoms: C_9  and  C_10 
REMARK    5  A    between atoms: C_12  and  O_13 
REMARK    6  A    between atoms: O_13  and  C_14 
REMARK    7  A    between atoms: C_16  and  O_17 
REMARK    8  A    between atoms: N_25  and  C_26 
REMARK    9  A    between atoms: C_26  and  C_27 
REMARK   10  A    between atoms: C_27  and  C_28 
ROOT
HETATM    1  C   UNL     1      40.418 -13.431   4.015  1.00  0.00     0.026 C 
HETATM    2  C   UNL     1      40.368 -12.124   3.205  1.00  0.00     0.035 C 
HETATM    3  C   UNL     1      40.979 -10.913   3.908  1.00  0.00     0.235 C 
HETATM    4  N   UNL     1      40.391 -10.729   5.286  1.00  0.00    -0.067 N 
HETATM    5  H   UNL     1      39.406 -10.469   5.150  1.00  0.00     0.280 HD
HETATM    6  C   UNL     1      40.430 -11.976   6.136  1.00  0.00     0.235 C 
HETATM    7  C   UNL     1      39.810 -13.151   5.404  1.00  0.00     0.035 C 
ENDROOT
BRANCH   1   8
HETATM    8  C   UNL     1      41.813 -14.133   4.006  1.00  0.00     0.119 C 
HETATM    9  N   UNL     1      42.648 -13.752   5.134  1.00  0.00    -0.324 N 
HETATM   10  C   UNL     1      43.208 -14.860   5.738  1.00  0.00     0.326 C 
HETATM   11  H   UNL     1      43.282 -12.960   5.107  1.00  0.00     0.165 HD
HETATM   12  O   UNL     1      44.133 -14.773   6.523  1.00  0.00    -0.247 OA
HETATM   13  N   UNL     1      42.572 -15.974   5.299  1.00  0.00    -0.268 N 
HETATM   14  C   UNL     1      41.714 -15.654   4.282  1.00  0.00     0.256 C 
HETATM   15  O   UNL     1      41.000 -16.428   3.662  1.00  0.00    -0.270 OA
BRANCH   8  16
HETATM   16  C   UNL     1      42.644 -13.920   2.713  1.00  0.00     0.037 C 
HETATM   17  C   UNL     1      42.299 -14.833   1.544  1.00  0.00     0.008 C 
ENDBRANCH   8  16
BRANCH  13  18
HETATM   18  C   UNL     1      42.956 -17.329   5.663  1.00  0.00     0.142 C 
BRANCH  18  19
HETATM   19  C   UNL     1      44.243 -17.797   4.974  1.00  0.00     0.068 C 
BRANCH  19  20
HETATM   20  C   UNL     1      43.966 -18.889   3.991  1.00  0.00     0.010 A 
HETATM   21  S   UNL     1      43.548 -18.529   2.366  1.00  0.00    -0.085 SA
HETATM   22  C   UNL     1      43.440 -20.205   2.038  1.00  0.00     0.166 A 
HETATM   23  N   UNL     1      43.694 -21.007   3.047  1.00  0.00    -0.258 NA
HETATM   24  C   UNL     1      43.992 -20.264   4.177  1.00  0.00     0.044 A 
HETATM   25  C   UNL     1      44.307 -20.995   5.435  1.00  0.00     0.071 C 
ENDBRANCH  19  20
ENDBRANCH  18  19
ENDBRANCH  13  18
ENDBRANCH   1   8
BRANCH   4  26
HETATM   26  C   UNL     1      41.024  -9.582   6.064  1.00  0.00     0.273 C 
BRANCH  26  27
HETATM   27  C   UNL     1      42.253  -9.943   6.852  1.00  0.00    -0.030 A 
HETATM   28  C   UNL     1      42.295  -9.687   8.239  1.00  0.00     0.048 A 
HETATM   29  C   UNL     1      43.415 -10.033   8.992  1.00  0.00     0.102 A 
HETATM   30  C   UNL     1      44.494 -10.641   8.345  1.00  0.00     0.099 A 
HETATM   31  C   UNL     1      44.475 -10.899   6.980  1.00  0.00     0.040 A 
HETATM   32  C   UNL     1      43.354 -10.551   6.229  1.00  0.00     0.012 A 
BRANCH  29  33
HETATM   33  O   UNL     1      43.575  -9.844  10.339  1.00  0.00    -0.349 OA
BRANCH  33  34
HETATM   34  C   UNL     1      42.604  -9.039  11.009  1.00  0.00     0.171 C 
HETATM   35  C   UNL     1      43.301  -8.286  12.127  1.00  0.00     0.034 C 
ENDBRANCH  33  34
ENDBRANCH  29  33
BRANCH  30  36
HETATM   36  O   UNL     1      45.611 -10.997   9.047  1.00  0.00    -0.358 OA
HETATM   37  H   UNL     1      45.578 -10.491   9.882  1.00  0.00     0.218 HD
ENDBRANCH  30  36
ENDBRANCH  26  27
ENDBRANCH   4  26
TORSDOF 10
ENDMDL
MODEL 6
REMARK VINA RESULT:      -7.9      3.355      8.823
REMARK  10 active torsions:
REMARK  status: ('A' for Active; 'I' for Inactive)
REMARK    1  A    between atoms: C_2  and  C_3 
REMARK    2  A    between atoms: C_3  and  C_4 
REMARK    3  A    between atoms: N_7  and  C_9 
REMARK    4  A    between atoms: C_9  and  C_10 
REMARK    5  A    between atoms: C_12  and  O_13 
REMARK    6  A    between atoms: O_13  and  C_14 
REMARK    7  A    between atoms: C_16  and  O_17 
REMARK    8  A    between atoms: N_25  and  C_26 
REMARK    9  A    between atoms: C_26  and  C_27 
REMARK   10  A    between atoms: C_27  and  C_28 
ROOT
HETATM    1  C   UNL     1      40.195 -13.750   5.272  1.00  0.00     0.026 C 
HETATM    2  C   UNL     1      39.845 -12.276   5.539  1.00  0.00     0.035 C 
HETATM    3  C   UNL     1      41.051 -11.343   5.648  1.00  0.00     0.235 C 
HETATM    4  N   UNL     1      42.051 -11.862   6.652  1.00  0.00    -0.067 N 
HETATM    5  H   UNL     1      41.601 -11.797   7.573  1.00  0.00     0.280 HD
HETATM    6  C   UNL     1      42.448 -13.301   6.428  1.00  0.00     0.235 C 
HETATM    7  C   UNL     1      41.225 -14.192   6.331  1.00  0.00     0.035 C 
ENDROOT
BRANCH   1   8
HETATM    8  C   UNL     1      40.565 -14.058   3.786  1.00  0.00     0.119 C 
HETATM    9  N   UNL     1      41.896 -13.599   3.425  1.00  0.00    -0.324 N 
HETATM   10  C   UNL     1      42.600 -14.582   2.759  1.00  0.00     0.326 C 
HETATM   11  H   UNL     1      42.077 -12.671   3.057  1.00  0.00     0.165 HD
HETATM   12  O   UNL     1      43.620 -14.342   2.140  1.00  0.00    -0.247 OA
HETATM   13  N   UNL     1      41.962 -15.768   2.914  1.00  0.00    -0.268 N 
HETATM   14  C   UNL     1      40.753 -15.573   3.523  1.00  0.00     0.256 C 
HETATM   15  O   UNL     1      39.930 -16.434   3.798  1.00  0.00    -0.270 OA
BRANCH   8  16
HETATM   16  C   UNL     1      39.572 -13.496   2.735  1.00  0.00     0.037 C 
HETATM   17  C   UNL     1      40.067 -12.307   1.923  1.00  0.00     0.008 C 
ENDBRANCH   8  16
BRANCH  13  18
HETATM   18  C   UNL     1      42.378 -17.007   2.276  1.00  0.00     0.142 C 
BRANCH  18  19
HETATM   19  C   UNL     1      43.820 -17.404   2.612  1.00  0.00     0.068 C 
BRANCH  19  20
HETATM   20  C   UNL     1      43.860 -18.637   3.458  1.00  0.00     0.010 A 
HETATM   21  S   UNL     1      44.016 -18.532   5.164  1.00  0.00    -0.085 SA
HETATM   22  C   UNL     1      43.967 -20.240   5.259  1.00  0.00     0.166 A 
HETATM   23  N   UNL     1      43.843 -20.876   4.116  1.00  0.00    -0.258 NA
HETATM   24  C   UNL     1      43.786 -19.968   3.073  1.00  0.00     0.044 A 
HETATM   25  C   UNL     1      43.647 -20.496   1.688  1.00  0.00     0.071 C 
ENDBRANCH  19  20
ENDBRANCH  18  19
ENDBRANCH  13  18
ENDBRANCH   1   8
BRANCH   4  26
HETATM   26  C   UNL     1      43.313 -11.011   6.741  1.00  0.00     0.273 C 
BRANCH  26  27
HETATM   27  C   UNL     1      43.554 -10.360   8.075  1.00  0.00    -0.030 A 
HETATM   28  C   UNL     1      42.512  -9.645   8.703  1.00  0.00     0.048 A 
HETATM   29  C   UNL     1      42.707  -9.053   9.949  1.00  0.00     0.102 A 
HETATM   30  C   UNL     1      43.955  -9.183  10.564  1.00  0.00     0.099 A 
HETATM   31  C   UNL     1      44.996  -9.879   9.961  1.00  0.00     0.040 A 
HETATM   32  C   UNL     1      44.799 -10.470   8.715  1.00  0.00     0.012 A 
BRANCH  29  33
HETATM   33  O   UNL     1      41.778  -8.342  10.661  1.00  0.00    -0.349 OA
BRANCH  33  34
HETATM   34  C   UNL     1      40.567  -9.011  11.015  1.00  0.00     0.171 C 
HETATM   35  C   UNL     1      40.826  -9.834  12.263  1.00  0.00     0.034 C 
ENDBRANCH  33  34
ENDBRANCH  29  33
BRANCH  30  36
HETATM   36  O   UNL     1      44.187  -8.618  11.786  1.00  0.00    -0.358 OA
HETATM   37  H   UNL     1      43.710  -9.172  12.434  1.00  0.00     0.218 HD
ENDBRANCH  30  36
ENDBRANCH  26  27
ENDBRANCH   4  26
TORSDOF 10
ENDMDL
MODEL 7
REMARK VINA RESULT:      -7.9      4.046      8.584
REMARK  10 active torsions:
REMARK  status: ('A' for Active; 'I' for Inactive)
REMARK    1  A    between atoms: C_2  and  C_3 
REMARK    2  A    between atoms: C_3  and  C_4 
REMARK    3  A    between atoms: N_7  and  C_9 
REMARK    4  A    between atoms: C_9  and  C_10 
REMARK    5  A    between atoms: C_12  and  O_13 
REMARK    6  A    between atoms: O_13  and  C_14 
REMARK    7  A    between atoms: C_16  and  O_17 
REMARK    8  A    between atoms: N_25  and  C_26 
REMARK    9  A    between atoms: C_26  and  C_27 
REMARK   10  A    between atoms: C_27  and  C_28 
ROOT
HETATM    1  C   UNL     1      43.279 -12.332   4.633  1.00  0.00     0.026 C 
HETATM    2  C   UNL     1      42.896 -10.922   5.118  1.00  0.00     0.035 C 
HETATM    3  C   UNL     1      41.749 -10.272   4.345  1.00  0.00     0.235 C 
HETATM    4  N   UNL     1      42.014 -10.290   2.860  1.00  0.00    -0.067 N 
HETATM    5  H   UNL     1      42.812  -9.663   2.698  1.00  0.00     0.280 HD
HETATM    6  C   UNL     1      42.377 -11.653   2.322  1.00  0.00     0.235 C 
HETATM    7  C   UNL     1      43.521 -12.260   3.112  1.00  0.00     0.035 C 
ENDROOT
BRANCH   1   8
HETATM    8  C   UNL     1      42.314 -13.458   5.123  1.00  0.00     0.119 C 
HETATM    9  N   UNL     1      41.608 -14.113   4.034  1.00  0.00    -0.324 N 
HETATM   10  C   UNL     1      41.664 -15.487   4.156  1.00  0.00     0.326 C 
HETATM   11  H   UNL     1      40.712 -13.788   3.686  1.00  0.00     0.165 HD
HETATM   12  O   UNL     1      40.936 -16.225   3.520  1.00  0.00    -0.247 OA
HETATM   13  N   UNL     1      42.612 -15.812   5.069  1.00  0.00    -0.268 N 
HETATM   14  C   UNL     1      43.073 -14.684   5.690  1.00  0.00     0.256 C 
HETATM   15  O   UNL     1      43.921 -14.631   6.569  1.00  0.00    -0.270 OA
BRANCH   8  16
HETATM   16  C   UNL     1      41.258 -13.007   6.166  1.00  0.00     0.037 C 
HETATM   17  C   UNL     1      39.813 -13.002   5.688  1.00  0.00     0.008 C 
ENDBRANCH   8  16
BRANCH  13  18
HETATM   18  C   UNL     1      42.885 -17.171   5.511  1.00  0.00     0.142 C 
BRANCH  18  19
HETATM   19  C   UNL     1      44.190 -17.740   4.941  1.00  0.00     0.068 C 
BRANCH  19  20
HETATM   20  C   UNL     1      43.921 -18.843   3.968  1.00  0.00     0.010 A 
HETATM   21  S   UNL     1      43.447 -18.500   2.355  1.00  0.00    -0.085 SA
HETATM   22  C   UNL     1      43.384 -20.179   2.032  1.00  0.00     0.166 A 
HETATM   23  N   UNL     1      43.691 -20.970   3.035  1.00  0.00    -0.258 NA
HETATM   24  C   UNL     1      43.996 -20.216   4.155  1.00  0.00     0.044 A 
HETATM   25  C   UNL     1      44.369 -20.933   5.405  1.00  0.00     0.071 C 
ENDBRANCH  19  20
ENDBRANCH  18  19
ENDBRANCH  13  18
ENDBRANCH   1   8
BRANCH   4  26
HETATM   26  C   UNL     1      40.864  -9.726   2.034  1.00  0.00     0.273 C 
BRANCH  26  27
HETATM   27  C   UNL     1      40.913 -10.042   0.565  1.00  0.00    -0.030 A 
HETATM   28  C   UNL     1      40.156 -11.119   0.055  1.00  0.00     0.048 A 
HETATM   29  C   UNL     1      40.169 -11.416  -1.306  1.00  0.00     0.102 A 
HETATM   30  C   UNL     1      40.947 -10.625  -2.156  1.00  0.00     0.099 A 
HETATM   31  C   UNL     1      41.703  -9.562  -1.674  1.00  0.00     0.040 A 
HETATM   32  C   UNL     1      41.689  -9.268  -0.312  1.00  0.00     0.012 A 
BRANCH  29  33
HETATM   33  O   UNL     1      39.477 -12.424  -1.921  1.00  0.00    -0.349 OA
BRANCH  33  34
HETATM   34  C   UNL     1      39.916 -13.763  -1.685  1.00  0.00     0.171 C 
HETATM   35  C   UNL     1      38.943 -14.709  -2.362  1.00  0.00     0.034 C 
ENDBRANCH  33  34
ENDBRANCH  29  33
BRANCH  30  36
HETATM   36  O   UNL     1      40.987 -10.881  -3.497  1.00  0.00    -0.358 OA
HETATM   37  H   UNL     1      40.274 -11.526  -3.669  1.00  0.00     0.218 HD
ENDBRANCH  30  36
ENDBRANCH  26  27
ENDBRANCH   4  26
TORSDOF 10
ENDMDL
MODEL 8
REMARK VINA RESULT:      -7.7      3.558      8.911
REMARK  10 active torsions:
REMARK  status: ('A' for Active; 'I' for Inactive)
REMARK    1  A    between atoms: C_2  and  C_3 
REMARK    2  A    between atoms: C_3  and  C_4 
REMARK    3  A    between atoms: N_7  and  C_9 
REMARK    4  A    between atoms: C_9  and  C_10 
REMARK    5  A    between atoms: C_12  and  O_13 
REMARK    6  A    between atoms: O_13  and  C_14 
REMARK    7  A    between atoms: C_16  and  O_17 
REMARK    8  A    between atoms: N_25  and  C_26 
REMARK    9  A    between atoms: C_26  and  C_27 
REMARK   10  A    between atoms: C_27  and  C_28 
ROOT
HETATM    1  C   UNL     1      43.085 -12.394   4.390  1.00  0.00     0.026 C 
HETATM    2  C   UNL     1      43.839 -11.592   5.465  1.00  0.00     0.035 C 
HETATM    3  C   UNL     1      42.997 -10.537   6.183  1.00  0.00     0.235 C 
HETATM    4  N   UNL     1      42.311  -9.625   5.196  1.00  0.00    -0.067 N 
HETATM    5  H   UNL     1      43.052  -9.082   4.735  1.00  0.00     0.280 HD
HETATM    6  C   UNL     1      41.537 -10.357   4.126  1.00  0.00     0.235 C 
HETATM    7  C   UNL     1      42.409 -11.388   3.436  1.00  0.00     0.035 C 
ENDROOT
BRANCH   1   8
HETATM    8  C   UNL     1      42.167 -13.520   4.963  1.00  0.00     0.119 C 
HETATM    9  N   UNL     1      41.424 -14.225   3.932  1.00  0.00    -0.324 N 
HETATM   10  C   UNL     1      41.514 -15.593   4.098  1.00  0.00     0.326 C 
HETATM   11  H   UNL     1      40.506 -13.930   3.615  1.00  0.00     0.165 HD
HETATM   12  O   UNL     1      40.772 -16.367   3.521  1.00  0.00    -0.247 OA
HETATM   13  N   UNL     1      42.509 -15.869   4.975  1.00  0.00    -0.268 N 
HETATM   14  C   UNL     1      42.976 -14.711   5.534  1.00  0.00     0.256 C 
HETATM   15  O   UNL     1      43.863 -14.612   6.370  1.00  0.00    -0.270 OA
BRANCH   8  16
HETATM   16  C   UNL     1      41.152 -13.053   6.039  1.00  0.00     0.037 C 
HETATM   17  C   UNL     1      39.693 -13.021   5.606  1.00  0.00     0.008 C 
ENDBRANCH   8  16
BRANCH  13  18
HETATM   18  C   UNL     1      42.831 -17.206   5.449  1.00  0.00     0.142 C 
BRANCH  18  19
HETATM   19  C   UNL     1      44.146 -17.749   4.879  1.00  0.00     0.068 C 
BRANCH  19  20
HETATM   20  C   UNL     1      43.900 -18.867   3.917  1.00  0.00     0.010 A 
HETATM   21  S   UNL     1      43.429 -18.551   2.297  1.00  0.00    -0.085 SA
HETATM   22  C   UNL     1      43.394 -20.234   1.994  1.00  0.00     0.166 A 
HETATM   23  N   UNL     1      43.707 -21.009   3.008  1.00  0.00    -0.258 NA
HETATM   24  C   UNL     1      43.995 -20.237   4.121  1.00  0.00     0.044 A 
HETATM   25  C   UNL     1      44.372 -20.933   5.381  1.00  0.00     0.071 C 
ENDBRANCH  19  20
ENDBRANCH  18  19
ENDBRANCH  13  18
ENDBRANCH   1   8
BRANCH   4  26
HETATM   26  C   UNL     1      41.392  -8.604   5.856  1.00  0.00     0.273 C 
BRANCH  26  27
HETATM   27  C   UNL     1      40.818  -9.020   7.183  1.00  0.00    -0.030 A 
HETATM   28  C   UNL     1      41.459  -8.625   8.376  1.00  0.00     0.048 A 
HETATM   29  C   UNL     1      40.933  -8.980   9.617  1.00  0.00     0.102 A 
HETATM   30  C   UNL     1      39.757  -9.735   9.653  1.00  0.00     0.099 A 
HETATM   31  C   UNL     1      39.113 -10.138   8.490  1.00  0.00     0.040 A 
HETATM   32  C   UNL     1      39.642  -9.782   7.250  1.00  0.00     0.012 A 
BRANCH  29  33
HETATM   33  O   UNL     1      41.454  -8.654  10.840  1.00  0.00    -0.349 OA
BRANCH  33  34
HETATM   34  C   UNL     1      42.623  -9.356  11.265  1.00  0.00     0.171 C 
HETATM   35  C   UNL     1      43.378  -8.474  12.242  1.00  0.00     0.034 C 
ENDBRANCH  33  34
ENDBRANCH  29  33
BRANCH  30  36
HETATM   36  O   UNL     1      39.208 -10.103  10.849  1.00  0.00    -0.358 OA
HETATM   37  H   UNL     1      38.302  -9.736  10.853  1.00  0.00     0.218 HD
ENDBRANCH  30  36
ENDBRANCH  26  27
ENDBRANCH   4  26
TORSDOF 10
ENDMDL
MODEL 9
REMARK VINA RESULT:      -7.7      5.136      7.658
REMARK  10 active torsions:
REMARK  status: ('A' for Active; 'I' for Inactive)
REMARK    1  A    between atoms: C_2  and  C_3 
REMARK    2  A    between atoms: C_3  and  C_4 
REMARK    3  A    between atoms: N_7  and  C_9 
REMARK    4  A    between atoms: C_9  and  C_10 
REMARK    5  A    between atoms: C_12  and  O_13 
REMARK    6  A    between atoms: O_13  and  C_14 
REMARK    7  A    between atoms: C_16  and  O_17 
REMARK    8  A    between atoms: N_25  and  C_26 
REMARK    9  A    between atoms: C_26  and  C_27 
REMARK   10  A    between atoms: C_27  and  C_28 
ROOT
HETATM    1  C   UNL     1      40.649 -12.938   1.898  1.00  0.00     0.026 C 
HETATM    2  C   UNL     1      42.104 -12.961   2.399  1.00  0.00     0.035 C 
HETATM    3  C   UNL     1      42.929 -14.150   1.907  1.00  0.00     0.235 C 
HETATM    4  N   UNL     1      42.227 -15.455   2.194  1.00  0.00    -0.067 N 
HETATM    5  H   UNL     1      42.217 -15.562   3.216  1.00  0.00     0.280 HD
HETATM    6  C   UNL     1      40.799 -15.498   1.707  1.00  0.00     0.235 C 
HETATM    7  C   UNL     1      40.015 -14.306   2.221  1.00  0.00     0.035 C 
ENDROOT
BRANCH   1   8
HETATM    8  C   UNL     1      40.489 -12.437   0.428  1.00  0.00     0.119 C 
HETATM    9  N   UNL     1      40.897 -13.427  -0.556  1.00  0.00    -0.324 N 
HETATM   10  C   UNL     1      39.952 -13.558  -1.554  1.00  0.00     0.326 C 
HETATM   11  H   UNL     1      41.847 -13.495  -0.906  1.00  0.00     0.165 HD
HETATM   12  O   UNL     1      40.193 -14.124  -2.604  1.00  0.00    -0.247 OA
HETATM   13  N   UNL     1      38.801 -12.962  -1.158  1.00  0.00    -0.268 N 
HETATM   14  C   UNL     1      39.005 -12.282   0.012  1.00  0.00     0.256 C 
HETATM   15  O   UNL     1      38.174 -11.630   0.628  1.00  0.00    -0.270 OA
BRANCH   8  16
HETATM   16  C   UNL     1      41.232 -11.115   0.102  1.00  0.00     0.037 C 
HETATM   17  C   UNL     1      41.058 -10.587  -1.315  1.00  0.00     0.008 C 
ENDBRANCH   8  16
BRANCH  13  18
HETATM   18  C   UNL     1      37.618 -12.836  -1.994  1.00  0.00     0.142 C 
BRANCH  18  19
HETATM   19  C   UNL     1      37.600 -11.545  -2.822  1.00  0.00     0.068 C 
BRANCH  19  20
HETATM   20  C   UNL     1      36.246 -10.911  -2.808  1.00  0.00     0.010 A 
HETATM   21  S   UNL     1      34.988 -11.495  -3.819  1.00  0.00    -0.085 SA
HETATM   22  C   UNL     1      33.941 -10.301  -3.182  1.00  0.00     0.166 A 
HETATM   23  N   UNL     1      34.461  -9.504  -2.275  1.00  0.00    -0.258 NA
HETATM   24  C   UNL     1      35.785  -9.840  -2.055  1.00  0.00     0.044 A 
HETATM   25  C   UNL     1      36.555  -9.047  -1.057  1.00  0.00     0.071 C 
ENDBRANCH  19  20
ENDBRANCH  18  19
ENDBRANCH  13  18
ENDBRANCH   1   8
BRANCH   4  26
HETATM   26  C   UNL     1      42.969 -16.670   1.651  1.00  0.00     0.273 C 
BRANCH  26  27
HETATM   27  C   UNL     1      43.341 -17.706   2.676  1.00  0.00    -0.030 A 
HETATM   28  C   UNL     1      43.450 -17.338   4.034  1.00  0.00     0.048 A 
HETATM   29  C   UNL     1      43.771 -18.285   5.004  1.00  0.00     0.102 A 
HETATM   30  C   UNL     1      43.981 -19.607   4.604  1.00  0.00     0.099 A 
HETATM   31  C   UNL     1      43.882 -19.990   3.271  1.00  0.00     0.040 A 
HETATM   32  C   UNL     1      43.562 -19.041   2.303  1.00  0.00     0.012 A 
BRANCH  29  33
HETATM   33  O   UNL     1      43.900 -18.056   6.348  1.00  0.00    -0.349 OA
BRANCH  33  34
HETATM   34  C   UNL     1      44.243 -16.732   6.759  1.00  0.00     0.171 C 
HETATM   35  C   UNL     1      43.065 -16.149   7.515  1.00  0.00     0.034 C 
ENDBRANCH  33  34
ENDBRANCH  29  33
BRANCH  30  36
HETATM   36  O   UNL     1      44.296 -20.568   5.523  1.00  0.00    -0.358 OA
HETATM   37  H   UNL     1      45.055 -20.217   6.029  1.00  0.00     0.218 HD
ENDBRANCH  30  36
ENDBRANCH  26  27
ENDBRANCH   4  26
TORSDOF 10
ENDMDL
MODEL 10
REMARK VINA RESULT:      -7.7      3.997      9.132
REMARK  10 active torsions:
REMARK  status: ('A' for Active; 'I' for Inactive)
REMARK    1  A    between atoms: C_2  and  C_3 
REMARK    2  A    between atoms: C_3  and  C_4 
REMARK    3  A    between atoms: N_7  and  C_9 
REMARK    4  A    between atoms: C_9  and  C_10 
REMARK    5  A    between atoms: C_12  and  O_13 
REMARK    6  A    between atoms: O_13  and  C_14 
REMARK    7  A    between atoms: C_16  and  O_17 
REMARK    8  A    between atoms: N_25  and  C_26 
REMARK    9  A    between atoms: C_26  and  C_27 
REMARK   10  A    between atoms: C_27  and  C_28 
ROOT
HETATM    1  C   UNL     1      41.343 -13.617   5.301  1.00  0.00     0.026 C 
HETATM    2  C   UNL     1      40.759 -12.347   5.944  1.00  0.00     0.035 C 
HETATM    3  C   UNL     1      41.792 -11.274   6.287  1.00  0.00     0.235 C 
HETATM    4  N   UNL     1      42.915 -11.845   7.117  1.00  0.00    -0.067 N 
HETATM    5  H   UNL     1      42.507 -12.099   8.025  1.00  0.00     0.280 HD
HETATM    6  C   UNL     1      43.541 -13.084   6.525  1.00  0.00     0.235 C 
HETATM    7  C   UNL     1      42.484 -14.124   6.204  1.00  0.00     0.035 C 
ENDROOT
BRANCH   1   8
HETATM    8  C   UNL     1      41.684 -13.464   3.785  1.00  0.00     0.119 C 
HETATM    9  N   UNL     1      42.629 -14.463   3.312  1.00  0.00    -0.324 N 
HETATM   10  C   UNL     1      42.200 -15.039   2.133  1.00  0.00     0.326 C 
HETATM   11  H   UNL     1      43.634 -14.323   3.335  1.00  0.00     0.165 HD
HETATM   12  O   UNL     1      42.939 -15.699   1.427  1.00  0.00    -0.247 OA
HETATM   13  N   UNL     1      40.895 -14.730   1.937  1.00  0.00    -0.268 N 
HETATM   14  C   UNL     1      40.485 -13.815   2.869  1.00  0.00     0.256 C 
HETATM   15  O   UNL     1      39.370 -13.322   2.962  1.00  0.00    -0.270 OA
BRANCH   8  16
HETATM   16  C   UNL     1      42.226 -12.070   3.374  1.00  0.00     0.037 C 
HETATM   17  C   UNL     1      43.741 -11.945   3.291  1.00  0.00     0.008 C 
ENDBRANCH   8  16
BRANCH  13  18
HETATM   18  C   UNL     1      40.138 -15.100   0.752  1.00  0.00     0.142 C 
BRANCH  18  19
HETATM   19  C   UNL     1      40.514 -14.277  -0.486  1.00  0.00     0.068 C 
BRANCH  19  20
HETATM   20  C   UNL     1      39.332 -13.535  -1.023  1.00  0.00     0.010 A 
HETATM   21  S   UNL     1      38.851 -12.033  -0.346  1.00  0.00    -0.085 SA
HETATM   22  C   UNL     1      37.571 -11.948  -1.478  1.00  0.00     0.166 A 
HETATM   23  N   UNL     1      37.480 -12.954  -2.320  1.00  0.00    -0.258 NA
HETATM   24  C   UNL     1      38.482 -13.874  -2.066  1.00  0.00     0.044 A 
HETATM   25  C   UNL     1      38.547 -15.095  -2.916  1.00  0.00     0.071 C 
ENDBRANCH  19  20
ENDBRANCH  18  19
ENDBRANCH  13  18
ENDBRANCH   1   8
BRANCH   4  26
HETATM   26  C   UNL     1      44.016 -10.834   7.419  1.00  0.00     0.273 C 
BRANCH  26  27
HETATM   27  C   UNL     1      43.917 -10.160   8.760  1.00  0.00    -0.030 A 
HETATM   28  C   UNL     1      42.668  -9.686   9.214  1.00  0.00     0.048 A 
HETATM   29  C   UNL     1      42.549  -9.078  10.462  1.00  0.00     0.102 A 
HETATM   30  C   UNL     1      43.692  -8.949  11.255  1.00  0.00     0.099 A 
HETATM   31  C   UNL     1      44.933  -9.405  10.825  1.00  0.00     0.040 A 
HETATM   32  C   UNL     1      45.049 -10.012   9.576  1.00  0.00     0.012 A 
BRANCH  29  33
HETATM   33  O   UNL     1      41.398  -8.586  11.016  1.00  0.00    -0.349 OA
BRANCH  33  34
HETATM   34  C   UNL     1      40.227  -9.400  10.933  1.00  0.00     0.171 C 
HETATM   35  C   UNL     1      40.002 -10.047  12.286  1.00  0.00     0.034 C 
ENDBRANCH  33  34
ENDBRANCH  29  33
BRANCH  30  36
HETATM   36  O   UNL     1      43.619  -8.360  12.485  1.00  0.00    -0.358 OA
HETATM   37  H   UNL     1      44.400  -7.776  12.551  1.00  0.00     0.218 HD
ENDBRANCH  30  36
ENDBRANCH  26  27
ENDBRANCH   4  26
TORSDOF 10
ENDMDL
