MODEL 1
REMARK VINA RESULT:      -7.3      0.000      0.000
REMARK  7 active torsions:
REMARK  status: ('A' for Active; 'I' for Inactive)
REMARK    1  A    between atoms: O_2  and  C_3 
REMARK    2  A    between atoms: C_4  and  C_5 
REMARK    3  A    between atoms: C_6  and  C_7 
REMARK       I    between atoms: C_7  and  N_8 
REMARK    4  A    between atoms: N_8  and  C_9 
REMARK    5  A    between atoms: C_9  and  C_10 
REMARK    6  A    between atoms: C_10  and  N_11 
REMARK    7  A    between atoms: C_10  and  C_18 
ROOT
HETATM    1  C   UNL     1      41.014 -14.671   6.379  1.00  0.00     0.241 C 
HETATM    2  N   UNL     1      42.305 -14.753   6.820  1.00  0.00    -0.355 N 
HETATM    3  O   UNL     1      40.431 -13.606   6.212  1.00  0.00    -0.269 OA
HETATM    4  H   UNL     1      42.676 -15.687   6.989  1.00  0.00     0.162 HD
ENDROOT
BRANCH   2   5
HETATM    5  C   UNL     1      43.073 -13.608   7.300  1.00  0.00     0.163 C 
BRANCH   5   6
HETATM    6  C   UNL     1      43.885 -12.844   6.206  1.00  0.00     0.262 C 
BRANCH   6   7
HETATM    7  N   UNL     1      42.971 -12.203   5.153  1.00  0.00    -0.059 N 
HETATM    8  H   UNL     1      42.122 -12.804   5.150  1.00  0.00     0.280 HD
HETATM    9  C   UNL     1      42.461 -10.824   5.490  1.00  0.00     0.236 C 
HETATM   10  C   UNL     1      41.385 -10.425   4.489  1.00  0.00     0.028 C 
HETATM   11  C   UNL     1      41.902 -10.494   3.055  1.00  0.00     0.003 C 
HETATM   12  C   UNL     1      42.492 -11.866   2.749  1.00  0.00     0.028 C 
HETATM   13  C   UNL     1      43.550 -12.271   3.767  1.00  0.00     0.236 C 
ENDBRANCH   6   7
BRANCH   6  14
HETATM   14  C   UNL     1      44.850 -11.883   6.824  1.00  0.00     0.085 A 
HETATM   15  O   UNL     1      44.610 -11.516   8.117  1.00  0.00    -0.325 OA
HETATM   16  C   UNL     1      45.594 -10.655   8.479  1.00  0.00     0.142 A 
HETATM   17  C   UNL     1      46.468 -10.461   7.436  1.00  0.00     0.027 A 
HETATM   18  C   UNL     1      45.990 -11.256   6.364  1.00  0.00     0.037 A 
ENDBRANCH   6  14
ENDBRANCH   5   6
ENDBRANCH   2   5
BRANCH   1  19
HETATM   19  C   UNL     1      40.358 -15.969   6.139  1.00  0.00     0.075 C 
HETATM   20  C   UNL     1      40.486 -16.666   4.999  1.00  0.00     0.020 C 
BRANCH  20  21
HETATM   21  C   UNL     1      41.240 -16.221   3.818  1.00  0.00    -0.001 A 
HETATM   22  C   UNL     1      42.634 -16.397   3.722  1.00  0.00     0.078 A 
HETATM   23  C   UNL     1      43.304 -15.958   2.575  1.00  0.00     0.039 A 
HETATM   24  C   UNL     1      42.596 -15.347   1.534  1.00  0.00     0.022 A 
HETATM   25  C   UNL     1      41.219 -15.169   1.641  1.00  0.00     0.012 A 
HETATM   26  C   UNL     1      40.537 -15.606   2.773  1.00  0.00     0.033 A 
HETATM   27 BR   UNL     1      40.272 -14.305   0.254  1.00  0.00    -0.051 Br
BRANCH  22  28
HETATM   28  O   UNL     1      43.258 -16.942   4.815  1.00  0.00    -0.355 OA
HETATM   29  C   UNL     1      44.009 -18.132   4.589  1.00  0.00     0.210 C 
ENDBRANCH  22  28
ENDBRANCH  20  21
ENDBRANCH   1  19
TORSDOF 7
ENDMDL
MODEL 2
REMARK VINA RESULT:      -7.1      2.015      3.955
REMARK  7 active torsions:
REMARK  status: ('A' for Active; 'I' for Inactive)
REMARK    1  A    between atoms: O_2  and  C_3 
REMARK    2  A    between atoms: C_4  and  C_5 
REMARK    3  A    between atoms: C_6  and  C_7 
REMARK       I    between atoms: C_7  and  N_8 
REMARK    4  A    between atoms: N_8  and  C_9 
REMARK    5  A    between atoms: C_9  and  C_10 
REMARK    6  A    between atoms: C_10  and  N_11 
REMARK    7  A    between atoms: C_10  and  C_18 
ROOT
HETATM    1  C   UNL     1      42.005 -15.081   6.960  1.00  0.00     0.241 C 
HETATM    2  N   UNL     1      41.981 -13.734   6.737  1.00  0.00    -0.355 N 
HETATM    3  O   UNL     1      42.988 -15.670   7.395  1.00  0.00    -0.269 OA
HETATM    4  H   UNL     1      41.137 -13.352   6.311  1.00  0.00     0.162 HD
ENDROOT
BRANCH   2   5
HETATM    5  C   UNL     1      43.158 -12.875   6.825  1.00  0.00     0.163 C 
BRANCH   5   6
HETATM    6  C   UNL     1      42.919 -11.376   6.455  1.00  0.00     0.262 C 
BRANCH   6   7
HETATM    7  N   UNL     1      43.998 -10.458   7.042  1.00  0.00    -0.059 N 
HETATM    8  H   UNL     1      44.251  -9.824   6.257  1.00  0.00     0.280 HD
HETATM    9  C   UNL     1      43.536  -9.536   8.143  1.00  0.00     0.236 C 
HETATM   10  C   UNL     1      44.634  -8.526   8.450  1.00  0.00     0.028 C 
HETATM   11  C   UNL     1      45.944  -9.218   8.814  1.00  0.00     0.003 C 
HETATM   12  C   UNL     1      46.361 -10.211   7.735  1.00  0.00     0.028 C 
HETATM   13  C   UNL     1      45.250 -11.202   7.414  1.00  0.00     0.236 C 
ENDBRANCH   6   7
BRANCH   6  14
HETATM   14  C   UNL     1      42.729 -11.210   4.980  1.00  0.00     0.085 A 
HETATM   15  O   UNL     1      41.731 -10.368   4.580  1.00  0.00    -0.325 OA
HETATM   16  C   UNL     1      41.734 -10.360   3.223  1.00  0.00     0.142 A 
HETATM   17  C   UNL     1      42.722 -11.186   2.742  1.00  0.00     0.027 A 
HETATM   18  C   UNL     1      43.368 -11.736   3.876  1.00  0.00     0.037 A 
ENDBRANCH   6  14
ENDBRANCH   5   6
ENDBRANCH   2   5
BRANCH   1  19
HETATM   19  C   UNL     1      40.759 -15.789   6.615  1.00  0.00     0.075 C 
HETATM   20  C   UNL     1      40.525 -16.339   5.414  1.00  0.00     0.020 C 
BRANCH  20  21
HETATM   21  C   UNL     1      41.437 -16.270   4.263  1.00  0.00    -0.001 A 
HETATM   22  C   UNL     1      41.529 -15.115   3.463  1.00  0.00     0.078 A 
HETATM   23  C   UNL     1      42.416 -15.099   2.380  1.00  0.00     0.039 A 
HETATM   24  C   UNL     1      43.200 -16.222   2.093  1.00  0.00     0.022 A 
HETATM   25  C   UNL     1      43.095 -17.363   2.884  1.00  0.00     0.012 A 
HETATM   26  C   UNL     1      42.223 -17.392   3.969  1.00  0.00     0.033 A 
HETATM   27 BR   UNL     1      44.122 -18.893   2.469  1.00  0.00    -0.051 Br
BRANCH  22  28
HETATM   28  O   UNL     1      40.677 -14.086   3.773  1.00  0.00    -0.355 OA
HETATM   29  C   UNL     1      39.843 -13.613   2.718  1.00  0.00     0.210 C 
ENDBRANCH  22  28
ENDBRANCH  20  21
ENDBRANCH   1  19
TORSDOF 7
ENDMDL
MODEL 3
REMARK VINA RESULT:      -7.1      1.683      3.477
REMARK  7 active torsions:
REMARK  status: ('A' for Active; 'I' for Inactive)
REMARK    1  A    between atoms: O_2  and  C_3 
REMARK    2  A    between atoms: C_4  and  C_5 
REMARK    3  A    between atoms: C_6  and  C_7 
REMARK       I    between atoms: C_7  and  N_8 
REMARK    4  A    between atoms: N_8  and  C_9 
REMARK    5  A    between atoms: C_9  and  C_10 
REMARK    6  A    between atoms: C_10  and  N_11 
REMARK    7  A    between atoms: C_10  and  C_18 
ROOT
HETATM    1  C   UNL     1      43.490 -15.394   6.798  1.00  0.00     0.241 C 
HETATM    2  N   UNL     1      43.130 -14.102   7.059  1.00  0.00    -0.355 N 
HETATM    3  O   UNL     1      44.632 -15.723   6.501  1.00  0.00    -0.269 OA
HETATM    4  H   UNL     1      42.141 -13.925   7.232  1.00  0.00     0.162 HD
ENDROOT
BRANCH   2   5
HETATM    5  C   UNL     1      44.010 -12.956   6.853  1.00  0.00     0.163 C 
BRANCH   5   6
HETATM    6  C   UNL     1      43.287 -11.608   6.537  1.00  0.00     0.262 C 
BRANCH   6   7
HETATM    7  N   UNL     1      44.021 -10.405   7.142  1.00  0.00    -0.059 N 
HETATM    8  H   UNL     1      44.153  -9.755   6.341  1.00  0.00     0.280 HD
HETATM    9  C   UNL     1      43.235  -9.608   8.154  1.00  0.00     0.236 C 
HETATM   10  C   UNL     1      43.986  -8.322   8.476  1.00  0.00     0.028 C 
HETATM   11  C   UNL     1      45.401  -8.608   8.968  1.00  0.00     0.003 C 
HETATM   12  C   UNL     1      46.161  -9.485   7.978  1.00  0.00     0.028 C 
HETATM   13  C   UNL     1      45.395 -10.757   7.641  1.00  0.00     0.236 C 
ENDBRANCH   6   7
BRANCH   6  14
HETATM   14  C   UNL     1      43.019 -11.471   5.072  1.00  0.00     0.085 A 
HETATM   15  O   UNL     1      42.194 -10.453   4.690  1.00  0.00    -0.325 OA
HETATM   16  C   UNL     1      42.090 -10.506   3.338  1.00  0.00     0.142 A 
HETATM   17  C   UNL     1      42.838 -11.547   2.842  1.00  0.00     0.027 A 
HETATM   18  C   UNL     1      43.442 -12.172   3.961  1.00  0.00     0.037 A 
ENDBRANCH   6  14
ENDBRANCH   5   6
ENDBRANCH   2   5
BRANCH   1  19
HETATM   19  C   UNL     1      42.389 -16.371   6.876  1.00  0.00     0.075 C 
HETATM   20  C   UNL     1      41.712 -16.815   5.805  1.00  0.00     0.020 C 
BRANCH  20  21
HETATM   21  C   UNL     1      41.924 -16.357   4.425  1.00  0.00    -0.001 A 
HETATM   22  C   UNL     1      42.975 -16.861   3.633  1.00  0.00     0.078 A 
HETATM   23  C   UNL     1      43.131 -16.395   2.323  1.00  0.00     0.039 A 
HETATM   24  C   UNL     1      42.255 -15.435   1.805  1.00  0.00     0.022 A 
HETATM   25  C   UNL     1      41.225 -14.936   2.598  1.00  0.00     0.012 A 
HETATM   26  C   UNL     1      41.052 -15.394   3.901  1.00  0.00     0.033 A 
HETATM   27 BR   UNL     1      40.069 -13.608   1.912  1.00  0.00    -0.051 Br
BRANCH  22  28
HETATM   28  O   UNL     1      43.827 -17.747   4.240  1.00  0.00    -0.355 OA
HETATM   29  C   UNL     1      44.029 -18.991   3.574  1.00  0.00     0.210 C 
ENDBRANCH  22  28
ENDBRANCH  20  21
ENDBRANCH   1  19
TORSDOF 7
ENDMDL
MODEL 4
REMARK VINA RESULT:      -7.0      3.097      6.121
REMARK  7 active torsions:
REMARK  status: ('A' for Active; 'I' for Inactive)
REMARK    1  A    between atoms: O_2  and  C_3 
REMARK    2  A    between atoms: C_4  and  C_5 
REMARK    3  A    between atoms: C_6  and  C_7 
REMARK       I    between atoms: C_7  and  N_8 
REMARK    4  A    between atoms: N_8  and  C_9 
REMARK    5  A    between atoms: C_9  and  C_10 
REMARK    6  A    between atoms: C_10  and  N_11 
REMARK    7  A    between atoms: C_10  and  C_18 
ROOT
HETATM    1  C   UNL     1      42.926 -11.663   3.617  1.00  0.00     0.241 C 
HETATM    2  N   UNL     1      41.708 -11.642   2.997  1.00  0.00    -0.355 N 
HETATM    3  O   UNL     1      43.948 -12.057   3.069  1.00  0.00    -0.269 OA
HETATM    4  H   UNL     1      40.908 -11.358   3.562  1.00  0.00     0.162 HD
ENDROOT
BRANCH   2   5
HETATM    5  C   UNL     1      41.453 -12.236   1.689  1.00  0.00     0.163 C 
BRANCH   5   6
HETATM    6  C   UNL     1      40.515 -13.486   1.695  1.00  0.00     0.262 C 
BRANCH   6   7
HETATM    7  N   UNL     1      39.574 -13.506   0.484  1.00  0.00    -0.059 N 
HETATM    8  H   UNL     1      38.747 -14.045   0.810  1.00  0.00     0.280 HD
HETATM    9  C   UNL     1      39.018 -12.166   0.072  1.00  0.00     0.236 C 
HETATM   10  C   UNL     1      37.924 -12.371  -0.968  1.00  0.00     0.028 C 
HETATM   11  C   UNL     1      38.436 -13.157  -2.171  1.00  0.00     0.003 C 
HETATM   12  C   UNL     1      39.073 -14.473  -1.738  1.00  0.00     0.028 C 
HETATM   13  C   UNL     1      40.149 -14.264  -0.681  1.00  0.00     0.236 C 
ENDBRANCH   6   7
BRANCH   6  14
HETATM   14  C   UNL     1      41.300 -14.747   1.865  1.00  0.00     0.085 A 
HETATM   15  O   UNL     1      42.652 -14.658   1.693  1.00  0.00    -0.325 OA
HETATM   16  C   UNL     1      43.164 -15.899   1.894  1.00  0.00     0.142 A 
HETATM   17  C   UNL     1      42.160 -16.788   2.194  1.00  0.00     0.027 A 
HETATM   18  C   UNL     1      40.953 -16.046   2.178  1.00  0.00     0.037 A 
ENDBRANCH   6  14
ENDBRANCH   5   6
ENDBRANCH   2   5
BRANCH   1  19
HETATM   19  C   UNL     1      42.917 -11.195   5.015  1.00  0.00     0.075 C 
HETATM   20  C   UNL     1      42.632 -11.985   6.061  1.00  0.00     0.020 C 
BRANCH  20  21
HETATM   21  C   UNL     1      42.235 -13.398   5.968  1.00  0.00    -0.001 A 
HETATM   22  C   UNL     1      40.889 -13.795   6.083  1.00  0.00     0.078 A 
HETATM   23  C   UNL     1      40.562 -15.152   5.983  1.00  0.00     0.039 A 
HETATM   24  C   UNL     1      41.565 -16.106   5.775  1.00  0.00     0.022 A 
HETATM   25  C   UNL     1      42.894 -15.705   5.672  1.00  0.00     0.012 A 
HETATM   26  C   UNL     1      43.234 -14.358   5.762  1.00  0.00     0.033 A 
HETATM   27 BR   UNL     1      44.251 -16.998   5.435  1.00  0.00    -0.051 Br
BRANCH  22  28
HETATM   28  O   UNL     1      39.979 -12.805   6.354  1.00  0.00    -0.355 OA
HETATM   29  C   UNL     1      39.154 -12.387   5.269  1.00  0.00     0.210 C 
ENDBRANCH  22  28
ENDBRANCH  20  21
ENDBRANCH   1  19
TORSDOF 7
ENDMDL
MODEL 5
REMARK VINA RESULT:      -6.8      1.556      3.587
REMARK  7 active torsions:
REMARK  status: ('A' for Active; 'I' for Inactive)
REMARK    1  A    between atoms: O_2  and  C_3 
REMARK    2  A    between atoms: C_4  and  C_5 
REMARK    3  A    between atoms: C_6  and  C_7 
REMARK       I    between atoms: C_7  and  N_8 
REMARK    4  A    between atoms: N_8  and  C_9 
REMARK    5  A    between atoms: C_9  and  C_10 
REMARK    6  A    between atoms: C_10  and  N_11 
REMARK    7  A    between atoms: C_10  and  C_18 
ROOT
HETATM    1  C   UNL     1      42.395 -14.770   6.719  1.00  0.00     0.241 C 
HETATM    2  N   UNL     1      42.097 -13.476   6.398  1.00  0.00    -0.355 N 
HETATM    3  O   UNL     1      43.527 -15.147   6.997  1.00  0.00    -0.269 OA
HETATM    4  H   UNL     1      41.137 -13.279   6.119  1.00  0.00     0.162 HD
ENDROOT
BRANCH   2   5
HETATM    5  C   UNL     1      43.103 -12.440   6.183  1.00  0.00     0.163 C 
BRANCH   5   6
HETATM    6  C   UNL     1      42.648 -10.986   6.528  1.00  0.00     0.262 C 
BRANCH   6   7
HETATM    7  N   UNL     1      43.774 -10.167   7.171  1.00  0.00    -0.059 N 
HETATM    8  H   UNL     1      44.042  -9.480   6.438  1.00  0.00     0.280 HD
HETATM    9  C   UNL     1      43.367  -9.323   8.354  1.00  0.00     0.236 C 
HETATM   10  C   UNL     1      44.513  -8.390   8.725  1.00  0.00     0.028 C 
HETATM   11  C   UNL     1      45.797  -9.164   9.006  1.00  0.00     0.003 C 
HETATM   12  C   UNL     1      46.155 -10.078   7.839  1.00  0.00     0.028 C 
HETATM   13  C   UNL     1      44.999 -10.992   7.456  1.00  0.00     0.236 C 
ENDBRANCH   6   7
BRANCH   6  14
HETATM   14  C   UNL     1      42.026 -10.321   5.341  1.00  0.00     0.085 A 
HETATM   15  O   UNL     1      41.923 -11.067   4.202  1.00  0.00    -0.325 OA
HETATM   16  C   UNL     1      41.334 -10.285   3.262  1.00  0.00     0.142 A 
HETATM   17  C   UNL     1      41.057  -9.042   3.780  1.00  0.00     0.027 A 
HETATM   18  C   UNL     1      41.501  -9.063   5.126  1.00  0.00     0.037 A 
ENDBRANCH   6  14
ENDBRANCH   5   6
ENDBRANCH   2   5
BRANCH   1  19
HETATM   19  C   UNL     1      41.248 -15.696   6.685  1.00  0.00     0.075 C 
HETATM   20  C   UNL     1      40.894 -16.400   5.600  1.00  0.00     0.020 C 
BRANCH  20  21
HETATM   21  C   UNL     1      41.550 -16.313   4.287  1.00  0.00    -0.001 A 
HETATM   22  C   UNL     1      42.716 -17.047   3.994  1.00  0.00     0.078 A 
HETATM   23  C   UNL     1      43.300 -16.932   2.728  1.00  0.00     0.039 A 
HETATM   24  C   UNL     1      42.733 -16.093   1.762  1.00  0.00     0.022 A 
HETATM   25  C   UNL     1      41.586 -15.364   2.064  1.00  0.00     0.012 A 
HETATM   26  C   UNL     1      40.989 -15.473   3.317  1.00  0.00     0.033 A 
HETATM   27 BR   UNL     1      40.847 -14.197   0.774  1.00  0.00    -0.051 Br
BRANCH  22  28
HETATM   28  O   UNL     1      43.244 -17.792   5.018  1.00  0.00    -0.355 OA
HETATM   29  C   UNL     1      44.108 -18.862   4.645  1.00  0.00     0.210 C 
ENDBRANCH  22  28
ENDBRANCH  20  21
ENDBRANCH   1  19
TORSDOF 7
ENDMDL
MODEL 6
REMARK VINA RESULT:      -6.6      3.213      6.777
REMARK  7 active torsions:
REMARK  status: ('A' for Active; 'I' for Inactive)
REMARK    1  A    between atoms: O_2  and  C_3 
REMARK    2  A    between atoms: C_4  and  C_5 
REMARK    3  A    between atoms: C_6  and  C_7 
REMARK       I    between atoms: C_7  and  N_8 
REMARK    4  A    between atoms: N_8  and  C_9 
REMARK    5  A    between atoms: C_9  and  C_10 
REMARK    6  A    between atoms: C_10  and  N_11 
REMARK    7  A    between atoms: C_10  and  C_18 
ROOT
HETATM    1  C   UNL     1      40.993 -14.896   1.467  1.00  0.00     0.241 C 
HETATM    2  N   UNL     1      42.023 -15.544   2.087  1.00  0.00    -0.355 N 
HETATM    3  O   UNL     1      39.873 -15.380   1.349  1.00  0.00    -0.269 OA
HETATM    4  H   UNL     1      42.933 -15.083   2.074  1.00  0.00     0.162 HD
ENDROOT
BRANCH   2   5
HETATM    5  C   UNL     1      41.962 -16.935   2.525  1.00  0.00     0.163 C 
BRANCH   5   6
HETATM    6  C   UNL     1      43.146 -17.401   3.431  1.00  0.00     0.262 C 
BRANCH   6   7
HETATM    7  N   UNL     1      42.905 -17.074   4.910  1.00  0.00    -0.059 N 
HETATM    8  H   UNL     1      42.723 -17.998   5.351  1.00  0.00     0.280 HD
HETATM    9  C   UNL     1      44.095 -16.522   5.654  1.00  0.00     0.236 C 
HETATM   10  C   UNL     1      43.783 -16.481   7.145  1.00  0.00     0.028 C 
HETATM   11  C   UNL     1      42.522 -15.672   7.430  1.00  0.00     0.003 C 
HETATM   12  C   UNL     1      41.343 -16.183   6.610  1.00  0.00     0.028 C 
HETATM   13  C   UNL     1      41.668 -16.245   5.124  1.00  0.00     0.236 C 
ENDBRANCH   6   7
BRANCH   6  14
HETATM   14  C   UNL     1      43.480 -18.838   3.183  1.00  0.00     0.085 A 
HETATM   15  O   UNL     1      43.867 -19.576   4.265  1.00  0.00    -0.325 OA
HETATM   16  C   UNL     1      44.115 -20.835   3.824  1.00  0.00     0.142 A 
HETATM   17  C   UNL     1      43.893 -20.920   2.470  1.00  0.00     0.027 A 
HETATM   18  C   UNL     1      43.480 -19.631   2.052  1.00  0.00     0.037 A 
ENDBRANCH   6  14
ENDBRANCH   5   6
ENDBRANCH   2   5
BRANCH   1  19
HETATM   19  C   UNL     1      41.334 -13.569   0.922  1.00  0.00     0.075 C 
HETATM   20  C   UNL     1      41.541 -12.484   1.683  1.00  0.00     0.020 C 
BRANCH  20  21
HETATM   21  C   UNL     1      41.403 -12.442   3.147  1.00  0.00    -0.001 A 
HETATM   22  C   UNL     1      40.145 -12.320   3.767  1.00  0.00     0.078 A 
HETATM   23  C   UNL     1      40.068 -12.288   5.164  1.00  0.00     0.039 A 
HETATM   24  C   UNL     1      41.231 -12.373   5.937  1.00  0.00     0.022 A 
HETATM   25  C   UNL     1      42.472 -12.484   5.315  1.00  0.00     0.012 A 
HETATM   26  C   UNL     1      42.564 -12.524   3.927  1.00  0.00     0.033 A 
HETATM   27 BR   UNL     1      44.044 -12.554   6.360  1.00  0.00    -0.051 Br
BRANCH  22  28
HETATM   28  O   UNL     1      39.064 -12.175   2.934  1.00  0.00    -0.355 OA
HETATM   29  C   UNL     1      38.522 -10.861   2.822  1.00  0.00     0.210 C 
ENDBRANCH  22  28
ENDBRANCH  20  21
ENDBRANCH   1  19
TORSDOF 7
ENDMDL
MODEL 7
REMARK VINA RESULT:      -6.6      2.510      3.757
REMARK  7 active torsions:
REMARK  status: ('A' for Active; 'I' for Inactive)
REMARK    1  A    between atoms: O_2  and  C_3 
REMARK    2  A    between atoms: C_4  and  C_5 
REMARK    3  A    between atoms: C_6  and  C_7 
REMARK       I    between atoms: C_7  and  N_8 
REMARK    4  A    between atoms: N_8  and  C_9 
REMARK    5  A    between atoms: C_9  and  C_10 
REMARK    6  A    between atoms: C_10  and  N_11 
REMARK    7  A    between atoms: C_10  and  C_18 
ROOT
HETATM    1  C   UNL     1      42.463 -14.209   2.193  1.00  0.00     0.241 C 
HETATM    2  N   UNL     1      42.002 -13.044   2.738  1.00  0.00    -0.355 N 
HETATM    3  O   UNL     1      43.641 -14.394   1.910  1.00  0.00    -0.269 OA
HETATM    4  H   UNL     1      40.994 -12.966   2.876  1.00  0.00     0.162 HD
ENDROOT
BRANCH   2   5
HETATM    5  C   UNL     1      42.813 -11.840   2.889  1.00  0.00     0.163 C 
BRANCH   5   6
HETATM    6  C   UNL     1      42.541 -11.011   4.184  1.00  0.00     0.262 C 
BRANCH   6   7
HETATM    7  N   UNL     1      41.048 -10.955   4.530  1.00  0.00    -0.059 N 
HETATM    8  H   UNL     1      40.687 -11.893   4.262  1.00  0.00     0.280 HD
HETATM    9  C   UNL     1      40.727 -10.829   5.999  1.00  0.00     0.236 C 
HETATM   10  C   UNL     1      39.233 -11.036   6.209  1.00  0.00     0.028 C 
HETATM   11  C   UNL     1      38.411 -10.061   5.372  1.00  0.00     0.003 C 
HETATM   12  C   UNL     1      38.800 -10.134   3.900  1.00  0.00     0.028 C 
HETATM   13  C   UNL     1      40.298  -9.952   3.698  1.00  0.00     0.236 C 
ENDBRANCH   6   7
BRANCH   6  14
HETATM   14  C   UNL     1      43.401 -11.480   5.315  1.00  0.00     0.085 A 
HETATM   15  O   UNL     1      43.478 -12.830   5.509  1.00  0.00    -0.325 OA
HETATM   16  C   UNL     1      44.302 -13.036   6.568  1.00  0.00     0.142 A 
HETATM   17  C   UNL     1      44.757 -11.836   7.060  1.00  0.00     0.027 A 
HETATM   18  C   UNL     1      44.178 -10.828   6.250  1.00  0.00     0.037 A 
ENDBRANCH   6  14
ENDBRANCH   5   6
ENDBRANCH   2   5
BRANCH   1  19
HETATM   19  C   UNL     1      41.428 -15.228   1.944  1.00  0.00     0.075 C 
HETATM   20  C   UNL     1      41.339 -16.379   2.628  1.00  0.00     0.020 C 
BRANCH  20  21
HETATM   21  C   UNL     1      42.278 -16.815   3.672  1.00  0.00    -0.001 A 
HETATM   22  C   UNL     1      43.274 -17.777   3.414  1.00  0.00     0.078 A 
HETATM   23  C   UNL     1      44.146 -18.155   4.441  1.00  0.00     0.039 A 
HETATM   24  C   UNL     1      44.027 -17.585   5.714  1.00  0.00     0.022 A 
HETATM   25  C   UNL     1      43.033 -16.642   5.962  1.00  0.00     0.012 A 
HETATM   26  C   UNL     1      42.163 -16.250   4.949  1.00  0.00     0.033 A 
HETATM   27 BR   UNL     1      42.846 -15.906   7.692  1.00  0.00    -0.051 Br
BRANCH  22  28
HETATM   28  O   UNL     1      43.277 -18.333   2.160  1.00  0.00    -0.355 OA
HETATM   29  C   UNL     1      43.304 -19.757   2.098  1.00  0.00     0.210 C 
ENDBRANCH  22  28
ENDBRANCH  20  21
ENDBRANCH   1  19
TORSDOF 7
ENDMDL
MODEL 8
REMARK VINA RESULT:      -6.6      2.557      6.537
REMARK  7 active torsions:
REMARK  status: ('A' for Active; 'I' for Inactive)
REMARK    1  A    between atoms: O_2  and  C_3 
REMARK    2  A    between atoms: C_4  and  C_5 
REMARK    3  A    between atoms: C_6  and  C_7 
REMARK       I    between atoms: C_7  and  N_8 
REMARK    4  A    between atoms: N_8  and  C_9 
REMARK    5  A    between atoms: C_9  and  C_10 
REMARK    6  A    between atoms: C_10  and  N_11 
REMARK    7  A    between atoms: C_10  and  C_18 
ROOT
HETATM    1  C   UNL     1      41.875 -14.417   6.205  1.00  0.00     0.241 C 
HETATM    2  N   UNL     1      42.077 -15.410   5.289  1.00  0.00    -0.355 N 
HETATM    3  O   UNL     1      42.785 -13.903   6.846  1.00  0.00    -0.269 OA
HETATM    4  H   UNL     1      41.248 -15.816   4.858  1.00  0.00     0.162 HD
ENDROOT
BRANCH   2   5
HETATM    5  C   UNL     1      43.356 -16.085   5.092  1.00  0.00     0.163 C 
BRANCH   5   6
HETATM    6  C   UNL     1      43.537 -16.780   3.704  1.00  0.00     0.262 C 
BRANCH   6   7
HETATM    7  N   UNL     1      43.472 -18.308   3.812  1.00  0.00    -0.059 N 
HETATM    8  H   UNL     1      42.460 -18.515   3.939  1.00  0.00     0.280 HD
HETATM    9  C   UNL     1      43.862 -19.064   2.566  1.00  0.00     0.236 C 
HETATM   10  C   UNL     1      43.515 -20.537   2.739  1.00  0.00     0.028 C 
HETATM   11  C   UNL     1      44.178 -21.126   3.979  1.00  0.00     0.003 C 
HETATM   12  C   UNL     1      43.847 -20.307   5.222  1.00  0.00     0.028 C 
HETATM   13  C   UNL     1      44.173 -18.832   5.036  1.00  0.00     0.236 C 
ENDBRANCH   6   7
BRANCH   6  14
HETATM   14  C   UNL     1      42.595 -16.211   2.691  1.00  0.00     0.085 A 
HETATM   15  O   UNL     1      41.275 -16.531   2.830  1.00  0.00    -0.325 OA
HETATM   16  C   UNL     1      40.605 -15.915   1.823  1.00  0.00     0.142 A 
HETATM   17  C   UNL     1      41.476 -15.202   1.035  1.00  0.00     0.027 A 
HETATM   18  C   UNL     1      42.764 -15.390   1.594  1.00  0.00     0.037 A 
ENDBRANCH   6  14
ENDBRANCH   5   6
ENDBRANCH   2   5
BRANCH   1  19
HETATM   19  C   UNL     1      40.468 -14.019   6.387  1.00  0.00     0.075 C 
HETATM   20  C   UNL     1      39.896 -12.992   5.739  1.00  0.00     0.020 C 
BRANCH  20  21
HETATM   21  C   UNL     1      40.591 -12.089   4.811  1.00  0.00    -0.001 A 
HETATM   22  C   UNL     1      41.397 -11.031   5.274  1.00  0.00     0.078 A 
HETATM   23  C   UNL     1      42.040 -10.201   4.349  1.00  0.00     0.039 A 
HETATM   24  C   UNL     1      41.881 -10.418   2.976  1.00  0.00     0.022 A 
HETATM   25  C   UNL     1      41.075 -11.461   2.527  1.00  0.00     0.012 A 
HETATM   26  C   UNL     1      40.434 -12.299   3.435  1.00  0.00     0.033 A 
HETATM   27 BR   UNL     1      40.827 -11.726   0.672  1.00  0.00    -0.051 Br
BRANCH  22  28
HETATM   28  O   UNL     1      41.443 -10.847   6.633  1.00  0.00    -0.355 OA
HETATM   29  C   UNL     1      40.869  -9.641   7.130  1.00  0.00     0.210 C 
ENDBRANCH  22  28
ENDBRANCH  20  21
ENDBRANCH   1  19
TORSDOF 7
ENDMDL
MODEL 9
REMARK VINA RESULT:      -6.3      3.278      5.708
REMARK  7 active torsions:
REMARK  status: ('A' for Active; 'I' for Inactive)
REMARK    1  A    between atoms: O_2  and  C_3 
REMARK    2  A    between atoms: C_4  and  C_5 
REMARK    3  A    between atoms: C_6  and  C_7 
REMARK       I    between atoms: C_7  and  N_8 
REMARK    4  A    between atoms: N_8  and  C_9 
REMARK    5  A    between atoms: C_9  and  C_10 
REMARK    6  A    between atoms: C_10  and  N_11 
REMARK    7  A    between atoms: C_10  and  C_18 
ROOT
HETATM    1  C   UNL     1      40.703 -16.112   3.790  1.00  0.00     0.241 C 
HETATM    2  N   UNL     1      39.943 -15.328   2.969  1.00  0.00    -0.355 N 
HETATM    3  O   UNL     1      41.752 -16.635   3.432  1.00  0.00    -0.269 OA
HETATM    4  H   UNL     1      39.055 -14.994   3.343  1.00  0.00     0.162 HD
ENDROOT
BRANCH   2   5
HETATM    5  C   UNL     1      40.197 -15.160   1.542  1.00  0.00     0.163 C 
BRANCH   5   6
HETATM    6  C   UNL     1      40.852 -13.801   1.136  1.00  0.00     0.262 C 
BRANCH   6   7
HETATM    7  N   UNL     1      40.822 -13.577  -0.381  1.00  0.00    -0.059 N 
HETATM    8  H   UNL     1      41.668 -14.071  -0.730  1.00  0.00     0.280 HD
HETATM    9  C   UNL     1      39.672 -14.229  -1.110  1.00  0.00     0.236 C 
HETATM   10  C   UNL     1      39.908 -14.133  -2.612  1.00  0.00     0.028 C 
HETATM   11  C   UNL     1      40.104 -12.687  -3.056  1.00  0.00     0.003 C 
HETATM   12  C   UNL     1      41.212 -12.010  -2.256  1.00  0.00     0.028 C 
HETATM   13  C   UNL     1      40.984 -12.130  -0.755  1.00  0.00     0.236 C 
ENDBRANCH   6   7
BRANCH   6  14
HETATM   14  C   UNL     1      40.270 -12.668   1.920  1.00  0.00     0.085 A 
HETATM   15  O   UNL     1      38.910 -12.551   1.915  1.00  0.00    -0.325 OA
HETATM   16  C   UNL     1      38.597 -11.474   2.681  1.00  0.00     0.142 A 
HETATM   17  C   UNL     1      39.739 -10.894   3.180  1.00  0.00     0.027 A 
HETATM   18  C   UNL     1      40.823 -11.665   2.691  1.00  0.00     0.037 A 
ENDBRANCH   6  14
ENDBRANCH   5   6
ENDBRANCH   2   5
BRANCH   1  19
HETATM   19  C   UNL     1      40.153 -16.307   5.144  1.00  0.00     0.075 C 
HETATM   20  C   UNL     1      40.585 -15.640   6.224  1.00  0.00     0.020 C 
BRANCH  20  21
HETATM   21  C   UNL     1      41.692 -14.672   6.231  1.00  0.00    -0.001 A 
HETATM   22  C   UNL     1      43.036 -15.088   6.305  1.00  0.00     0.078 A 
HETATM   23  C   UNL     1      44.053 -14.127   6.305  1.00  0.00     0.039 A 
HETATM   24  C   UNL     1      43.738 -12.766   6.235  1.00  0.00     0.022 A 
HETATM   25  C   UNL     1      42.407 -12.363   6.173  1.00  0.00     0.012 A 
HETATM   26  C   UNL     1      41.384 -13.307   6.165  1.00  0.00     0.033 A 
HETATM   27 BR   UNL     1      41.982 -10.523   6.124  1.00  0.00    -0.051 Br
BRANCH  22  28
HETATM   28  O   UNL     1      43.252 -16.436   6.438  1.00  0.00    -0.355 OA
HETATM   29  C   UNL     1      43.854 -16.865   7.657  1.00  0.00     0.210 C 
ENDBRANCH  22  28
ENDBRANCH  20  21
ENDBRANCH   1  19
TORSDOF 7
ENDMDL
MODEL 10
REMARK VINA RESULT:      -6.3      3.065      6.111
REMARK  7 active torsions:
REMARK  status: ('A' for Active; 'I' for Inactive)
REMARK    1  A    between atoms: O_2  and  C_3 
REMARK    2  A    between atoms: C_4  and  C_5 
REMARK    3  A    between atoms: C_6  and  C_7 
REMARK       I    between atoms: C_7  and  N_8 
REMARK    4  A    between atoms: N_8  and  C_9 
REMARK    5  A    between atoms: C_9  and  C_10 
REMARK    6  A    between atoms: C_10  and  N_11 
REMARK    7  A    between atoms: C_10  and  C_18 
ROOT
HETATM    1  C   UNL     1      40.573 -15.111   0.802  1.00  0.00     0.241 C 
HETATM    2  N   UNL     1      41.917 -14.873   0.858  1.00  0.00    -0.355 N 
HETATM    3  O   UNL     1      39.996 -15.870   1.572  1.00  0.00    -0.269 OA
HETATM    4  H   UNL     1      42.311 -14.277   0.131  1.00  0.00     0.162 HD
ENDROOT
BRANCH   2   5
HETATM    5  C   UNL     1      42.838 -15.610   1.718  1.00  0.00     0.163 C 
BRANCH   5   6
HETATM    6  C   UNL     1      42.606 -15.430   3.253  1.00  0.00     0.262 C 
BRANCH   6   7
HETATM    7  N   UNL     1      43.274 -16.542   4.071  1.00  0.00    -0.059 N 
HETATM    8  H   UNL     1      44.198 -16.145   4.338  1.00  0.00     0.280 HD
HETATM    9  C   UNL     1      42.607 -16.872   5.383  1.00  0.00     0.236 C 
HETATM   10  C   UNL     1      43.506 -17.802   6.187  1.00  0.00     0.028 C 
HETATM   11  C   UNL     1      43.850 -19.064   5.403  1.00  0.00     0.003 C 
HETATM   12  C   UNL     1      44.448 -18.721   4.042  1.00  0.00     0.028 C 
HETATM   13  C   UNL     1      43.556 -17.772   3.253  1.00  0.00     0.236 C 
ENDBRANCH   6   7
BRANCH   6  14
HETATM   14  C   UNL     1      42.984 -14.052   3.696  1.00  0.00     0.085 A 
HETATM   15  O   UNL     1      43.495 -13.218   2.743  1.00  0.00    -0.325 OA
HETATM   16  C   UNL     1      43.763 -12.034   3.349  1.00  0.00     0.142 A 
HETATM   17  C   UNL     1      43.431 -12.092   4.681  1.00  0.00     0.027 A 
HETATM   18  C   UNL     1      42.924 -13.396   4.908  1.00  0.00     0.037 A 
ENDBRANCH   6  14
ENDBRANCH   5   6
ENDBRANCH   2   5
BRANCH   1  19
HETATM   19  C   UNL     1      39.864 -14.403  -0.278  1.00  0.00     0.075 C 
HETATM   20  C   UNL     1      39.640 -13.080  -0.277  1.00  0.00     0.020 C 
BRANCH  20  21
HETATM   21  C   UNL     1      40.011 -12.163   0.810  1.00  0.00    -0.001 A 
HETATM   22  C   UNL     1      40.790 -11.013   0.573  1.00  0.00     0.078 A 
HETATM   23  C   UNL     1      41.114 -10.170   1.642  1.00  0.00     0.039 A 
HETATM   24  C   UNL     1      40.671 -10.468   2.935  1.00  0.00     0.022 A 
HETATM   25  C   UNL     1      39.909 -11.612   3.162  1.00  0.00     0.012 A 
HETATM   26  C   UNL     1      39.573 -12.456   2.108  1.00  0.00     0.033 A 
HETATM   27 BR   UNL     1      39.349 -12.036   4.916  1.00  0.00    -0.051 Br
BRANCH  22  28
HETATM   28  O   UNL     1      41.239 -10.833  -0.711  1.00  0.00    -0.355 OA
HETATM   29  C   UNL     1      41.881  -9.592  -0.990  1.00  0.00     0.210 C 
ENDBRANCH  22  28
ENDBRANCH  20  21
ENDBRANCH   1  19
TORSDOF 7
ENDMDL
