MODEL 1
REMARK VINA RESULT:      -9.1      0.000      0.000
REMARK  8 active torsions:
REMARK  status: ('A' for Active; 'I' for Inactive)
REMARK    1  A    between atoms: O_2  and  C_3 
REMARK    2  A    between atoms: C_4  and  N_5 
REMARK       I    between atoms: N_5  and  C_6 
REMARK       I    between atoms: C_6  and  N_7 
REMARK    3  A    between atoms: N_7  and  C_8 
REMARK    4  A    between atoms: C_11  and  C_12 
REMARK    5  A    between atoms: C_12  and  C_13 
REMARK       I    between atoms: C_13  and  N_14 
REMARK    6  A    between atoms: N_14  and  C_15 
REMARK    7  A    between atoms: C_18  and  O_19 
REMARK    8  A    between atoms: O_19  and  C_20 
ROOT
HETATM    1  C   UNL     1      39.708  -9.218  10.716  1.00  0.00     0.174 A 
HETATM    2  S   UNL     1      39.352  -7.553  10.593  1.00  0.00    -0.062 SA
HETATM    3  C   UNL     1      40.444  -7.437   9.277  1.00  0.00     0.081 A 
HETATM    4  C   UNL     1      41.017  -8.671   9.019  1.00  0.00     0.052 A 
HETATM    5  N   UNL     1      40.550  -9.693   9.835  1.00  0.00    -0.228 NA
ENDROOT
BRANCH   4   6
HETATM    6  C   UNL     1      42.020  -9.032   7.973  1.00  0.00     0.163 C 
BRANCH   6   7
HETATM    7  C   UNL     1      41.470  -9.987   6.925  1.00  0.00     0.227 C 
HETATM    8  N   UNL     1      42.175 -11.178   6.832  1.00  0.00    -0.327 N 
HETATM    9  H   UNL     1      42.966 -11.294   7.454  1.00  0.00     0.169 HD
HETATM   10  O   UNL     1      40.490  -9.674   6.253  1.00  0.00    -0.273 OA
BRANCH   8  11
HETATM   11  C   UNL     1      41.900 -12.267   5.974  1.00  0.00     0.034 A 
HETATM   12  C   UNL     1      40.816 -13.132   6.137  1.00  0.00     0.032 A 
HETATM   13  C   UNL     1      40.618 -14.200   5.255  1.00  0.00     0.039 A 
HETATM   14  C   UNL     1      41.496 -14.402   4.194  1.00  0.00     0.076 A 
HETATM   15  C   UNL     1      42.595 -13.561   4.028  1.00  0.00     0.039 A 
HETATM   16  C   UNL     1      42.786 -12.488   4.908  1.00  0.00     0.032 A 
BRANCH  14  17
HETATM   17  O   UNL     1      41.294 -15.507   3.408  1.00  0.00    -0.311 OA
BRANCH  17  18
HETATM   18  C   UNL     1      42.169 -16.567   3.511  1.00  0.00     0.076 A 
HETATM   19  C   UNL     1      42.326 -17.325   2.348  1.00  0.00     0.037 A 
HETATM   20  C   UNL     1      43.216 -18.401   2.321  1.00  0.00     0.003 A 
HETATM   21  C   UNL     1      43.956 -18.716   3.459  1.00  0.00     0.000 A 
HETATM   22  C   UNL     1      43.815 -17.953   4.617  1.00  0.00     0.003 A 
HETATM   23  C   UNL     1      42.929 -16.871   4.642  1.00  0.00     0.037 A 
ENDBRANCH  17  18
ENDBRANCH  14  17
ENDBRANCH   8  11
ENDBRANCH   6   7
ENDBRANCH   4   6
BRANCH   1  24
HETATM   24  N   UNL     1      39.017  -9.855  11.707  1.00  0.00    -0.287 N 
HETATM   25  C   UNL     1      39.534 -10.659  12.662  1.00  0.00     0.326 C 
HETATM   26  N   UNL     1      40.814 -10.560  13.090  1.00  0.00    -0.306 N 
HETATM   27  O   UNL     1      38.827 -11.565  13.114  1.00  0.00    -0.247 OA
HETATM   28  H   UNL     1      41.167 -11.433  13.455  1.00  0.00     0.171 HD
HETATM   29  H   UNL     1      38.023  -9.937  11.570  1.00  0.00     0.172 HD
BRANCH  26  30
HETATM   30  C   UNL     1      41.616  -9.423  13.333  1.00  0.00     0.069 A 
HETATM   31  C   UNL     1      42.805  -9.110  12.652  1.00  0.00     0.095 A 
HETATM   32  C   UNL     1      43.537  -7.971  13.006  1.00  0.00     0.039 A 
HETATM   33  C   UNL     1      43.061  -7.103  13.989  1.00  0.00     0.003 A 
HETATM   34  C   UNL     1      41.849  -7.370  14.620  1.00  0.00     0.002 A 
HETATM   35  C   UNL     1      41.128  -8.519  14.287  1.00  0.00     0.032 A 
BRANCH  31  36
HETATM   36  O   UNL     1      43.248  -9.914  11.633  1.00  0.00    -0.354 OA
HETATM   37  C   UNL     1      44.276  -9.297  10.860  1.00  0.00     0.210 C 
ENDBRANCH  31  36
ENDBRANCH  26  30
ENDBRANCH   1  24
TORSDOF 8
ENDMDL
MODEL 2
REMARK VINA RESULT:      -8.9      6.848     10.107
REMARK  8 active torsions:
REMARK  status: ('A' for Active; 'I' for Inactive)
REMARK    1  A    between atoms: O_2  and  C_3 
REMARK    2  A    between atoms: C_4  and  N_5 
REMARK       I    between atoms: N_5  and  C_6 
REMARK       I    between atoms: C_6  and  N_7 
REMARK    3  A    between atoms: N_7  and  C_8 
REMARK    4  A    between atoms: C_11  and  C_12 
REMARK    5  A    between atoms: C_12  and  C_13 
REMARK       I    between atoms: C_13  and  N_14 
REMARK    6  A    between atoms: N_14  and  C_15 
REMARK    7  A    between atoms: C_18  and  O_19 
REMARK    8  A    between atoms: O_19  and  C_20 
ROOT
HETATM    1  C   UNL     1      39.833  -9.839   0.851  1.00  0.00     0.174 A 
HETATM    2  S   UNL     1      38.210 -10.020   0.355  1.00  0.00    -0.062 SA
HETATM    3  C   UNL     1      37.855 -10.767   1.857  1.00  0.00     0.081 A 
HETATM    4  C   UNL     1      38.995 -10.839   2.638  1.00  0.00     0.052 A 
HETATM    5  N   UNL     1      40.117 -10.264   2.055  1.00  0.00    -0.228 NA
ENDROOT
BRANCH   4   6
HETATM    6  C   UNL     1      39.152 -11.411   4.009  1.00  0.00     0.163 C 
BRANCH   6   7
HETATM    7  C   UNL     1      40.196 -12.513   4.079  1.00  0.00     0.227 C 
HETATM    8  N   UNL     1      40.254 -13.298   2.936  1.00  0.00    -0.327 N 
HETATM    9  H   UNL     1      39.613 -13.067   2.186  1.00  0.00     0.169 HD
HETATM   10  O   UNL     1      40.892 -12.648   5.083  1.00  0.00    -0.273 OA
BRANCH   8  11
HETATM   11  C   UNL     1      41.128 -14.381   2.689  1.00  0.00     0.034 A 
HETATM   12  C   UNL     1      42.493 -14.237   2.429  1.00  0.00     0.032 A 
HETATM   13  C   UNL     1      43.292 -15.356   2.177  1.00  0.00     0.039 A 
HETATM   14  C   UNL     1      42.735 -16.631   2.197  1.00  0.00     0.076 A 
HETATM   15  C   UNL     1      41.371 -16.793   2.433  1.00  0.00     0.039 A 
HETATM   16  C   UNL     1      40.575 -15.671   2.694  1.00  0.00     0.032 A 
BRANCH  14  17
HETATM   17  O   UNL     1      43.551 -17.684   1.869  1.00  0.00    -0.311 OA
BRANCH  17  18
HETATM   18  C   UNL     1      43.736 -18.695   2.786  1.00  0.00     0.076 A 
HETATM   19  C   UNL     1      43.957 -18.274   4.101  1.00  0.00     0.037 A 
HETATM   20  C   UNL     1      44.119 -19.210   5.123  1.00  0.00     0.003 A 
HETATM   21  C   UNL     1      44.054 -20.572   4.834  1.00  0.00     0.000 A 
HETATM   22  C   UNL     1      43.818 -20.996   3.527  1.00  0.00     0.003 A 
HETATM   23  C   UNL     1      43.649 -20.060   2.503  1.00  0.00     0.037 A 
ENDBRANCH  17  18
ENDBRANCH  14  17
ENDBRANCH   8  11
ENDBRANCH   6   7
ENDBRANCH   4   6
BRANCH   1  24
HETATM   24  N   UNL     1      40.624  -9.222  -0.075  1.00  0.00    -0.287 N 
HETATM   25  C   UNL     1      41.640  -9.779  -0.768  1.00  0.00     0.326 C 
HETATM   26  N   UNL     1      41.709 -11.105  -1.030  1.00  0.00    -0.306 N 
HETATM   27  O   UNL     1      42.580  -9.057  -1.119  1.00  0.00    -0.247 OA
HETATM   28  H   UNL     1      42.660 -11.424  -1.158  1.00  0.00     0.171 HD
HETATM   29  H   UNL     1      40.617  -8.215  -0.060  1.00  0.00     0.172 HD
BRANCH  26  30
HETATM   30  C   UNL     1      40.699 -12.024  -1.387  1.00  0.00     0.069 A 
HETATM   31  C   UNL     1      39.874 -11.921  -2.521  1.00  0.00     0.095 A 
HETATM   32  C   UNL     1      38.878 -12.877  -2.753  1.00  0.00     0.039 A 
HETATM   33  C   UNL     1      38.739 -13.973  -1.901  1.00  0.00     0.003 A 
HETATM   34  C   UNL     1      39.597 -14.118  -0.815  1.00  0.00     0.002 A 
HETATM   35  C   UNL     1      40.576 -13.154  -0.565  1.00  0.00     0.032 A 
BRANCH  31  36
HETATM   36  O   UNL     1      40.047 -10.889  -3.407  1.00  0.00    -0.354 OA
HETATM   37  C   UNL     1      38.920 -10.016  -3.453  1.00  0.00     0.210 C 
ENDBRANCH  31  36
ENDBRANCH  26  30
ENDBRANCH   1  24
TORSDOF 8
ENDMDL
MODEL 3
REMARK VINA RESULT:      -8.9      7.837      9.635
REMARK  8 active torsions:
REMARK  status: ('A' for Active; 'I' for Inactive)
REMARK    1  A    between atoms: O_2  and  C_3 
REMARK    2  A    between atoms: C_4  and  N_5 
REMARK       I    between atoms: N_5  and  C_6 
REMARK       I    between atoms: C_6  and  N_7 
REMARK    3  A    between atoms: N_7  and  C_8 
REMARK    4  A    between atoms: C_11  and  C_12 
REMARK    5  A    between atoms: C_12  and  C_13 
REMARK       I    between atoms: C_13  and  N_14 
REMARK    6  A    between atoms: N_14  and  C_15 
REMARK    7  A    between atoms: C_18  and  O_19 
REMARK    8  A    between atoms: O_19  and  C_20 
ROOT
HETATM    1  C   UNL     1      40.627 -10.411  -1.808  1.00  0.00     0.174 A 
HETATM    2  S   UNL     1      39.484  -9.333  -2.476  1.00  0.00    -0.062 SA
HETATM    3  C   UNL     1      38.299 -10.568  -2.392  1.00  0.00     0.081 A 
HETATM    4  C   UNL     1      38.849 -11.726  -1.869  1.00  0.00     0.052 A 
HETATM    5  N   UNL     1      40.183 -11.602  -1.502  1.00  0.00    -0.228 NA
ENDROOT
BRANCH   4   6
HETATM    6  C   UNL     1      38.188 -13.042  -1.622  1.00  0.00     0.163 C 
BRANCH   6   7
HETATM    7  C   UNL     1      39.121 -14.069  -1.000  1.00  0.00     0.227 C 
HETATM    8  N   UNL     1      39.497 -13.764   0.300  1.00  0.00    -0.327 N 
HETATM    9  H   UNL     1      39.124 -12.911   0.699  1.00  0.00     0.169 HD
HETATM   10  O   UNL     1      39.476 -15.056  -1.641  1.00  0.00    -0.273 OA
BRANCH   8  11
HETATM   11  C   UNL     1      40.333 -14.526   1.147  1.00  0.00     0.034 A 
HETATM   12  C   UNL     1      39.866 -15.304   2.209  1.00  0.00     0.032 A 
HETATM   13  C   UNL     1      40.758 -16.019   3.015  1.00  0.00     0.039 A 
HETATM   14  C   UNL     1      42.124 -15.974   2.755  1.00  0.00     0.076 A 
HETATM   15  C   UNL     1      42.610 -15.188   1.713  1.00  0.00     0.039 A 
HETATM   16  C   UNL     1      41.715 -14.479   0.903  1.00  0.00     0.032 A 
BRANCH  14  17
HETATM   17  O   UNL     1      42.955 -16.635   3.624  1.00  0.00    -0.311 OA
BRANCH  17  18
HETATM   18  C   UNL     1      43.251 -17.959   3.384  1.00  0.00     0.076 A 
HETATM   19  C   UNL     1      43.862 -18.635   4.444  1.00  0.00     0.037 A 
HETATM   20  C   UNL     1      44.174 -19.991   4.330  1.00  0.00     0.003 A 
HETATM   21  C   UNL     1      43.871 -20.676   3.155  1.00  0.00     0.000 A 
HETATM   22  C   UNL     1      43.248 -20.010   2.100  1.00  0.00     0.003 A 
HETATM   23  C   UNL     1      42.928 -18.654   2.216  1.00  0.00     0.037 A 
ENDBRANCH  17  18
ENDBRANCH  14  17
ENDBRANCH   8  11
ENDBRANCH   6   7
ENDBRANCH   4   6
BRANCH   1  24
HETATM   24  N   UNL     1      41.865  -9.861  -1.635  1.00  0.00    -0.287 N 
HETATM   25  C   UNL     1      42.208  -8.911  -0.739  1.00  0.00     0.326 C 
HETATM   26  N   UNL     1      41.541  -8.725   0.424  1.00  0.00    -0.306 N 
HETATM   27  O   UNL     1      43.126  -8.136  -1.025  1.00  0.00    -0.247 OA
HETATM   28  H   UNL     1      41.617  -7.777   0.764  1.00  0.00     0.171 HD
HETATM   29  H   UNL     1      42.514  -9.988  -2.395  1.00  0.00     0.172 HD
BRANCH  26  30
HETATM   30  C   UNL     1      40.993  -9.661   1.328  1.00  0.00     0.069 A 
HETATM   31  C   UNL     1      39.622  -9.821   1.596  1.00  0.00     0.095 A 
HETATM   32  C   UNL     1      39.197 -10.760   2.543  1.00  0.00     0.039 A 
HETATM   33  C   UNL     1      40.122 -11.590   3.178  1.00  0.00     0.003 A 
HETATM   34  C   UNL     1      41.474 -11.484   2.867  1.00  0.00     0.002 A 
HETATM   35  C   UNL     1      41.904 -10.531   1.941  1.00  0.00     0.032 A 
BRANCH  31  36
HETATM   36  O   UNL     1      38.695  -9.063   0.926  1.00  0.00    -0.354 OA
HETATM   37  C   UNL     1      37.458  -8.968   1.630  1.00  0.00     0.210 C 
ENDBRANCH  31  36
ENDBRANCH  26  30
ENDBRANCH   1  24
TORSDOF 8
ENDMDL
MODEL 4
REMARK VINA RESULT:      -8.8      4.135      6.284
REMARK  8 active torsions:
REMARK  status: ('A' for Active; 'I' for Inactive)
REMARK    1  A    between atoms: O_2  and  C_3 
REMARK    2  A    between atoms: C_4  and  N_5 
REMARK       I    between atoms: N_5  and  C_6 
REMARK       I    between atoms: C_6  and  N_7 
REMARK    3  A    between atoms: N_7  and  C_8 
REMARK    4  A    between atoms: C_11  and  C_12 
REMARK    5  A    between atoms: C_12  and  C_13 
REMARK       I    between atoms: C_13  and  N_14 
REMARK    6  A    between atoms: N_14  and  C_15 
REMARK    7  A    between atoms: C_18  and  O_19 
REMARK    8  A    between atoms: O_19  and  C_20 
ROOT
HETATM    1  C   UNL     1      39.592  -9.935   4.180  1.00  0.00     0.174 A 
HETATM    2  S   UNL     1      40.842  -9.178   3.298  1.00  0.00    -0.062 SA
HETATM    3  C   UNL     1      40.419 -10.118   1.928  1.00  0.00     0.081 A 
HETATM    4  C   UNL     1      39.358 -10.955   2.230  1.00  0.00     0.052 A 
HETATM    5  N   UNL     1      38.871 -10.806   3.523  1.00  0.00    -0.228 NA
ENDROOT
BRANCH   4   6
HETATM    6  C   UNL     1      38.669 -11.942   1.347  1.00  0.00     0.163 C 
BRANCH   6   7
HETATM    7  C   UNL     1      39.542 -13.135   0.993  1.00  0.00     0.227 C 
HETATM    8  N   UNL     1      40.269 -13.631   2.067  1.00  0.00    -0.327 N 
HETATM    9  H   UNL     1      40.150 -13.163   2.957  1.00  0.00     0.169 HD
HETATM   10  O   UNL     1      39.562 -13.573  -0.155  1.00  0.00    -0.273 OA
BRANCH   8  11
HETATM   11  C   UNL     1      41.148 -14.737   2.063  1.00  0.00     0.034 A 
HETATM   12  C   UNL     1      40.757 -16.045   2.360  1.00  0.00     0.032 A 
HETATM   13  C   UNL     1      41.689 -17.087   2.351  1.00  0.00     0.039 A 
HETATM   14  C   UNL     1      43.019 -16.832   2.032  1.00  0.00     0.076 A 
HETATM   15  C   UNL     1      43.432 -15.530   1.754  1.00  0.00     0.039 A 
HETATM   16  C   UNL     1      42.495 -14.490   1.755  1.00  0.00     0.032 A 
BRANCH  14  17
HETATM   17  O   UNL     1      43.901 -17.879   2.114  1.00  0.00    -0.311 OA
BRANCH  17  18
HETATM   18  C   UNL     1      43.875 -18.686   3.230  1.00  0.00     0.076 A 
HETATM   19  C   UNL     1      43.864 -20.060   2.972  1.00  0.00     0.037 A 
HETATM   20  C   UNL     1      43.876 -20.976   4.025  1.00  0.00     0.003 A 
HETATM   21  C   UNL     1      43.905 -20.519   5.342  1.00  0.00     0.000 A 
HETATM   22  C   UNL     1      43.932 -19.150   5.604  1.00  0.00     0.003 A 
HETATM   23  C   UNL     1      43.927 -18.232   4.550  1.00  0.00     0.037 A 
ENDBRANCH  17  18
ENDBRANCH  14  17
ENDBRANCH   8  11
ENDBRANCH   6   7
ENDBRANCH   4   6
BRANCH   1  24
HETATM   24  N   UNL     1      39.479  -9.489   5.466  1.00  0.00    -0.287 N 
HETATM   25  C   UNL     1      39.332 -10.248   6.573  1.00  0.00     0.326 C 
HETATM   26  N   UNL     1      39.770 -11.527   6.649  1.00  0.00    -0.306 N 
HETATM   27  O   UNL     1      38.713  -9.776   7.532  1.00  0.00    -0.247 OA
HETATM   28  H   UNL     1      39.245 -12.074   7.317  1.00  0.00     0.171 HD
HETATM   29  H   UNL     1      39.234  -8.518   5.576  1.00  0.00     0.172 HD
BRANCH  26  30
HETATM   30  C   UNL     1      40.949 -12.125   6.154  1.00  0.00     0.069 A 
HETATM   31  C   UNL     1      42.185 -11.473   6.003  1.00  0.00     0.095 A 
HETATM   32  C   UNL     1      43.280 -12.161   5.465  1.00  0.00     0.039 A 
HETATM   33  C   UNL     1      43.172 -13.513   5.138  1.00  0.00     0.003 A 
HETATM   34  C   UNL     1      41.971 -14.182   5.349  1.00  0.00     0.002 A 
HETATM   35  C   UNL     1      40.869 -13.493   5.862  1.00  0.00     0.032 A 
BRANCH  31  36
HETATM   36  O   UNL     1      42.327 -10.165   6.389  1.00  0.00    -0.354 OA
HETATM   37  C   UNL     1      42.862 -10.039   7.705  1.00  0.00     0.210 C 
ENDBRANCH  31  36
ENDBRANCH  26  30
ENDBRANCH   1  24
TORSDOF 8
ENDMDL
MODEL 5
REMARK VINA RESULT:      -8.7      4.794      7.817
REMARK  8 active torsions:
REMARK  status: ('A' for Active; 'I' for Inactive)
REMARK    1  A    between atoms: O_2  and  C_3 
REMARK    2  A    between atoms: C_4  and  N_5 
REMARK       I    between atoms: N_5  and  C_6 
REMARK       I    between atoms: C_6  and  N_7 
REMARK    3  A    between atoms: N_7  and  C_8 
REMARK    4  A    between atoms: C_11  and  C_12 
REMARK    5  A    between atoms: C_12  and  C_13 
REMARK       I    between atoms: C_13  and  N_14 
REMARK    6  A    between atoms: N_14  and  C_15 
REMARK    7  A    between atoms: C_18  and  O_19 
REMARK    8  A    between atoms: O_19  and  C_20 
ROOT
HETATM    1  C   UNL     1      40.853 -10.096   4.123  1.00  0.00     0.174 A 
HETATM    2  S   UNL     1      39.446 -10.496   5.001  1.00  0.00    -0.062 SA
HETATM    3  C   UNL     1      40.415 -10.786   6.385  1.00  0.00     0.081 A 
HETATM    4  C   UNL     1      41.750 -10.568   6.090  1.00  0.00     0.052 A 
HETATM    5  N   UNL     1      41.978 -10.133   4.791  1.00  0.00    -0.228 NA
ENDROOT
BRANCH   4   6
HETATM    6  C   UNL     1      42.937 -10.703   6.986  1.00  0.00     0.163 C 
BRANCH   6   7
HETATM    7  C   UNL     1      43.610 -12.062   6.881  1.00  0.00     0.227 C 
HETATM    8  N   UNL     1      42.718 -13.124   6.844  1.00  0.00    -0.327 N 
HETATM    9  H   UNL     1      41.731 -12.898   6.888  1.00  0.00     0.169 HD
HETATM   10  O   UNL     1      44.835 -12.147   6.840  1.00  0.00    -0.273 OA
BRANCH   8  11
HETATM   11  C   UNL     1      43.031 -14.497   6.728  1.00  0.00     0.034 A 
HETATM   12  C   UNL     1      44.320 -14.986   6.503  1.00  0.00     0.032 A 
HETATM   13  C   UNL     1      44.550 -16.361   6.384  1.00  0.00     0.039 A 
HETATM   14  C   UNL     1      43.494 -17.259   6.503  1.00  0.00     0.076 A 
HETATM   15  C   UNL     1      42.198 -16.788   6.708  1.00  0.00     0.039 A 
HETATM   16  C   UNL     1      41.972 -15.412   6.835  1.00  0.00     0.032 A 
BRANCH  14  17
HETATM   17  O   UNL     1      43.768 -18.588   6.303  1.00  0.00    -0.311 OA
BRANCH  17  18
HETATM   18  C   UNL     1      43.780 -19.079   5.016  1.00  0.00     0.076 A 
HETATM   19  C   UNL     1      43.945 -20.462   4.907  1.00  0.00     0.037 A 
HETATM   20  C   UNL     1      43.935 -21.077   3.654  1.00  0.00     0.003 A 
HETATM   21  C   UNL     1      43.753 -20.309   2.505  1.00  0.00     0.000 A 
HETATM   22  C   UNL     1      43.572 -18.930   2.610  1.00  0.00     0.003 A 
HETATM   23  C   UNL     1      43.575 -18.315   3.864  1.00  0.00     0.037 A 
ENDBRANCH  17  18
ENDBRANCH  14  17
ENDBRANCH   8  11
ENDBRANCH   6   7
ENDBRANCH   4   6
BRANCH   1  24
HETATM   24  N   UNL     1      40.610  -9.738   2.828  1.00  0.00    -0.287 N 
HETATM   25  C   UNL     1      41.339 -10.082   1.745  1.00  0.00     0.326 C 
HETATM   26  N   UNL     1      42.095 -11.204   1.696  1.00  0.00    -0.306 N 
HETATM   27  O   UNL     1      41.370  -9.305   0.785  1.00  0.00    -0.247 OA
HETATM   28  H   UNL     1      42.869 -11.119   1.053  1.00  0.00     0.171 HD
HETATM   29  H   UNL     1      39.989  -8.956   2.696  1.00  0.00     0.172 HD
BRANCH  26  30
HETATM   30  C   UNL     1      41.841 -12.504   2.185  1.00  0.00     0.069 A 
HETATM   31  C   UNL     1      40.607 -13.174   2.102  1.00  0.00     0.095 A 
HETATM   32  C   UNL     1      40.464 -14.451   2.657  1.00  0.00     0.039 A 
HETATM   33  C   UNL     1      41.557 -15.096   3.236  1.00  0.00     0.003 A 
HETATM   34  C   UNL     1      42.798 -14.467   3.260  1.00  0.00     0.002 A 
HETATM   35  C   UNL     1      42.940 -13.182   2.730  1.00  0.00     0.032 A 
BRANCH  31  36
HETATM   36  O   UNL     1      39.542 -12.583   1.471  1.00  0.00    -0.354 OA
HETATM   37  C   UNL     1      39.493 -12.892   0.079  1.00  0.00     0.210 C 
ENDBRANCH  31  36
ENDBRANCH  26  30
ENDBRANCH   1  24
TORSDOF 8
ENDMDL
MODEL 6
REMARK VINA RESULT:      -8.7      2.220      3.003
REMARK  8 active torsions:
REMARK  status: ('A' for Active; 'I' for Inactive)
REMARK    1  A    between atoms: O_2  and  C_3 
REMARK    2  A    between atoms: C_4  and  N_5 
REMARK       I    between atoms: N_5  and  C_6 
REMARK       I    between atoms: C_6  and  N_7 
REMARK    3  A    between atoms: N_7  and  C_8 
REMARK    4  A    between atoms: C_11  and  C_12 
REMARK    5  A    between atoms: C_12  and  C_13 
REMARK       I    between atoms: C_13  and  N_14 
REMARK    6  A    between atoms: N_14  and  C_15 
REMARK    7  A    between atoms: C_18  and  O_19 
REMARK    8  A    between atoms: O_19  and  C_20 
ROOT
HETATM    1  C   UNL     1      40.987  -9.701  10.762  1.00  0.00     0.174 A 
HETATM    2  S   UNL     1      40.463  -8.445   9.732  1.00  0.00    -0.062 SA
HETATM    3  C   UNL     1      42.048  -8.337   9.089  1.00  0.00     0.081 A 
HETATM    4  C   UNL     1      42.879  -9.259   9.704  1.00  0.00     0.052 A 
HETATM    5  N   UNL     1      42.238 -10.062  10.638  1.00  0.00    -0.228 NA
ENDROOT
BRANCH   4   6
HETATM    6  C   UNL     1      44.331  -9.512   9.462  1.00  0.00     0.163 C 
BRANCH   6   7
HETATM    7  C   UNL     1      44.583 -10.655   8.493  1.00  0.00     0.227 C 
HETATM    8  N   UNL     1      43.433 -11.123   7.873  1.00  0.00    -0.327 N 
HETATM    9  H   UNL     1      42.561 -10.670   8.118  1.00  0.00     0.169 HD
HETATM   10  O   UNL     1      45.722 -11.083   8.319  1.00  0.00    -0.273 OA
BRANCH   8  11
HETATM   11  C   UNL     1      43.342 -12.156   6.912  1.00  0.00     0.034 A 
HETATM   12  C   UNL     1      43.517 -13.510   7.206  1.00  0.00     0.032 A 
HETATM   13  C   UNL     1      43.427 -14.475   6.197  1.00  0.00     0.039 A 
HETATM   14  C   UNL     1      43.149 -14.093   4.888  1.00  0.00     0.076 A 
HETATM   15  C   UNL     1      42.992 -12.745   4.573  1.00  0.00     0.039 A 
HETATM   16  C   UNL     1      43.074 -11.782   5.586  1.00  0.00     0.032 A 
BRANCH  14  17
HETATM   17  O   UNL     1      43.148 -15.075   3.930  1.00  0.00    -0.311 OA
BRANCH  17  18
HETATM   18  C   UNL     1      42.071 -15.171   3.076  1.00  0.00     0.076 A 
HETATM   19  C   UNL     1      42.342 -14.865   1.739  1.00  0.00     0.037 A 
HETATM   20  C   UNL     1      41.337 -14.964   0.776  1.00  0.00     0.003 A 
HETATM   21  C   UNL     1      40.058 -15.375   1.146  1.00  0.00     0.000 A 
HETATM   22  C   UNL     1      39.787 -15.697   2.476  1.00  0.00     0.003 A 
HETATM   23  C   UNL     1      40.795 -15.605   3.440  1.00  0.00     0.037 A 
ENDBRANCH  17  18
ENDBRANCH  14  17
ENDBRANCH   8  11
ENDBRANCH   6   7
ENDBRANCH   4   6
BRANCH   1  24
HETATM   24  N   UNL     1      40.000 -10.205  11.560  1.00  0.00    -0.287 N 
HETATM   25  C   UNL     1      40.065 -10.405  12.894  1.00  0.00     0.326 C 
HETATM   26  N   UNL     1      40.888  -9.698  13.703  1.00  0.00    -0.306 N 
HETATM   27  O   UNL     1      39.395 -11.319  13.385  1.00  0.00    -0.247 OA
HETATM   28  H   UNL     1      41.140 -10.208  14.538  1.00  0.00     0.171 HD
HETATM   29  H   UNL     1      39.259 -10.697  11.088  1.00  0.00     0.172 HD
BRANCH  26  30
HETATM   30  C   UNL     1      41.231  -8.328  13.692  1.00  0.00     0.069 A 
HETATM   31  C   UNL     1      40.348  -7.274  13.400  1.00  0.00     0.095 A 
HETATM   32  C   UNL     1      40.812  -5.954  13.384  1.00  0.00     0.039 A 
HETATM   33  C   UNL     1      42.135  -5.667  13.721  1.00  0.00     0.003 A 
HETATM   34  C   UNL     1      42.998  -6.699  14.079  1.00  0.00     0.002 A 
HETATM   35  C   UNL     1      42.545  -8.020  14.071  1.00  0.00     0.032 A 
BRANCH  31  36
HETATM   36  O   UNL     1      39.027  -7.534  13.138  1.00  0.00    -0.354 OA
HETATM   37  C   UNL     1      38.150  -6.630  13.808  1.00  0.00     0.210 C 
ENDBRANCH  31  36
ENDBRANCH  26  30
ENDBRANCH   1  24
TORSDOF 8
ENDMDL
MODEL 7
REMARK VINA RESULT:      -8.6      1.491      2.093
REMARK  8 active torsions:
REMARK  status: ('A' for Active; 'I' for Inactive)
REMARK    1  A    between atoms: O_2  and  C_3 
REMARK    2  A    between atoms: C_4  and  N_5 
REMARK       I    between atoms: N_5  and  C_6 
REMARK       I    between atoms: C_6  and  N_7 
REMARK    3  A    between atoms: N_7  and  C_8 
REMARK    4  A    between atoms: C_11  and  C_12 
REMARK    5  A    between atoms: C_12  and  C_13 
REMARK       I    between atoms: C_13  and  N_14 
REMARK    6  A    between atoms: N_14  and  C_15 
REMARK    7  A    between atoms: C_18  and  O_19 
REMARK    8  A    between atoms: O_19  and  C_20 
ROOT
HETATM    1  C   UNL     1      40.334  -9.392  10.558  1.00  0.00     0.174 A 
HETATM    2  S   UNL     1      39.857  -7.922   9.832  1.00  0.00    -0.062 SA
HETATM    3  C   UNL     1      41.351  -7.873   8.994  1.00  0.00     0.081 A 
HETATM    4  C   UNL     1      42.123  -8.975   9.324  1.00  0.00     0.052 A 
HETATM    5  N   UNL     1      41.503  -9.858  10.198  1.00  0.00    -0.228 NA
ENDROOT
BRANCH   4   6
HETATM    6  C   UNL     1      43.488  -9.335   8.838  1.00  0.00     0.163 C 
BRANCH   6   7
HETATM    7  C   UNL     1      43.513 -10.627   8.038  1.00  0.00     0.227 C 
HETATM    8  N   UNL     1      42.609 -10.648   6.985  1.00  0.00    -0.327 N 
HETATM    9  H   UNL     1      42.036  -9.823   6.855  1.00  0.00     0.169 HD
HETATM   10  O   UNL     1      44.283 -11.535   8.345  1.00  0.00    -0.273 OA
BRANCH   8  11
HETATM   11  C   UNL     1      42.409 -11.690   6.053  1.00  0.00     0.034 A 
HETATM   12  C   UNL     1      41.402 -12.652   6.163  1.00  0.00     0.032 A 
HETATM   13  C   UNL     1      41.276 -13.665   5.207  1.00  0.00     0.039 A 
HETATM   14  C   UNL     1      42.149 -13.716   4.125  1.00  0.00     0.076 A 
HETATM   15  C   UNL     1      43.173 -12.777   4.009  1.00  0.00     0.039 A 
HETATM   16  C   UNL     1      43.291 -11.759   4.963  1.00  0.00     0.032 A 
BRANCH  14  17
HETATM   17  O   UNL     1      42.025 -14.775   3.261  1.00  0.00    -0.311 OA
BRANCH  17  18
HETATM   18  C   UNL     1      42.699 -15.944   3.539  1.00  0.00     0.076 A 
HETATM   19  C   UNL     1      42.712 -16.885   2.506  1.00  0.00     0.037 A 
HETATM   20  C   UNL     1      43.397 -18.092   2.659  1.00  0.00     0.003 A 
HETATM   21  C   UNL     1      44.077 -18.358   3.846  1.00  0.00     0.000 A 
HETATM   22  C   UNL     1      44.080 -17.415   4.874  1.00  0.00     0.003 A 
HETATM   23  C   UNL     1      43.400 -16.204   4.719  1.00  0.00     0.037 A 
ENDBRANCH  17  18
ENDBRANCH  14  17
ENDBRANCH   8  11
ENDBRANCH   6   7
ENDBRANCH   4   6
BRANCH   1  24
HETATM   24  N   UNL     1      39.396  -9.920  11.398  1.00  0.00    -0.287 N 
HETATM   25  C   UNL     1      39.599 -10.364  12.657  1.00  0.00     0.326 C 
HETATM   26  N   UNL     1      40.602  -9.908  13.443  1.00  0.00    -0.306 N 
HETATM   27  O   UNL     1      38.879 -11.273  13.084  1.00  0.00    -0.247 OA
HETATM   28  H   UNL     1      40.886 -10.585  14.137  1.00  0.00     0.171 HD
HETATM   29  H   UNL     1      38.544 -10.235  10.964  1.00  0.00     0.172 HD
BRANCH  26  30
HETATM   30  C   UNL     1      41.120  -8.605  13.606  1.00  0.00     0.069 A 
HETATM   31  C   UNL     1      40.355  -7.426  13.626  1.00  0.00     0.095 A 
HETATM   32  C   UNL     1      40.984  -6.182  13.758  1.00  0.00     0.039 A 
HETATM   33  C   UNL     1      42.366  -6.106  13.939  1.00  0.00     0.003 A 
HETATM   34  C   UNL     1      43.122  -7.274  13.990  1.00  0.00     0.002 A 
HETATM   35  C   UNL     1      42.500  -8.515  13.833  1.00  0.00     0.032 A 
BRANCH  31  36
HETATM   36  O   UNL     1      38.988  -7.488  13.523  1.00  0.00    -0.354 OA
HETATM   37  C   UNL     1      38.413  -6.241  13.139  1.00  0.00     0.210 C 
ENDBRANCH  31  36
ENDBRANCH  26  30
ENDBRANCH   1  24
TORSDOF 8
ENDMDL
MODEL 8
REMARK VINA RESULT:      -8.6      2.090      3.176
REMARK  8 active torsions:
REMARK  status: ('A' for Active; 'I' for Inactive)
REMARK    1  A    between atoms: O_2  and  C_3 
REMARK    2  A    between atoms: C_4  and  N_5 
REMARK       I    between atoms: N_5  and  C_6 
REMARK       I    between atoms: C_6  and  N_7 
REMARK    3  A    between atoms: N_7  and  C_8 
REMARK    4  A    between atoms: C_11  and  C_12 
REMARK    5  A    between atoms: C_12  and  C_13 
REMARK       I    between atoms: C_13  and  N_14 
REMARK    6  A    between atoms: N_14  and  C_15 
REMARK    7  A    between atoms: C_18  and  O_19 
REMARK    8  A    between atoms: O_19  and  C_20 
ROOT
HETATM    1  C   UNL     1      39.098  -9.713   9.174  1.00  0.00     0.174 A 
HETATM    2  S   UNL     1      39.549  -8.273   8.376  1.00  0.00    -0.062 SA
HETATM    3  C   UNL     1      39.410  -9.085   6.873  1.00  0.00     0.081 A 
HETATM    4  C   UNL     1      39.037 -10.403   7.072  1.00  0.00     0.052 A 
HETATM    5  N   UNL     1      38.824 -10.735   8.404  1.00  0.00    -0.228 NA
ENDROOT
BRANCH   4   6
HETATM    6  C   UNL     1      38.804 -11.470   6.054  1.00  0.00     0.163 C 
BRANCH   6   7
HETATM    7  C   UNL     1      40.062 -12.254   5.715  1.00  0.00     0.227 C 
HETATM    8  N   UNL     1      39.855 -13.267   4.790  1.00  0.00    -0.327 N 
HETATM    9  H   UNL     1      38.912 -13.383   4.439  1.00  0.00     0.169 HD
HETATM   10  O   UNL     1      41.133 -11.970   6.247  1.00  0.00    -0.273 OA
BRANCH   8  11
HETATM   11  C   UNL     1      40.823 -14.150   4.262  1.00  0.00     0.034 A 
HETATM   12  C   UNL     1      42.144 -13.787   3.992  1.00  0.00     0.032 A 
HETATM   13  C   UNL     1      43.042 -14.714   3.453  1.00  0.00     0.039 A 
HETATM   14  C   UNL     1      42.629 -16.017   3.192  1.00  0.00     0.076 A 
HETATM   15  C   UNL     1      41.309 -16.392   3.436  1.00  0.00     0.039 A 
HETATM   16  C   UNL     1      40.414 -15.464   3.983  1.00  0.00     0.032 A 
BRANCH  14  17
HETATM   17  O   UNL     1      43.532 -16.859   2.595  1.00  0.00    -0.311 OA
BRANCH  17  18
HETATM   18  C   UNL     1      43.651 -18.149   3.065  1.00  0.00     0.076 A 
HETATM   19  C   UNL     1      43.346 -19.151   2.140  1.00  0.00     0.037 A 
HETATM   20  C   UNL     1      43.468 -20.496   2.492  1.00  0.00     0.003 A 
HETATM   21  C   UNL     1      43.902 -20.843   3.770  1.00  0.00     0.000 A 
HETATM   22  C   UNL     1      44.223 -19.846   4.691  1.00  0.00     0.003 A 
HETATM   23  C   UNL     1      44.108 -18.499   4.337  1.00  0.00     0.037 A 
ENDBRANCH  17  18
ENDBRANCH  14  17
ENDBRANCH   8  11
ENDBRANCH   6   7
ENDBRANCH   4   6
BRANCH   1  24
HETATM   24  N   UNL     1      39.036  -9.592  10.533  1.00  0.00    -0.287 N 
HETATM   25  C   UNL     1      39.971  -9.992  11.421  1.00  0.00     0.326 C 
HETATM   26  N   UNL     1      41.283 -10.103  11.106  1.00  0.00    -0.306 N 
HETATM   27  O   UNL     1      39.602 -10.336  12.549  1.00  0.00    -0.247 OA
HETATM   28  H   UNL     1      41.762 -10.778  11.685  1.00  0.00     0.171 HD
HETATM   29  H   UNL     1      38.122  -9.422  10.919  1.00  0.00     0.172 HD
BRANCH  26  30
HETATM   30  C   UNL     1      42.108  -9.281  10.308  1.00  0.00     0.069 A 
HETATM   31  C   UNL     1      42.422  -7.939  10.582  1.00  0.00     0.095 A 
HETATM   32  C   UNL     1      43.223  -7.210   9.695  1.00  0.00     0.039 A 
HETATM   33  C   UNL     1      43.771  -7.827   8.570  1.00  0.00     0.003 A 
HETATM   34  C   UNL     1      43.521  -9.174   8.329  1.00  0.00     0.002 A 
HETATM   35  C   UNL     1      42.701  -9.898   9.198  1.00  0.00     0.032 A 
BRANCH  31  36
HETATM   36  O   UNL     1      41.951  -7.339  11.722  1.00  0.00    -0.354 OA
HETATM   37  C   UNL     1      40.928  -6.382  11.452  1.00  0.00     0.210 C 
ENDBRANCH  31  36
ENDBRANCH  26  30
ENDBRANCH   1  24
TORSDOF 8
ENDMDL
MODEL 9
REMARK VINA RESULT:      -8.5      1.712      2.142
REMARK  8 active torsions:
REMARK  status: ('A' for Active; 'I' for Inactive)
REMARK    1  A    between atoms: O_2  and  C_3 
REMARK    2  A    between atoms: C_4  and  N_5 
REMARK       I    between atoms: N_5  and  C_6 
REMARK       I    between atoms: C_6  and  N_7 
REMARK    3  A    between atoms: N_7  and  C_8 
REMARK    4  A    between atoms: C_11  and  C_12 
REMARK    5  A    between atoms: C_12  and  C_13 
REMARK       I    between atoms: C_13  and  N_14 
REMARK    6  A    between atoms: N_14  and  C_15 
REMARK    7  A    between atoms: C_18  and  O_19 
REMARK    8  A    between atoms: O_19  and  C_20 
ROOT
HETATM    1  C   UNL     1      41.478  -8.109   8.932  1.00  0.00     0.174 A 
HETATM    2  S   UNL     1      42.118  -6.629   9.492  1.00  0.00    -0.062 SA
HETATM    3  C   UNL     1      43.687  -7.164   9.055  1.00  0.00     0.081 A 
HETATM    4  C   UNL     1      43.627  -8.438   8.517  1.00  0.00     0.052 A 
HETATM    5  N   UNL     1      42.339  -8.950   8.419  1.00  0.00    -0.228 NA
ENDROOT
BRANCH   4   6
HETATM    6  C   UNL     1      44.744  -9.289   8.008  1.00  0.00     0.163 C 
BRANCH   6   7
HETATM    7  C   UNL     1      44.282 -10.656   7.531  1.00  0.00     0.227 C 
HETATM    8  N   UNL     1      43.532 -10.614   6.364  1.00  0.00    -0.327 N 
HETATM    9  H   UNL     1      43.371  -9.703   5.954  1.00  0.00     0.169 HD
HETATM   10  O   UNL     1      44.574 -11.667   8.165  1.00  0.00    -0.273 OA
BRANCH   8  11
HETATM   11  C   UNL     1      42.982 -11.712   5.665  1.00  0.00     0.034 A 
HETATM   12  C   UNL     1      41.883 -12.449   6.112  1.00  0.00     0.032 A 
HETATM   13  C   UNL     1      41.404 -13.534   5.372  1.00  0.00     0.039 A 
HETATM   14  C   UNL     1      42.011 -13.883   4.170  1.00  0.00     0.076 A 
HETATM   15  C   UNL     1      43.121 -13.172   3.718  1.00  0.00     0.039 A 
HETATM   16  C   UNL     1      43.594 -12.080   4.457  1.00  0.00     0.032 A 
BRANCH  14  17
HETATM   17  O   UNL     1      41.545 -15.001   3.527  1.00  0.00    -0.311 OA
BRANCH  17  18
HETATM   18  C   UNL     1      42.304 -16.151   3.555  1.00  0.00     0.076 A 
HETATM   19  C   UNL     1      42.437 -16.808   2.328  1.00  0.00     0.037 A 
HETATM   20  C   UNL     1      43.215 -17.962   2.227  1.00  0.00     0.003 A 
HETATM   21  C   UNL     1      43.868 -18.460   3.353  1.00  0.00     0.000 A 
HETATM   22  C   UNL     1      43.752 -17.799   4.575  1.00  0.00     0.003 A 
HETATM   23  C   UNL     1      42.979 -16.639   4.676  1.00  0.00     0.037 A 
ENDBRANCH  17  18
ENDBRANCH  14  17
ENDBRANCH   8  11
ENDBRANCH   6   7
ENDBRANCH   4   6
BRANCH   1  24
HETATM   24  N   UNL     1      40.121  -8.202   9.052  1.00  0.00    -0.287 N 
HETATM   25  C   UNL     1      39.435  -9.140   9.738  1.00  0.00     0.326 C 
HETATM   26  N   UNL     1      39.959  -9.809  10.792  1.00  0.00    -0.306 N 
HETATM   27  O   UNL     1      38.305  -9.449   9.344  1.00  0.00    -0.247 OA
HETATM   28  H   UNL     1      39.535 -10.717  10.922  1.00  0.00     0.171 HD
HETATM   29  H   UNL     1      39.582  -7.684   8.377  1.00  0.00     0.172 HD
BRANCH  26  30
HETATM   30  C   UNL     1      40.785  -9.360  11.845  1.00  0.00     0.069 A 
HETATM   31  C   UNL     1      42.135  -9.710  12.021  1.00  0.00     0.095 A 
HETATM   32  C   UNL     1      42.846  -9.231  13.127  1.00  0.00     0.039 A 
HETATM   33  C   UNL     1      42.244  -8.350  14.026  1.00  0.00     0.003 A 
HETATM   34  C   UNL     1      40.928  -7.944  13.820  1.00  0.00     0.002 A 
HETATM   35  C   UNL     1      40.208  -8.440  12.731  1.00  0.00     0.032 A 
BRANCH  31  36
HETATM   36  O   UNL     1      42.763 -10.517  11.106  1.00  0.00    -0.354 OA
HETATM   37  C   UNL     1      44.074 -10.895  11.523  1.00  0.00     0.210 C 
ENDBRANCH  31  36
ENDBRANCH  26  30
ENDBRANCH   1  24
TORSDOF 8
ENDMDL
MODEL 10
REMARK VINA RESULT:      -8.5      2.179      2.877
REMARK  8 active torsions:
REMARK  status: ('A' for Active; 'I' for Inactive)
REMARK    1  A    between atoms: O_2  and  C_3 
REMARK    2  A    between atoms: C_4  and  N_5 
REMARK       I    between atoms: N_5  and  C_6 
REMARK       I    between atoms: C_6  and  N_7 
REMARK    3  A    between atoms: N_7  and  C_8 
REMARK    4  A    between atoms: C_11  and  C_12 
REMARK    5  A    between atoms: C_12  and  C_13 
REMARK       I    between atoms: C_13  and  N_14 
REMARK    6  A    between atoms: N_14  and  C_15 
REMARK    7  A    between atoms: C_18  and  O_19 
REMARK    8  A    between atoms: O_19  and  C_20 
ROOT
HETATM    1  C   UNL     1      42.049  -8.700   8.651  1.00  0.00     0.174 A 
HETATM    2  S   UNL     1      42.880  -7.214   8.773  1.00  0.00    -0.062 SA
HETATM    3  C   UNL     1      44.368  -8.065   8.747  1.00  0.00     0.081 A 
HETATM    4  C   UNL     1      44.139  -9.428   8.655  1.00  0.00     0.052 A 
HETATM    5  N   UNL     1      42.796  -9.770   8.562  1.00  0.00    -0.228 NA
ENDROOT
BRANCH   4   6
HETATM    6  C   UNL     1      45.135 -10.539   8.608  1.00  0.00     0.163 C 
BRANCH   6   7
HETATM    7  C   UNL     1      44.925 -11.477   7.430  1.00  0.00     0.227 C 
HETATM    8  N   UNL     1      43.768 -12.237   7.523  1.00  0.00    -0.327 N 
HETATM    9  H   UNL     1      43.191 -12.097   8.343  1.00  0.00     0.169 HD
HETATM   10  O   UNL     1      45.741 -11.515   6.512  1.00  0.00    -0.273 OA
BRANCH   8  11
HETATM   11  C   UNL     1      43.288 -13.177   6.584  1.00  0.00     0.034 A 
HETATM   12  C   UNL     1      42.890 -14.475   6.914  1.00  0.00     0.032 A 
HETATM   13  C   UNL     1      42.440 -15.356   5.926  1.00  0.00     0.039 A 
HETATM   14  C   UNL     1      42.371 -14.941   4.599  1.00  0.00     0.076 A 
HETATM   15  C   UNL     1      42.783 -13.657   4.248  1.00  0.00     0.039 A 
HETATM   16  C   UNL     1      43.225 -12.775   5.241  1.00  0.00     0.032 A 
BRANCH  14  17
HETATM   17  O   UNL     1      41.994 -15.872   3.665  1.00  0.00    -0.311 OA
BRANCH  17  18
HETATM   18  C   UNL     1      42.719 -17.038   3.556  1.00  0.00     0.076 A 
HETATM   19  C   UNL     1      42.473 -17.787   2.402  1.00  0.00     0.037 A 
HETATM   20  C   UNL     1      43.178 -18.969   2.164  1.00  0.00     0.003 A 
HETATM   21  C   UNL     1      44.136 -19.401   3.080  1.00  0.00     0.000 A 
HETATM   22  C   UNL     1      44.396 -18.649   4.224  1.00  0.00     0.003 A 
HETATM   23  C   UNL     1      43.696 -17.462   4.459  1.00  0.00     0.037 A 
ENDBRANCH  17  18
ENDBRANCH  14  17
ENDBRANCH   8  11
ENDBRANCH   6   7
ENDBRANCH   4   6
BRANCH   1  24
HETATM   24  N   UNL     1      40.691  -8.568   8.615  1.00  0.00    -0.287 N 
HETATM   25  C   UNL     1      39.795  -9.232   9.377  1.00  0.00     0.326 C 
HETATM   26  N   UNL     1      40.099  -9.732  10.598  1.00  0.00    -0.306 N 
HETATM   27  O   UNL     1      38.672  -9.450   8.910  1.00  0.00    -0.247 OA
HETATM   28  H   UNL     1      39.519 -10.521  10.845  1.00  0.00     0.171 HD
HETATM   29  H   UNL     1      40.312  -8.131   7.790  1.00  0.00     0.172 HD
BRANCH  26  30
HETATM   30  C   UNL     1      40.885  -9.195  11.640  1.00  0.00     0.069 A 
HETATM   31  C   UNL     1      40.641  -7.975  12.293  1.00  0.00     0.095 A 
HETATM   32  C   UNL     1      41.515  -7.526  13.290  1.00  0.00     0.039 A 
HETATM   33  C   UNL     1      42.594  -8.314  13.691  1.00  0.00     0.003 A 
HETATM   34  C   UNL     1      42.803  -9.555  13.096  1.00  0.00     0.002 A 
HETATM   35  C   UNL     1      41.948  -9.995  12.083  1.00  0.00     0.032 A 
BRANCH  31  36
HETATM   36  O   UNL     1      39.543  -7.223  11.962  1.00  0.00    -0.354 OA
HETATM   37  C   UNL     1      39.895  -5.997  11.322  1.00  0.00     0.210 C 
ENDBRANCH  31  36
ENDBRANCH  26  30
ENDBRANCH   1  24
TORSDOF 8
ENDMDL
