MODEL 1
REMARK VINA RESULT:      -8.3      0.000      0.000
REMARK  6 active torsions:
REMARK  status: ('A' for Active; 'I' for Inactive)
REMARK    1  A    between atoms: C_2  and  S_3 
REMARK    2  A    between atoms: C_2  and  C_18 
REMARK    3  A    between atoms: S_3  and  C_4 
REMARK    4  A    between atoms: C_4  and  C_5 
REMARK       I    between atoms: C_5  and  N_6 
REMARK    5  A    between atoms: N_6  and  C_7 
REMARK    6  A    between atoms: C_10  and  C_11 
REMARK       I    between atoms: C_11  and  N_12 
ROOT
HETATM    1  C   UNL     1      40.636 -13.746   4.932  1.00  0.00     0.231 C 
HETATM    2  N   UNL     1      41.189 -14.492   3.905  1.00  0.00    -0.327 N 
HETATM    3  O   UNL     1      39.676 -12.984   4.840  1.00  0.00    -0.272 OA
HETATM    4  H   UNL     1      41.846 -15.216   4.170  1.00  0.00     0.169 HD
ENDROOT
BRANCH   1   5
HETATM    5  C   UNL     1      41.374 -13.929   6.254  1.00  0.00     0.177 C 
BRANCH   5   6
HETATM    6  S   UNL     1      41.336 -15.653   6.844  1.00  0.00    -0.147 SA
BRANCH   6   7
HETATM    7  C   UNL     1      43.084 -16.177   6.621  1.00  0.00     0.113 C 
HETATM    8  C   UNL     1      44.009 -14.982   6.403  1.00  0.00     0.029 C 
BRANCH   7   9
HETATM    9  C   UNL     1      43.236 -17.222   5.560  1.00  0.00     0.118 A 
HETATM   10  N   UNL     1      43.023 -17.086   4.265  1.00  0.00    -0.232 NA
HETATM   11  C   UNL     1      43.329 -18.307   3.708  1.00  0.00     0.085 A 
HETATM   12  C   UNL     1      43.720 -19.214   4.685  1.00  0.00     0.062 A 
HETATM   13  C   UNL     1      43.287 -18.723   2.370  1.00  0.00     0.034 A 
HETATM   14  N   UNL     1      43.649 -18.503   5.853  1.00  0.00    -0.342 N 
HETATM   15  C   UNL     1      44.069 -20.537   4.412  1.00  0.00     0.032 A 
HETATM   16  H   UNL     1      43.823 -18.864   6.781  1.00  0.00     0.167 HD
HETATM   17  C   UNL     1      44.016 -20.935   3.071  1.00  0.00     0.002 A 
HETATM   18  C   UNL     1      43.631 -20.046   2.064  1.00  0.00     0.002 A 
ENDBRANCH   7   9
ENDBRANCH   6   7
ENDBRANCH   5   6
ENDBRANCH   1   5
BRANCH   2  19
HETATM   19  C   UNL     1      40.811 -14.508   2.547  1.00  0.00     0.034 A 
HETATM   20  C   UNL     1      40.133 -15.562   1.932  1.00  0.00     0.030 A 
HETATM   21  C   UNL     1      39.804 -15.499   0.570  1.00  0.00     0.019 A 
HETATM   22  C   UNL     1      40.136 -14.370  -0.185  1.00  0.00     0.032 A 
HETATM   23  C   UNL     1      40.822 -13.317   0.426  1.00  0.00     0.019 A 
HETATM   24  C   UNL     1      41.153 -13.386   1.782  1.00  0.00     0.030 A 
BRANCH  22  25
HETATM   25  C   UNL     1      39.811 -14.251  -1.634  1.00  0.00     0.251 C 
HETATM   26  N   UNL     1      38.672 -14.897  -2.066  1.00  0.00    -0.361 N 
HETATM   27  C   UNL     1      38.259 -14.863  -3.446  1.00  0.00     0.149 C 
HETATM   28  H   UNL     1      38.084 -15.386  -1.406  1.00  0.00     0.162 HD
HETATM   29  O   UNL     1      40.528 -13.581  -2.368  1.00  0.00    -0.268 OA
ENDBRANCH  22  25
ENDBRANCH   2  19
TORSDOF 6
ENDMDL
MODEL 2
REMARK VINA RESULT:      -7.7      3.271      7.258
REMARK  6 active torsions:
REMARK  status: ('A' for Active; 'I' for Inactive)
REMARK    1  A    between atoms: C_2  and  S_3 
REMARK    2  A    between atoms: C_2  and  C_18 
REMARK    3  A    between atoms: S_3  and  C_4 
REMARK    4  A    between atoms: C_4  and  C_5 
REMARK       I    between atoms: C_5  and  N_6 
REMARK    5  A    between atoms: N_6  and  C_7 
REMARK    6  A    between atoms: C_10  and  C_11 
REMARK       I    between atoms: C_11  and  N_12 
ROOT
HETATM    1  C   UNL     1      43.083 -11.573   3.423  1.00  0.00     0.231 C 
HETATM    2  N   UNL     1      42.264 -12.681   3.276  1.00  0.00    -0.327 N 
HETATM    3  O   UNL     1      44.312 -11.573   3.410  1.00  0.00    -0.272 OA
HETATM    4  H   UNL     1      41.281 -12.502   3.113  1.00  0.00     0.169 HD
ENDROOT
BRANCH   1   5
HETATM    5  C   UNL     1      42.296 -10.286   3.647  1.00  0.00     0.177 C 
BRANCH   5   6
HETATM    6  S   UNL     1      40.738 -10.245   2.702  1.00  0.00    -0.147 SA
BRANCH   6   7
HETATM    7  C   UNL     1      41.340 -10.173   0.966  1.00  0.00     0.113 C 
HETATM    8  C   UNL     1      41.106  -8.798   0.343  1.00  0.00     0.029 C 
BRANCH   7   9
HETATM    9  C   UNL     1      40.796 -11.285   0.126  1.00  0.00     0.118 A 
HETATM   10  N   UNL     1      40.569 -12.532   0.496  1.00  0.00    -0.232 NA
HETATM   11  C   UNL     1      40.040 -13.157  -0.610  1.00  0.00     0.085 A 
HETATM   12  C   UNL     1      39.960 -12.280  -1.684  1.00  0.00     0.062 A 
HETATM   13  C   UNL     1      39.613 -14.482  -0.777  1.00  0.00     0.034 A 
HETATM   14  N   UNL     1      40.449 -11.099  -1.194  1.00  0.00    -0.342 N 
HETATM   15  C   UNL     1      39.482 -12.647  -2.943  1.00  0.00     0.032 A 
HETATM   16  H   UNL     1      40.581 -10.246  -1.719  1.00  0.00     0.167 HD
HETATM   17  C   UNL     1      39.065 -13.975  -3.093  1.00  0.00     0.002 A 
HETATM   18  C   UNL     1      39.129 -14.880  -2.031  1.00  0.00     0.002 A 
ENDBRANCH   7   9
ENDBRANCH   6   7
ENDBRANCH   5   6
ENDBRANCH   1   5
BRANCH   2  19
HETATM   19  C   UNL     1      42.651 -14.028   3.130  1.00  0.00     0.034 A 
HETATM   20  C   UNL     1      43.038 -14.608   1.920  1.00  0.00     0.030 A 
HETATM   21  C   UNL     1      43.398 -15.961   1.862  1.00  0.00     0.019 A 
HETATM   22  C   UNL     1      43.390 -16.745   3.020  1.00  0.00     0.032 A 
HETATM   23  C   UNL     1      42.994 -16.170   4.230  1.00  0.00     0.019 A 
HETATM   24  C   UNL     1      42.631 -14.821   4.284  1.00  0.00     0.030 A 
BRANCH  22  25
HETATM   25  C   UNL     1      43.762 -18.187   3.015  1.00  0.00     0.251 C 
HETATM   26  N   UNL     1      43.128 -18.985   2.085  1.00  0.00    -0.361 N 
HETATM   27  C   UNL     1      43.397 -20.398   1.990  1.00  0.00     0.149 C 
HETATM   28  H   UNL     1      42.478 -18.580   1.428  1.00  0.00     0.162 HD
HETATM   29  O   UNL     1      44.614 -18.601   3.793  1.00  0.00    -0.268 OA
ENDBRANCH  22  25
ENDBRANCH   2  19
TORSDOF 6
ENDMDL
MODEL 3
REMARK VINA RESULT:      -7.6      3.527      7.244
REMARK  6 active torsions:
REMARK  status: ('A' for Active; 'I' for Inactive)
REMARK    1  A    between atoms: C_2  and  S_3 
REMARK    2  A    between atoms: C_2  and  C_18 
REMARK    3  A    between atoms: S_3  and  C_4 
REMARK    4  A    between atoms: C_4  and  C_5 
REMARK       I    between atoms: C_5  and  N_6 
REMARK    5  A    between atoms: N_6  and  C_7 
REMARK    6  A    between atoms: C_10  and  C_11 
REMARK       I    between atoms: C_11  and  N_12 
ROOT
HETATM    1  C   UNL     1      41.293 -13.093   2.427  1.00  0.00     0.231 C 
HETATM    2  N   UNL     1      42.531 -13.602   2.783  1.00  0.00    -0.327 N 
HETATM    3  O   UNL     1      40.246 -13.731   2.334  1.00  0.00    -0.272 OA
HETATM    4  H   UNL     1      43.254 -12.928   3.005  1.00  0.00     0.169 HD
ENDROOT
BRANCH   1   5
HETATM    5  C   UNL     1      41.340 -11.603   2.109  1.00  0.00     0.177 C 
BRANCH   5   6
HETATM    6  S   UNL     1      40.705 -10.576   3.475  1.00  0.00    -0.147 SA
BRANCH   6   7
HETATM    7  C   UNL     1      40.896 -11.694   4.921  1.00  0.00     0.113 C 
HETATM    8  C   UNL     1      39.676 -11.646   5.838  1.00  0.00     0.029 C 
BRANCH   7   9
HETATM    9  C   UNL     1      42.178 -11.460   5.657  1.00  0.00     0.118 A 
HETATM   10  N   UNL     1      43.405 -11.646   5.209  1.00  0.00    -0.232 NA
HETATM   11  C   UNL     1      44.238 -11.263   6.235  1.00  0.00     0.085 A 
HETATM   12  C   UNL     1      43.505 -10.852   7.342  1.00  0.00     0.062 A 
HETATM   13  C   UNL     1      45.638 -11.249   6.301  1.00  0.00     0.034 A 
HETATM   14  N   UNL     1      42.200 -10.990   6.952  1.00  0.00    -0.342 N 
HETATM   15  C   UNL     1      44.088 -10.428   8.537  1.00  0.00     0.032 A 
HETATM   16  H   UNL     1      41.386 -10.822   7.527  1.00  0.00     0.167 HD
HETATM   17  C   UNL     1      45.486 -10.426   8.586  1.00  0.00     0.002 A 
HETATM   18  C   UNL     1      46.252 -10.829   7.489  1.00  0.00     0.002 A 
ENDBRANCH   7   9
ENDBRANCH   6   7
ENDBRANCH   5   6
ENDBRANCH   1   5
BRANCH   2  19
HETATM   19  C   UNL     1      42.866 -14.942   3.065  1.00  0.00     0.034 A 
HETATM   20  C   UNL     1      43.072 -15.445   4.351  1.00  0.00     0.030 A 
HETATM   21  C   UNL     1      43.414 -16.792   4.543  1.00  0.00     0.019 A 
HETATM   22  C   UNL     1      43.536 -17.652   3.446  1.00  0.00     0.032 A 
HETATM   23  C   UNL     1      43.339 -17.148   2.158  1.00  0.00     0.019 A 
HETATM   24  C   UNL     1      43.003 -15.805   1.971  1.00  0.00     0.030 A 
BRANCH  22  25
HETATM   25  C   UNL     1      43.897 -19.090   3.592  1.00  0.00     0.251 C 
HETATM   26  N   UNL     1      44.082 -19.552   4.878  1.00  0.00    -0.361 N 
HETATM   27  C   UNL     1      44.444 -20.921   5.146  1.00  0.00     0.149 C 
HETATM   28  H   UNL     1      43.936 -18.936   5.665  1.00  0.00     0.162 HD
HETATM   29  O   UNL     1      43.988 -19.801   2.598  1.00  0.00    -0.268 OA
ENDBRANCH  22  25
ENDBRANCH   2  19
TORSDOF 6
ENDMDL
MODEL 4
REMARK VINA RESULT:      -7.6      3.160      7.420
REMARK  6 active torsions:
REMARK  status: ('A' for Active; 'I' for Inactive)
REMARK    1  A    between atoms: C_2  and  S_3 
REMARK    2  A    between atoms: C_2  and  C_18 
REMARK    3  A    between atoms: S_3  and  C_4 
REMARK    4  A    between atoms: C_4  and  C_5 
REMARK       I    between atoms: C_5  and  N_6 
REMARK    5  A    between atoms: N_6  and  C_7 
REMARK    6  A    between atoms: C_10  and  C_11 
REMARK       I    between atoms: C_11  and  N_12 
ROOT
HETATM    1  C   UNL     1      43.002 -11.710   3.380  1.00  0.00     0.231 C 
HETATM    2  N   UNL     1      42.199 -12.831   3.248  1.00  0.00    -0.327 N 
HETATM    3  O   UNL     1      44.223 -11.706   3.528  1.00  0.00    -0.272 OA
HETATM    4  H   UNL     1      41.246 -12.674   2.941  1.00  0.00     0.169 HD
ENDROOT
BRANCH   1   5
HETATM    5  C   UNL     1      42.206 -10.410   3.361  1.00  0.00     0.177 C 
BRANCH   5   6
HETATM    6  S   UNL     1      40.692 -10.532   2.353  1.00  0.00    -0.147 SA
BRANCH   6   7
HETATM    7  C   UNL     1      41.372 -10.672   0.651  1.00  0.00     0.113 C 
HETATM    8  C   UNL     1      41.668  -9.302   0.045  1.00  0.00     0.029 C 
BRANCH   7   9
HETATM    9  C   UNL     1      40.518 -11.521  -0.237  1.00  0.00     0.118 A 
HETATM   10  N   UNL     1      39.225 -11.392  -0.467  1.00  0.00    -0.232 NA
HETATM   11  C   UNL     1      38.907 -12.379  -1.372  1.00  0.00     0.085 A 
HETATM   12  C   UNL     1      40.026 -13.140  -1.689  1.00  0.00     0.062 A 
HETATM   13  C   UNL     1      37.677 -12.697  -1.964  1.00  0.00     0.034 A 
HETATM   14  N   UNL     1      41.035 -12.578  -0.953  1.00  0.00    -0.342 N 
HETATM   15  C   UNL     1      39.996 -14.224  -2.566  1.00  0.00     0.032 A 
HETATM   16  H   UNL     1      41.989 -12.908  -0.902  1.00  0.00     0.167 HD
HETATM   17  C   UNL     1      38.758 -14.530  -3.143  1.00  0.00     0.002 A 
HETATM   18  C   UNL     1      37.616 -13.782  -2.849  1.00  0.00     0.002 A 
ENDBRANCH   7   9
ENDBRANCH   6   7
ENDBRANCH   5   6
ENDBRANCH   1   5
BRANCH   2  19
HETATM   19  C   UNL     1      42.588 -14.184   3.299  1.00  0.00     0.034 A 
HETATM   20  C   UNL     1      42.854 -14.882   4.478  1.00  0.00     0.030 A 
HETATM   21  C   UNL     1      43.245 -16.228   4.438  1.00  0.00     0.019 A 
HETATM   22  C   UNL     1      43.358 -16.893   3.213  1.00  0.00     0.032 A 
HETATM   23  C   UNL     1      43.102 -16.195   2.030  1.00  0.00     0.019 A 
HETATM   24  C   UNL     1      42.716 -14.853   2.075  1.00  0.00     0.030 A 
BRANCH  22  25
HETATM   25  C   UNL     1      43.771 -18.321   3.111  1.00  0.00     0.251 C 
HETATM   26  N   UNL     1      43.210 -19.054   2.087  1.00  0.00    -0.361 N 
HETATM   27  C   UNL     1      43.524 -20.448   1.893  1.00  0.00     0.149 C 
HETATM   28  H   UNL     1      42.584 -18.612   1.429  1.00  0.00     0.162 HD
HETATM   29  O   UNL     1      44.592 -18.777   3.899  1.00  0.00    -0.268 OA
ENDBRANCH  22  25
ENDBRANCH   2  19
TORSDOF 6
ENDMDL
MODEL 5
REMARK VINA RESULT:      -7.6      4.343      7.685
REMARK  6 active torsions:
REMARK  status: ('A' for Active; 'I' for Inactive)
REMARK    1  A    between atoms: C_2  and  S_3 
REMARK    2  A    between atoms: C_2  and  C_18 
REMARK    3  A    between atoms: S_3  and  C_4 
REMARK    4  A    between atoms: C_4  and  C_5 
REMARK       I    between atoms: C_5  and  N_6 
REMARK    5  A    between atoms: N_6  and  C_7 
REMARK    6  A    between atoms: C_10  and  C_11 
REMARK       I    between atoms: C_11  and  N_12 
ROOT
HETATM    1  C   UNL     1      42.785 -11.739   2.994  1.00  0.00     0.231 C 
HETATM    2  N   UNL     1      42.018 -12.880   2.824  1.00  0.00    -0.327 N 
HETATM    3  O   UNL     1      43.985 -11.705   3.259  1.00  0.00    -0.272 OA
HETATM    4  H   UNL     1      41.097 -12.753   2.420  1.00  0.00     0.169 HD
ENDROOT
BRANCH   1   5
HETATM    5  C   UNL     1      41.972 -10.457   2.852  1.00  0.00     0.177 C 
BRANCH   5   6
HETATM    6  S   UNL     1      41.706  -9.616   4.446  1.00  0.00    -0.147 SA
BRANCH   6   7
HETATM    7  C   UNL     1      41.813 -11.009   5.641  1.00  0.00     0.113 C 
HETATM    8  C   UNL     1      40.430 -11.544   6.011  1.00  0.00     0.029 C 
BRANCH   7   9
HETATM    9  C   UNL     1      42.637 -10.670   6.842  1.00  0.00     0.118 A 
HETATM   10  N   UNL     1      43.939 -10.831   6.992  1.00  0.00    -0.232 NA
HETATM   11  C   UNL     1      44.232 -10.342   8.245  1.00  0.00     0.085 A 
HETATM   12  C   UNL     1      43.083  -9.891   8.882  1.00  0.00     0.062 A 
HETATM   13  C   UNL     1      45.460 -10.262   8.916  1.00  0.00     0.034 A 
HETATM   14  N   UNL     1      42.083 -10.113   7.974  1.00  0.00    -0.342 N 
HETATM   15  C   UNL     1      43.076  -9.362  10.174  1.00  0.00     0.032 A 
HETATM   16  H   UNL     1      41.098  -9.943   8.120  1.00  0.00     0.167 HD
HETATM   17  C   UNL     1      44.311  -9.294  10.830  1.00  0.00     0.002 A 
HETATM   18  C   UNL     1      45.485  -9.736  10.215  1.00  0.00     0.002 A 
ENDBRANCH   7   9
ENDBRANCH   6   7
ENDBRANCH   5   6
ENDBRANCH   1   5
BRANCH   2  19
HETATM   19  C   UNL     1      42.423 -14.223   2.960  1.00  0.00     0.034 A 
HETATM   20  C   UNL     1      42.342 -14.951   4.148  1.00  0.00     0.030 A 
HETATM   21  C   UNL     1      42.777 -16.283   4.198  1.00  0.00     0.019 A 
HETATM   22  C   UNL     1      43.284 -16.904   3.051  1.00  0.00     0.032 A 
HETATM   23  C   UNL     1      43.374 -16.174   1.863  1.00  0.00     0.019 A 
HETATM   24  C   UNL     1      42.943 -14.846   1.819  1.00  0.00     0.030 A 
BRANCH  22  25
HETATM   25  C   UNL     1      43.761 -18.315   3.048  1.00  0.00     0.251 C 
HETATM   26  N   UNL     1      43.207 -19.152   2.102  1.00  0.00    -0.361 N 
HETATM   27  C   UNL     1      43.580 -20.541   2.007  1.00  0.00     0.149 C 
HETATM   28  H   UNL     1      42.542 -18.792   1.432  1.00  0.00     0.162 HD
HETATM   29  O   UNL     1      44.624 -18.670   3.843  1.00  0.00    -0.268 OA
ENDBRANCH  22  25
ENDBRANCH   2  19
TORSDOF 6
ENDMDL
MODEL 6
REMARK VINA RESULT:      -7.6      3.144      5.814
REMARK  6 active torsions:
REMARK  status: ('A' for Active; 'I' for Inactive)
REMARK    1  A    between atoms: C_2  and  S_3 
REMARK    2  A    between atoms: C_2  and  C_18 
REMARK    3  A    between atoms: S_3  and  C_4 
REMARK    4  A    between atoms: C_4  and  C_5 
REMARK       I    between atoms: C_5  and  N_6 
REMARK    5  A    between atoms: N_6  and  C_7 
REMARK    6  A    between atoms: C_10  and  C_11 
REMARK       I    between atoms: C_11  and  N_12 
ROOT
HETATM    1  C   UNL     1      41.469 -11.732   2.324  1.00  0.00     0.231 C 
HETATM    2  N   UNL     1      40.967 -13.006   2.122  1.00  0.00    -0.327 N 
HETATM    3  O   UNL     1      42.623 -11.448   2.638  1.00  0.00    -0.272 OA
HETATM    4  H   UNL     1      40.057 -13.073   1.681  1.00  0.00     0.169 HD
ENDROOT
BRANCH   1   5
HETATM    5  C   UNL     1      40.410 -10.649   2.149  1.00  0.00     0.177 C 
BRANCH   5   6
HETATM    6  S   UNL     1      38.941 -10.932   3.190  1.00  0.00    -0.147 SA
BRANCH   6   7
HETATM    7  C   UNL     1      39.628 -10.749   4.886  1.00  0.00     0.113 C 
HETATM    8  C   UNL     1      40.601  -9.576   4.978  1.00  0.00     0.029 C 
BRANCH   7   9
HETATM    9  C   UNL     1      40.213 -12.024   5.406  1.00  0.00     0.118 A 
HETATM   10  N   UNL     1      39.564 -13.113   5.773  1.00  0.00    -0.232 NA
HETATM   11  C   UNL     1      40.534 -14.018   6.141  1.00  0.00     0.085 A 
HETATM   12  C   UNL     1      41.802 -13.464   6.014  1.00  0.00     0.062 A 
HETATM   13  C   UNL     1      40.407 -15.333   6.607  1.00  0.00     0.034 A 
HETATM   14  N   UNL     1      41.572 -12.196   5.550  1.00  0.00    -0.342 N 
HETATM   15  C   UNL     1      42.975 -14.146   6.338  1.00  0.00     0.032 A 
HETATM   16  H   UNL     1      42.273 -11.487   5.384  1.00  0.00     0.167 HD
HETATM   17  C   UNL     1      42.829 -15.457   6.807  1.00  0.00     0.002 A 
HETATM   18  C   UNL     1      41.568 -16.044   6.941  1.00  0.00     0.002 A 
ENDBRANCH   7   9
ENDBRANCH   6   7
ENDBRANCH   5   6
ENDBRANCH   1   5
BRANCH   2  19
HETATM   19  C   UNL     1      41.640 -14.235   2.273  1.00  0.00     0.034 A 
HETATM   20  C   UNL     1      42.934 -14.484   1.810  1.00  0.00     0.030 A 
HETATM   21  C   UNL     1      43.527 -15.741   1.994  1.00  0.00     0.019 A 
HETATM   22  C   UNL     1      42.834 -16.758   2.661  1.00  0.00     0.032 A 
HETATM   23  C   UNL     1      41.537 -16.514   3.118  1.00  0.00     0.019 A 
HETATM   24  C   UNL     1      40.948 -15.261   2.928  1.00  0.00     0.030 A 
BRANCH  22  25
HETATM   25  C   UNL     1      43.416 -18.111   2.884  1.00  0.00     0.251 C 
HETATM   26  N   UNL     1      43.028 -19.101   2.006  1.00  0.00    -0.361 N 
HETATM   27  C   UNL     1      43.514 -20.453   2.125  1.00  0.00     0.149 C 
HETATM   28  H   UNL     1      42.410 -18.885   1.237  1.00  0.00     0.162 HD
HETATM   29  O   UNL     1      44.218 -18.289   3.793  1.00  0.00    -0.268 OA
ENDBRANCH  22  25
ENDBRANCH   2  19
TORSDOF 6
ENDMDL
MODEL 7
REMARK VINA RESULT:      -7.5      1.738      2.336
REMARK  6 active torsions:
REMARK  status: ('A' for Active; 'I' for Inactive)
REMARK    1  A    between atoms: C_2  and  S_3 
REMARK    2  A    between atoms: C_2  and  C_18 
REMARK    3  A    between atoms: S_3  and  C_4 
REMARK    4  A    between atoms: C_4  and  C_5 
REMARK       I    between atoms: C_5  and  N_6 
REMARK    5  A    between atoms: N_6  and  C_7 
REMARK    6  A    between atoms: C_10  and  C_11 
REMARK       I    between atoms: C_11  and  N_12 
ROOT
HETATM    1  C   UNL     1      40.119 -12.074   3.910  1.00  0.00     0.231 C 
HETATM    2  N   UNL     1      40.988 -12.547   2.941  1.00  0.00    -0.327 N 
HETATM    3  O   UNL     1      38.917 -11.860   3.765  1.00  0.00    -0.272 OA
HETATM    4  H   UNL     1      41.899 -12.856   3.258  1.00  0.00     0.169 HD
ENDROOT
BRANCH   1   5
HETATM    5  C   UNL     1      40.815 -11.790   5.236  1.00  0.00     0.177 C 
BRANCH   5   6
HETATM    6  S   UNL     1      42.632 -11.845   5.098  1.00  0.00    -0.147 SA
BRANCH   6   7
HETATM    7  C   UNL     1      43.048 -13.349   6.070  1.00  0.00     0.113 C 
HETATM    8  C   UNL     1      44.303 -13.146   6.916  1.00  0.00     0.029 C 
BRANCH   7   9
HETATM    9  C   UNL     1      43.122 -14.577   5.219  1.00  0.00     0.118 A 
HETATM   10  N   UNL     1      42.675 -14.726   3.986  1.00  0.00    -0.232 NA
HETATM   11  C   UNL     1      43.005 -16.012   3.623  1.00  0.00     0.085 A 
HETATM   12  C   UNL     1      43.651 -16.670   4.663  1.00  0.00     0.062 A 
HETATM   13  C   UNL     1      42.775 -16.696   2.421  1.00  0.00     0.034 A 
HETATM   14  N   UNL     1      43.710 -15.740   5.666  1.00  0.00    -0.342 N 
HETATM   15  C   UNL     1      44.082 -17.995   4.585  1.00  0.00     0.032 A 
HETATM   16  H   UNL     1      44.077 -15.890   6.595  1.00  0.00     0.167 HD
HETATM   17  C   UNL     1      43.839 -18.663   3.379  1.00  0.00     0.002 A 
HETATM   18  C   UNL     1      43.196 -18.028   2.313  1.00  0.00     0.002 A 
ENDBRANCH   7   9
ENDBRANCH   6   7
ENDBRANCH   5   6
ENDBRANCH   1   5
BRANCH   2  19
HETATM   19  C   UNL     1      40.703 -12.839   1.592  1.00  0.00     0.034 A 
HETATM   20  C   UNL     1      40.838 -11.925   0.545  1.00  0.00     0.030 A 
HETATM   21  C   UNL     1      40.523 -12.296  -0.770  1.00  0.00     0.019 A 
HETATM   22  C   UNL     1      40.084 -13.594  -1.051  1.00  0.00     0.032 A 
HETATM   23  C   UNL     1      39.939 -14.507  -0.004  1.00  0.00     0.019 A 
HETATM   24  C   UNL     1      40.250 -14.133   1.305  1.00  0.00     0.030 A 
BRANCH  22  25
HETATM   25  C   UNL     1      39.735 -14.041  -2.429  1.00  0.00     0.251 C 
HETATM   26  N   UNL     1      38.426 -14.422  -2.641  1.00  0.00    -0.361 N 
HETATM   27  C   UNL     1      37.970 -14.882  -3.928  1.00  0.00     0.149 C 
HETATM   28  H   UNL     1      37.750 -14.355  -1.894  1.00  0.00     0.162 HD
HETATM   29  O   UNL     1      40.587 -14.029  -3.309  1.00  0.00    -0.268 OA
ENDBRANCH  22  25
ENDBRANCH   2  19
TORSDOF 6
ENDMDL
MODEL 8
REMARK VINA RESULT:      -7.5      3.424      7.011
REMARK  6 active torsions:
REMARK  status: ('A' for Active; 'I' for Inactive)
REMARK    1  A    between atoms: C_2  and  S_3 
REMARK    2  A    between atoms: C_2  and  C_18 
REMARK    3  A    between atoms: S_3  and  C_4 
REMARK    4  A    between atoms: C_4  and  C_5 
REMARK       I    between atoms: C_5  and  N_6 
REMARK    5  A    between atoms: N_6  and  C_7 
REMARK    6  A    between atoms: C_10  and  C_11 
REMARK       I    between atoms: C_11  and  N_12 
ROOT
HETATM    1  C   UNL     1      41.864 -11.714   2.582  1.00  0.00     0.231 C 
HETATM    2  N   UNL     1      41.705 -12.318   3.818  1.00  0.00    -0.327 N 
HETATM    3  O   UNL     1      42.685 -10.844   2.300  1.00  0.00    -0.272 OA
HETATM    4  H   UNL     1      41.124 -13.147   3.848  1.00  0.00     0.169 HD
ENDROOT
BRANCH   1   5
HETATM    5  C   UNL     1      40.861 -12.216   1.549  1.00  0.00     0.177 C 
BRANCH   5   6
HETATM    6  S   UNL     1      39.853 -13.602   2.169  1.00  0.00    -0.147 SA
BRANCH   6   7
HETATM    7  C   UNL     1      40.690 -15.056   1.418  1.00  0.00     0.113 C 
HETATM    8  C   UNL     1      39.692 -16.003   0.754  1.00  0.00     0.029 C 
BRANCH   7   9
HETATM    9  C   UNL     1      41.593 -15.757   2.383  1.00  0.00     0.118 A 
HETATM   10  N   UNL     1      41.820 -15.439   3.644  1.00  0.00    -0.232 NA
HETATM   11  C   UNL     1      42.689 -16.395   4.118  1.00  0.00     0.085 A 
HETATM   12  C   UNL     1      43.015 -17.307   3.121  1.00  0.00     0.062 A 
HETATM   13  C   UNL     1      43.256 -16.545   5.391  1.00  0.00     0.034 A 
HETATM   14  N   UNL     1      42.310 -16.879   2.028  1.00  0.00    -0.342 N 
HETATM   15  C   UNL     1      43.894 -18.374   3.311  1.00  0.00     0.032 A 
HETATM   16  H   UNL     1      42.343 -17.283   1.103  1.00  0.00     0.167 HD
HETATM   17  C   UNL     1      44.454 -18.505   4.587  1.00  0.00     0.002 A 
HETATM   18  C   UNL     1      44.144 -17.607   5.612  1.00  0.00     0.002 A 
ENDBRANCH   7   9
ENDBRANCH   6   7
ENDBRANCH   5   6
ENDBRANCH   1   5
BRANCH   2  19
HETATM   19  C   UNL     1      42.403 -12.043   5.011  1.00  0.00     0.034 A 
HETATM   20  C   UNL     1      43.468 -12.807   5.491  1.00  0.00     0.030 A 
HETATM   21  C   UNL     1      44.102 -12.469   6.695  1.00  0.00     0.019 A 
HETATM   22  C   UNL     1      43.684 -11.349   7.423  1.00  0.00     0.032 A 
HETATM   23  C   UNL     1      42.613 -10.588   6.948  1.00  0.00     0.019 A 
HETATM   24  C   UNL     1      41.981 -10.932   5.750  1.00  0.00     0.030 A 
BRANCH  22  25
HETATM   25  C   UNL     1      44.321 -10.944   8.707  1.00  0.00     0.251 C 
HETATM   26  N   UNL     1      43.469 -10.615   9.741  1.00  0.00    -0.361 N 
HETATM   27  C   UNL     1      43.966 -10.198  11.028  1.00  0.00     0.149 C 
HETATM   28  H   UNL     1      42.469 -10.691   9.619  1.00  0.00     0.162 HD
HETATM   29  O   UNL     1      45.542 -10.944   8.810  1.00  0.00    -0.268 OA
ENDBRANCH  22  25
ENDBRANCH   2  19
TORSDOF 6
ENDMDL
MODEL 9
REMARK VINA RESULT:      -7.5      3.147      6.365
REMARK  6 active torsions:
REMARK  status: ('A' for Active; 'I' for Inactive)
REMARK    1  A    between atoms: C_2  and  S_3 
REMARK    2  A    between atoms: C_2  and  C_18 
REMARK    3  A    between atoms: S_3  and  C_4 
REMARK    4  A    between atoms: C_4  and  C_5 
REMARK       I    between atoms: C_5  and  N_6 
REMARK    5  A    between atoms: N_6  and  C_7 
REMARK    6  A    between atoms: C_10  and  C_11 
REMARK       I    between atoms: C_11  and  N_12 
ROOT
HETATM    1  C   UNL     1      40.132 -12.111   6.037  1.00  0.00     0.231 C 
HETATM    2  N   UNL     1      41.419 -12.623   6.028  1.00  0.00    -0.327 N 
HETATM    3  O   UNL     1      39.093 -12.763   6.110  1.00  0.00    -0.272 OA
HETATM    4  H   UNL     1      42.174 -11.959   6.159  1.00  0.00     0.169 HD
ENDROOT
BRANCH   1   5
HETATM    5  C   UNL     1      40.102 -10.592   5.907  1.00  0.00     0.177 C 
BRANCH   5   6
HETATM    6  S   UNL     1      41.140  -9.987   4.536  1.00  0.00    -0.147 SA
BRANCH   6   7
HETATM    7  C   UNL     1      40.361 -10.789   3.078  1.00  0.00     0.113 C 
HETATM    8  C   UNL     1      38.836 -10.755   3.160  1.00  0.00     0.029 C 
BRANCH   7   9
HETATM    9  C   UNL     1      40.892 -12.166   2.831  1.00  0.00     0.118 A 
HETATM   10  N   UNL     1      42.155 -12.526   2.697  1.00  0.00    -0.232 NA
HETATM   11  C   UNL     1      42.136 -13.891   2.523  1.00  0.00     0.085 A 
HETATM   12  C   UNL     1      40.833 -14.374   2.533  1.00  0.00     0.062 A 
HETATM   13  C   UNL     1      43.196 -14.790   2.338  1.00  0.00     0.034 A 
HETATM   14  N   UNL     1      40.061 -13.260   2.726  1.00  0.00    -0.342 N 
HETATM   15  C   UNL     1      40.510 -15.720   2.357  1.00  0.00     0.032 A 
HETATM   16  H   UNL     1      39.051 -13.231   2.742  1.00  0.00     0.167 HD
HETATM   17  C   UNL     1      41.581 -16.602   2.168  1.00  0.00     0.002 A 
HETATM   18  C   UNL     1      42.902 -16.148   2.157  1.00  0.00     0.002 A 
ENDBRANCH   7   9
ENDBRANCH   6   7
ENDBRANCH   5   6
ENDBRANCH   1   5
BRANCH   2  19
HETATM   19  C   UNL     1      41.812 -13.976   6.054  1.00  0.00     0.034 A 
HETATM   20  C   UNL     1      40.923 -15.051   6.103  1.00  0.00     0.030 A 
HETATM   21  C   UNL     1      41.400 -16.369   6.137  1.00  0.00     0.019 A 
HETATM   22  C   UNL     1      42.776 -16.623   6.103  1.00  0.00     0.032 A 
HETATM   23  C   UNL     1      43.668 -15.548   6.063  1.00  0.00     0.019 A 
HETATM   24  C   UNL     1      43.188 -14.236   6.034  1.00  0.00     0.030 A 
BRANCH  22  25
HETATM   25  C   UNL     1      43.337 -18.002   6.137  1.00  0.00     0.251 C 
HETATM   26  N   UNL     1      43.787 -18.515   4.938  1.00  0.00    -0.361 N 
HETATM   27  C   UNL     1      44.341 -19.842   4.842  1.00  0.00     0.149 C 
HETATM   28  H   UNL     1      43.761 -17.950   4.102  1.00  0.00     0.162 HD
HETATM   29  O   UNL     1      43.407 -18.608   7.201  1.00  0.00    -0.268 OA
ENDBRANCH  22  25
ENDBRANCH   2  19
TORSDOF 6
ENDMDL
MODEL 10
REMARK VINA RESULT:      -7.4      1.600      2.134
REMARK  6 active torsions:
REMARK  status: ('A' for Active; 'I' for Inactive)
REMARK    1  A    between atoms: C_2  and  S_3 
REMARK    2  A    between atoms: C_2  and  C_18 
REMARK    3  A    between atoms: S_3  and  C_4 
REMARK    4  A    between atoms: C_4  and  C_5 
REMARK       I    between atoms: C_5  and  N_6 
REMARK    5  A    between atoms: N_6  and  C_7 
REMARK    6  A    between atoms: C_10  and  C_11 
REMARK       I    between atoms: C_11  and  N_12 
ROOT
HETATM    1  C   UNL     1      42.020 -11.975   4.701  1.00  0.00     0.231 C 
HETATM    2  N   UNL     1      41.171 -12.940   4.185  1.00  0.00    -0.327 N 
HETATM    3  O   UNL     1      42.469 -11.005   4.095  1.00  0.00    -0.272 OA
HETATM    4  H   UNL     1      40.733 -13.565   4.851  1.00  0.00     0.169 HD
ENDROOT
BRANCH   1   5
HETATM    5  C   UNL     1      42.401 -12.244   6.152  1.00  0.00     0.177 C 
BRANCH   5   6
HETATM    6  S   UNL     1      43.749 -13.461   6.308  1.00  0.00    -0.147 SA
BRANCH   6   7
HETATM    7  C   UNL     1      42.833 -15.002   6.713  1.00  0.00     0.113 C 
HETATM    8  C   UNL     1      43.102 -15.460   8.145  1.00  0.00     0.029 C 
BRANCH   7   9
HETATM    9  C   UNL     1      43.068 -16.087   5.710  1.00  0.00     0.118 A 
HETATM   10  N   UNL     1      43.816 -17.165   5.854  1.00  0.00    -0.232 NA
HETATM   11  C   UNL     1      43.687 -17.868   4.678  1.00  0.00     0.085 A 
HETATM   12  C   UNL     1      42.857 -17.197   3.788  1.00  0.00     0.062 A 
HETATM   13  C   UNL     1      44.260 -19.087   4.290  1.00  0.00     0.034 A 
HETATM   14  N   UNL     1      42.480 -16.068   4.464  1.00  0.00    -0.342 N 
HETATM   15  C   UNL     1      42.563 -17.667   2.508  1.00  0.00     0.032 A 
HETATM   16  H   UNL     1      41.907 -15.320   4.099  1.00  0.00     0.167 HD
HETATM   17  C   UNL     1      43.148 -18.883   2.136  1.00  0.00     0.002 A 
HETATM   18  C   UNL     1      43.983 -19.584   3.010  1.00  0.00     0.002 A 
ENDBRANCH   7   9
ENDBRANCH   6   7
ENDBRANCH   5   6
ENDBRANCH   1   5
BRANCH   2  19
HETATM   19  C   UNL     1      40.683 -13.046   2.867  1.00  0.00     0.034 A 
HETATM   20  C   UNL     1      39.622 -12.294   2.359  1.00  0.00     0.030 A 
HETATM   21  C   UNL     1      39.192 -12.470   1.036  1.00  0.00     0.019 A 
HETATM   22  C   UNL     1      39.834 -13.393   0.202  1.00  0.00     0.032 A 
HETATM   23  C   UNL     1      40.890 -14.153   0.711  1.00  0.00     0.019 A 
HETATM   24  C   UNL     1      41.312 -13.977   2.031  1.00  0.00     0.030 A 
BRANCH  22  25
HETATM   25  C   UNL     1      39.419 -13.621  -1.210  1.00  0.00     0.251 C 
HETATM   26  N   UNL     1      38.076 -13.474  -1.489  1.00  0.00    -0.361 N 
HETATM   27  C   UNL     1      37.552 -13.678  -2.816  1.00  0.00     0.149 C 
HETATM   28  H   UNL     1      37.434 -13.187  -0.764  1.00  0.00     0.162 HD
HETATM   29  O   UNL     1      40.260 -13.896  -2.057  1.00  0.00    -0.268 OA
ENDBRANCH  22  25
ENDBRANCH   2  19
TORSDOF 6
ENDMDL
