MODEL 1
REMARK VINA RESULT:      -7.2      0.000      0.000
REMARK  8 active torsions:
REMARK  status: ('A' for Active; 'I' for Inactive)
REMARK    1  A    between atoms: N_4  and  C_5 
REMARK    2  A    between atoms: C_5  and  C_6 
REMARK    3  A    between atoms: C_6  and  C_7 
REMARK       I    between atoms: C_7  and  N_8 
REMARK    4  A    between atoms: N_8  and  N_9 
REMARK    5  A    between atoms: N_9  and  C_10 
REMARK    6  A    between atoms: C_10  and  N_11 
REMARK    7  A    between atoms: N_11  and  C_12 
REMARK    8  A    between atoms: C_13  and  O_14 
ROOT
HETATM    1  C   UNL     1      41.343 -15.045   1.305  1.00  0.00     0.237 C 
HETATM    2  N   UNL     1      40.605 -15.122   2.469  1.00  0.00    -0.268 N 
HETATM    3  O   UNL     1      40.888 -14.594   0.256  1.00  0.00    -0.272 OA
HETATM    4  H   UNL     1      41.038 -15.282   3.377  1.00  0.00     0.190 HD
ENDROOT
BRANCH   2   5
HETATM    5  N   UNL     1      39.341 -14.503   2.481  1.00  0.00    -0.274 N 
HETATM    6  H   UNL     1      38.707 -14.860   1.766  1.00  0.00     0.189 HD
BRANCH   5   7
HETATM    7  C   UNL     1      39.210 -13.167   2.872  1.00  0.00     0.191 C 
HETATM    8  S   UNL     1      38.846 -11.950   1.777  1.00  0.00    -0.039 SA
BRANCH   7   9
HETATM    9  N   UNL     1      39.490 -13.048   4.222  1.00  0.00    -0.330 N 
HETATM   10  H   UNL     1      38.735 -13.337   4.838  1.00  0.00     0.168 HD
BRANCH   9  11
HETATM   11  C   UNL     1      40.677 -12.774   4.945  1.00  0.00     0.068 A 
HETATM   12  C   UNL     1      41.291 -13.881   5.578  1.00  0.00     0.095 A 
HETATM   13  C   UNL     1      42.452 -13.699   6.334  1.00  0.00     0.039 A 
HETATM   14  C   UNL     1      43.002 -12.424   6.475  1.00  0.00     0.003 A 
HETATM   15  C   UNL     1      42.388 -11.330   5.872  1.00  0.00     0.002 A 
HETATM   16  C   UNL     1      41.226 -11.503   5.116  1.00  0.00     0.032 A 
BRANCH  12  17
HETATM   17  O   UNL     1      40.660 -15.092   5.387  1.00  0.00    -0.354 OA
HETATM   18  C   UNL     1      40.397 -15.873   6.547  1.00  0.00     0.210 C 
ENDBRANCH  12  17
ENDBRANCH   9  11
ENDBRANCH   7   9
ENDBRANCH   5   7
ENDBRANCH   2   5
BRANCH   1  19
HETATM   19  C   UNL     1      42.759 -15.534   1.465  1.00  0.00     0.126 C 
BRANCH  19  20
HETATM   20  C   UNL     1      43.067 -15.804   2.931  1.00  0.00     0.160 C 
BRANCH  20  21
HETATM   21  N   UNL     1      43.344 -17.211   3.169  1.00  0.00    -0.272 N 
HETATM   22  N   UNL     1      43.247 -18.062   2.127  1.00  0.00    -0.176 NA
HETATM   23  C   UNL     1      43.556 -19.258   2.646  1.00  0.00     0.070 A 
HETATM   24  C   UNL     1      43.563 -20.464   1.784  1.00  0.00     0.074 C 
HETATM   25  C   UNL     1      43.845 -19.149   4.020  1.00  0.00     0.060 A 
HETATM   26  C   UNL     1      43.696 -17.821   4.348  1.00  0.00     0.046 A 
HETATM   27 BR   UNL     1      44.336 -20.568   5.139  1.00  0.00    -0.047 Br
HETATM   28  C   UNL     1      43.862 -17.099   5.632  1.00  0.00     0.071 C 
ENDBRANCH  20  21
ENDBRANCH  19  20
ENDBRANCH   1  19
TORSDOF 8
ENDMDL
MODEL 2
REMARK VINA RESULT:      -7.2      2.136      4.346
REMARK  8 active torsions:
REMARK  status: ('A' for Active; 'I' for Inactive)
REMARK    1  A    between atoms: N_4  and  C_5 
REMARK    2  A    between atoms: C_5  and  C_6 
REMARK    3  A    between atoms: C_6  and  C_7 
REMARK       I    between atoms: C_7  and  N_8 
REMARK    4  A    between atoms: N_8  and  N_9 
REMARK    5  A    between atoms: N_9  and  C_10 
REMARK    6  A    between atoms: C_10  and  N_11 
REMARK    7  A    between atoms: N_11  and  C_12 
REMARK    8  A    between atoms: C_13  and  O_14 
ROOT
HETATM    1  C   UNL     1      41.488 -15.528   6.795  1.00  0.00     0.237 C 
HETATM    2  N   UNL     1      41.636 -14.162   6.665  1.00  0.00    -0.268 N 
HETATM    3  O   UNL     1      40.390 -16.074   6.876  1.00  0.00    -0.272 OA
HETATM    4  H   UNL     1      42.516 -13.736   6.377  1.00  0.00     0.190 HD
ENDROOT
BRANCH   2   5
HETATM    5  N   UNL     1      40.474 -13.397   6.451  1.00  0.00    -0.274 N 
HETATM    6  H   UNL     1      39.637 -13.806   6.867  1.00  0.00     0.189 HD
BRANCH   5   7
HETATM    7  C   UNL     1      40.329 -12.639   5.284  1.00  0.00     0.191 C 
HETATM    8  S   UNL     1      39.297 -11.320   5.201  1.00  0.00    -0.039 SA
BRANCH   7   9
HETATM    9  N   UNL     1      41.090 -13.196   4.271  1.00  0.00    -0.330 N 
HETATM   10  H   UNL     1      42.086 -13.251   4.471  1.00  0.00     0.168 HD
BRANCH   9  11
HETATM   11  C   UNL     1      40.762 -13.875   3.073  1.00  0.00     0.068 A 
HETATM   12  C   UNL     1      40.994 -13.166   1.870  1.00  0.00     0.095 A 
HETATM   13  C   UNL     1      40.675 -13.751   0.641  1.00  0.00     0.039 A 
HETATM   14  C   UNL     1      40.119 -15.030   0.598  1.00  0.00     0.003 A 
HETATM   15  C   UNL     1      39.871 -15.721   1.780  1.00  0.00     0.002 A 
HETATM   16  C   UNL     1      40.184 -15.143   3.013  1.00  0.00     0.032 A 
BRANCH  12  17
HETATM   17  O   UNL     1      41.532 -11.907   2.025  1.00  0.00    -0.354 OA
HETATM   18  C   UNL     1      41.390 -11.006   0.932  1.00  0.00     0.210 C 
ENDBRANCH  12  17
ENDBRANCH   9  11
ENDBRANCH   7   9
ENDBRANCH   5   7
ENDBRANCH   2   5
BRANCH   1  19
HETATM   19  C   UNL     1      42.798 -16.271   6.792  1.00  0.00     0.126 C 
BRANCH  19  20
HETATM   20  C   UNL     1      43.463 -16.174   5.427  1.00  0.00     0.160 C 
BRANCH  20  21
HETATM   21  N   UNL     1      43.623 -17.483   4.816  1.00  0.00    -0.272 N 
HETATM   22  N   UNL     1      43.877 -18.534   5.622  1.00  0.00    -0.176 NA
HETATM   23  C   UNL     1      43.968 -19.578   4.788  1.00  0.00     0.070 A 
HETATM   24  C   UNL     1      44.240 -20.934   5.321  1.00  0.00     0.074 C 
HETATM   25  C   UNL     1      43.772 -19.173   3.455  1.00  0.00     0.060 A 
HETATM   26  C   UNL     1      43.557 -17.814   3.485  1.00  0.00     0.046 A 
HETATM   27 BR   UNL     1      43.802 -20.306   1.963  1.00  0.00    -0.047 Br
HETATM   28  C   UNL     1      43.293 -16.834   2.403  1.00  0.00     0.071 C 
ENDBRANCH  20  21
ENDBRANCH  19  20
ENDBRANCH   1  19
TORSDOF 8
ENDMDL
MODEL 3
REMARK VINA RESULT:      -7.1      3.923      7.637
REMARK  8 active torsions:
REMARK  status: ('A' for Active; 'I' for Inactive)
REMARK    1  A    between atoms: N_4  and  C_5 
REMARK    2  A    between atoms: C_5  and  C_6 
REMARK    3  A    between atoms: C_6  and  C_7 
REMARK       I    between atoms: C_7  and  N_8 
REMARK    4  A    between atoms: N_8  and  N_9 
REMARK    5  A    between atoms: N_9  and  C_10 
REMARK    6  A    between atoms: C_10  and  N_11 
REMARK    7  A    between atoms: N_11  and  C_12 
REMARK    8  A    between atoms: C_13  and  O_14 
ROOT
HETATM    1  C   UNL     1      42.399 -14.143   6.139  1.00  0.00     0.237 C 
HETATM    2  N   UNL     1      42.849 -14.829   5.029  1.00  0.00    -0.268 N 
HETATM    3  O   UNL     1      41.210 -13.909   6.341  1.00  0.00    -0.272 OA
HETATM    4  H   UNL     1      43.791 -15.213   4.972  1.00  0.00     0.190 HD
ENDROOT
BRANCH   2   5
HETATM    5  N   UNL     1      41.883 -15.421   4.194  1.00  0.00    -0.274 N 
HETATM    6  H   UNL     1      41.159 -15.927   4.704  1.00  0.00     0.189 HD
BRANCH   5   7
HETATM    7  C   UNL     1      42.233 -15.879   2.919  1.00  0.00     0.191 C 
HETATM    8  S   UNL     1      41.339 -15.488   1.555  1.00  0.00    -0.039 SA
BRANCH   7   9
HETATM    9  N   UNL     1      43.334 -16.713   3.010  1.00  0.00    -0.330 N 
HETATM   10  H   UNL     1      44.222 -16.230   3.118  1.00  0.00     0.168 HD
BRANCH   9  11
HETATM   11  C   UNL     1      43.480 -18.113   3.166  1.00  0.00     0.068 A 
HETATM   12  C   UNL     1      43.883 -18.560   4.446  1.00  0.00     0.095 A 
HETATM   13  C   UNL     1      44.075 -19.924   4.682  1.00  0.00     0.039 A 
HETATM   14  C   UNL     1      43.881 -20.846   3.653  1.00  0.00     0.003 A 
HETATM   15  C   UNL     1      43.505 -20.407   2.387  1.00  0.00     0.002 A 
HETATM   16  C   UNL     1      43.313 -19.045   2.142  1.00  0.00     0.032 A 
BRANCH  12  17
HETATM   17  O   UNL     1      44.060 -17.568   5.386  1.00  0.00    -0.354 OA
HETATM   18  C   UNL     1      43.494 -17.788   6.673  1.00  0.00     0.210 C 
ENDBRANCH  12  17
ENDBRANCH   9  11
ENDBRANCH   7   9
ENDBRANCH   5   7
ENDBRANCH   2   5
BRANCH   1  19
HETATM   19  C   UNL     1      43.506 -13.747   7.081  1.00  0.00     0.126 C 
BRANCH  19  20
HETATM   20  C   UNL     1      44.301 -12.583   6.509  1.00  0.00     0.160 C 
BRANCH  20  21
HETATM   21  N   UNL     1      44.177 -11.393   7.334  1.00  0.00    -0.272 N 
HETATM   22  N   UNL     1      44.963 -11.290   8.424  1.00  0.00    -0.176 NA
HETATM   23  C   UNL     1      44.628 -10.112   8.966  1.00  0.00     0.070 A 
HETATM   24  C   UNL     1      45.300  -9.643  10.201  1.00  0.00     0.074 C 
HETATM   25  C   UNL     1      43.625  -9.479   8.209  1.00  0.00     0.060 A 
HETATM   26  C   UNL     1      43.335 -10.321   7.160  1.00  0.00     0.046 A 
HETATM   27 BR   UNL     1      42.867  -7.810   8.594  1.00  0.00    -0.047 Br
HETATM   28  C   UNL     1      42.373 -10.202   6.037  1.00  0.00     0.071 C 
ENDBRANCH  20  21
ENDBRANCH  19  20
ENDBRANCH   1  19
TORSDOF 8
ENDMDL
MODEL 4
REMARK VINA RESULT:      -7.0      3.446      6.615
REMARK  8 active torsions:
REMARK  status: ('A' for Active; 'I' for Inactive)
REMARK    1  A    between atoms: N_4  and  C_5 
REMARK    2  A    between atoms: C_5  and  C_6 
REMARK    3  A    between atoms: C_6  and  C_7 
REMARK       I    between atoms: C_7  and  N_8 
REMARK    4  A    between atoms: N_8  and  N_9 
REMARK    5  A    between atoms: N_9  and  C_10 
REMARK    6  A    between atoms: C_10  and  N_11 
REMARK    7  A    between atoms: N_11  and  C_12 
REMARK    8  A    between atoms: C_13  and  O_14 
ROOT
HETATM    1  C   UNL     1      40.462 -13.912   4.486  1.00  0.00     0.237 C 
HETATM    2  N   UNL     1      41.027 -15.130   4.167  1.00  0.00    -0.268 N 
HETATM    3  O   UNL     1      40.025 -13.652   5.604  1.00  0.00    -0.272 OA
HETATM    4  H   UNL     1      41.582 -15.268   3.324  1.00  0.00     0.190 HD
ENDROOT
BRANCH   2   5
HETATM    5  N   UNL     1      41.255 -16.037   5.219  1.00  0.00    -0.274 N 
HETATM    6  H   UNL     1      40.429 -16.212   5.792  1.00  0.00     0.189 HD
BRANCH   5   7
HETATM    7  C   UNL     1      42.510 -16.111   5.832  1.00  0.00     0.191 C 
HETATM    8  S   UNL     1      42.773 -15.561   7.394  1.00  0.00    -0.039 SA
BRANCH   7   9
HETATM    9  N   UNL     1      43.435 -16.620   4.936  1.00  0.00    -0.330 N 
HETATM   10  H   UNL     1      44.255 -16.036   4.797  1.00  0.00     0.168 HD
BRANCH   9  11
HETATM   11  C   UNL     1      43.576 -17.876   4.296  1.00  0.00     0.068 A 
HETATM   12  C   UNL     1      43.156 -17.939   2.946  1.00  0.00     0.095 A 
HETATM   13  C   UNL     1      43.236 -19.145   2.244  1.00  0.00     0.039 A 
HETATM   14  C   UNL     1      43.720 -20.291   2.876  1.00  0.00     0.003 A 
HETATM   15  C   UNL     1      44.114 -20.237   4.210  1.00  0.00     0.002 A 
HETATM   16  C   UNL     1      44.035 -19.036   4.920  1.00  0.00     0.032 A 
BRANCH  12  17
HETATM   17  O   UNL     1      42.682 -16.755   2.423  1.00  0.00    -0.354 OA
HETATM   18  C   UNL     1      43.502 -16.100   1.462  1.00  0.00     0.210 C 
ENDBRANCH  12  17
ENDBRANCH   9  11
ENDBRANCH   7   9
ENDBRANCH   5   7
ENDBRANCH   2   5
BRANCH   1  19
HETATM   19  C   UNL     1      40.469 -12.935   3.338  1.00  0.00     0.126 C 
BRANCH  19  20
HETATM   20  C   UNL     1      41.514 -13.334   2.306  1.00  0.00     0.160 C 
BRANCH  20  21
HETATM   21  N   UNL     1      40.968 -13.316   0.959  1.00  0.00    -0.272 N 
HETATM   22  N   UNL     1      41.172 -12.216   0.206  1.00  0.00    -0.176 NA
HETATM   23  C   UNL     1      40.567 -12.493  -0.956  1.00  0.00     0.070 A 
HETATM   24  C   UNL     1      40.584 -11.502  -2.059  1.00  0.00     0.074 C 
HETATM   25  C   UNL     1      39.982 -13.773  -0.925  1.00  0.00     0.060 A 
HETATM   26  C   UNL     1      40.242 -14.292   0.323  1.00  0.00     0.046 A 
HETATM   27 BR   UNL     1      39.047 -14.572  -2.338  1.00  0.00    -0.047 Br
HETATM   28  C   UNL     1      39.885 -15.592   0.943  1.00  0.00     0.071 C 
ENDBRANCH  20  21
ENDBRANCH  19  20
ENDBRANCH   1  19
TORSDOF 8
ENDMDL
MODEL 5
REMARK VINA RESULT:      -6.9      3.238      4.651
REMARK  8 active torsions:
REMARK  status: ('A' for Active; 'I' for Inactive)
REMARK    1  A    between atoms: N_4  and  C_5 
REMARK    2  A    between atoms: C_5  and  C_6 
REMARK    3  A    between atoms: C_6  and  C_7 
REMARK       I    between atoms: C_7  and  N_8 
REMARK    4  A    between atoms: N_8  and  N_9 
REMARK    5  A    between atoms: N_9  and  C_10 
REMARK    6  A    between atoms: C_10  and  N_11 
REMARK    7  A    between atoms: N_11  and  C_12 
REMARK    8  A    between atoms: C_13  and  O_14 
ROOT
HETATM    1  C   UNL     1      41.493 -15.020   6.185  1.00  0.00     0.237 C 
HETATM    2  N   UNL     1      41.888 -13.838   6.779  1.00  0.00    -0.268 N 
HETATM    3  O   UNL     1      40.526 -15.096   5.431  1.00  0.00    -0.272 OA
HETATM    4  H   UNL     1      42.802 -13.728   7.216  1.00  0.00     0.190 HD
ENDROOT
BRANCH   2   5
HETATM    5  N   UNL     1      41.250 -12.655   6.363  1.00  0.00    -0.274 N 
HETATM    6  H   UNL     1      40.374 -12.819   5.865  1.00  0.00     0.189 HD
BRANCH   5   7
HETATM    7  C   UNL     1      42.002 -11.526   6.020  1.00  0.00     0.191 C 
HETATM    8  S   UNL     1      42.246 -11.068   4.426  1.00  0.00    -0.039 SA
BRANCH   7   9
HETATM    9  N   UNL     1      42.524 -10.951   7.166  1.00  0.00    -0.330 N 
HETATM   10  H   UNL     1      41.906 -10.979   7.973  1.00  0.00     0.168 HD
BRANCH   9  11
HETATM   11  C   UNL     1      43.814 -10.483   7.514  1.00  0.00     0.068 A 
HETATM   12  C   UNL     1      43.876  -9.186   8.079  1.00  0.00     0.095 A 
HETATM   13  C   UNL     1      45.111  -8.634   8.430  1.00  0.00     0.039 A 
HETATM   14  C   UNL     1      46.286  -9.356   8.215  1.00  0.00     0.003 A 
HETATM   15  C   UNL     1      46.230 -10.622   7.640  1.00  0.00     0.002 A 
HETATM   16  C   UNL     1      45.000 -11.181   7.284  1.00  0.00     0.032 A 
BRANCH  12  17
HETATM   17  O   UNL     1      42.661  -8.555   8.236  1.00  0.00    -0.354 OA
HETATM   18  C   UNL     1      42.688  -7.201   8.672  1.00  0.00     0.210 C 
ENDBRANCH  12  17
ENDBRANCH   9  11
ENDBRANCH   7   9
ENDBRANCH   5   7
ENDBRANCH   2   5
BRANCH   1  19
HETATM   19  C   UNL     1      42.384 -16.184   6.530  1.00  0.00     0.126 C 
BRANCH  19  20
HETATM   20  C   UNL     1      43.590 -16.226   5.602  1.00  0.00     0.160 C 
BRANCH  20  21
HETATM   21  N   UNL     1      43.694 -17.504   4.918  1.00  0.00    -0.272 N 
HETATM   22  N   UNL     1      44.019 -18.591   5.647  1.00  0.00    -0.176 NA
HETATM   23  C   UNL     1      44.035 -19.594   4.760  1.00  0.00     0.070 A 
HETATM   24  C   UNL     1      44.352 -20.973   5.201  1.00  0.00     0.074 C 
HETATM   25  C   UNL     1      43.720 -19.127   3.470  1.00  0.00     0.060 A 
HETATM   26  C   UNL     1      43.509 -17.772   3.584  1.00  0.00     0.046 A 
HETATM   27 BR   UNL     1      43.615 -20.188   1.929  1.00  0.00    -0.047 Br
HETATM   28  C   UNL     1      43.150 -16.743   2.578  1.00  0.00     0.071 C 
ENDBRANCH  20  21
ENDBRANCH  19  20
ENDBRANCH   1  19
TORSDOF 8
ENDMDL
MODEL 6
REMARK VINA RESULT:      -6.8      2.840      6.485
REMARK  8 active torsions:
REMARK  status: ('A' for Active; 'I' for Inactive)
REMARK    1  A    between atoms: N_4  and  C_5 
REMARK    2  A    between atoms: C_5  and  C_6 
REMARK    3  A    between atoms: C_6  and  C_7 
REMARK       I    between atoms: C_7  and  N_8 
REMARK    4  A    between atoms: N_8  and  N_9 
REMARK    5  A    between atoms: N_9  and  C_10 
REMARK    6  A    between atoms: C_10  and  N_11 
REMARK    7  A    between atoms: N_11  and  C_12 
REMARK    8  A    between atoms: C_13  and  O_14 
ROOT
HETATM    1  C   UNL     1      39.708 -13.169   5.570  1.00  0.00     0.237 C 
HETATM    2  N   UNL     1      39.725 -13.602   4.259  1.00  0.00    -0.268 N 
HETATM    3  O   UNL     1      39.946 -13.910   6.520  1.00  0.00    -0.272 OA
HETATM    4  H   UNL     1      39.749 -12.954   3.473  1.00  0.00     0.190 HD
ENDROOT
BRANCH   2   5
HETATM    5  N   UNL     1      40.198 -14.903   4.010  1.00  0.00    -0.274 N 
HETATM    6  H   UNL     1      40.476 -15.404   4.854  1.00  0.00     0.189 HD
BRANCH   5   7
HETATM    7  C   UNL     1      40.869 -15.197   2.818  1.00  0.00     0.191 C 
HETATM    8  S   UNL     1      40.069 -15.307   1.348  1.00  0.00    -0.039 SA
BRANCH   7   9
HETATM    9  N   UNL     1      42.206 -15.434   3.084  1.00  0.00    -0.330 N 
HETATM   10  H   UNL     1      42.780 -14.597   3.146  1.00  0.00     0.168 HD
BRANCH   9  11
HETATM   11  C   UNL     1      42.929 -16.589   3.469  1.00  0.00     0.068 A 
HETATM   12  C   UNL     1      43.260 -16.691   4.841  1.00  0.00     0.095 A 
HETATM   13  C   UNL     1      43.994 -17.786   5.305  1.00  0.00     0.039 A 
HETATM   14  C   UNL     1      44.411 -18.776   4.414  1.00  0.00     0.003 A 
HETATM   15  C   UNL     1      44.105 -18.669   3.061  1.00  0.00     0.002 A 
HETATM   16  C   UNL     1      43.374 -17.576   2.588  1.00  0.00     0.032 A 
BRANCH  12  17
HETATM   17  O   UNL     1      42.813 -15.653   5.631  1.00  0.00    -0.354 OA
HETATM   18  C   UNL     1      43.783 -14.987   6.431  1.00  0.00     0.210 C 
ENDBRANCH  12  17
ENDBRANCH   9  11
ENDBRANCH   7   9
ENDBRANCH   5   7
ENDBRANCH   2   5
BRANCH   1  19
HETATM   19  C   UNL     1      39.403 -11.700   5.706  1.00  0.00     0.126 C 
BRANCH  19  20
HETATM   20  C   UNL     1      40.446 -10.869   4.971  1.00  0.00     0.160 C 
BRANCH  20  21
HETATM   21  N   UNL     1      41.701 -10.818   5.702  1.00  0.00    -0.272 N 
HETATM   22  N   UNL     1      41.710 -10.212   6.907  1.00  0.00    -0.176 NA
HETATM   23  C   UNL     1      42.978 -10.324   7.325  1.00  0.00     0.070 A 
HETATM   24  C   UNL     1      43.380  -9.770   8.640  1.00  0.00     0.074 C 
HETATM   25  C   UNL     1      43.762 -11.003   6.373  1.00  0.00     0.060 A 
HETATM   26  C   UNL     1      42.926 -11.310   5.324  1.00  0.00     0.046 A 
HETATM   27 BR   UNL     1      45.585 -11.393   6.550  1.00  0.00    -0.047 Br
HETATM   28  C   UNL     1      43.172 -12.014   4.042  1.00  0.00     0.071 C 
ENDBRANCH  20  21
ENDBRANCH  19  20
ENDBRANCH   1  19
TORSDOF 8
ENDMDL
MODEL 7
REMARK VINA RESULT:      -6.8      2.747      4.667
REMARK  8 active torsions:
REMARK  status: ('A' for Active; 'I' for Inactive)
REMARK    1  A    between atoms: N_4  and  C_5 
REMARK    2  A    between atoms: C_5  and  C_6 
REMARK    3  A    between atoms: C_6  and  C_7 
REMARK       I    between atoms: C_7  and  N_8 
REMARK    4  A    between atoms: N_8  and  N_9 
REMARK    5  A    between atoms: N_9  and  C_10 
REMARK    6  A    between atoms: C_10  and  N_11 
REMARK    7  A    between atoms: N_11  and  C_12 
REMARK    8  A    between atoms: C_13  and  O_14 
ROOT
HETATM    1  C   UNL     1      40.852 -15.177   1.582  1.00  0.00     0.237 C 
HETATM    2  N   UNL     1      40.525 -14.257   2.558  1.00  0.00    -0.268 N 
HETATM    3  O   UNL     1      40.023 -15.650   0.808  1.00  0.00    -0.272 OA
HETATM    4  H   UNL     1      41.232 -13.705   3.043  1.00  0.00     0.190 HD
ENDROOT
BRANCH   2   5
HETATM    5  N   UNL     1      39.222 -13.725   2.541  1.00  0.00    -0.274 N 
HETATM    6  H   UNL     1      38.495 -14.434   2.446  1.00  0.00     0.189 HD
BRANCH   5   7
HETATM    7  C   UNL     1      38.981 -12.456   2.004  1.00  0.00     0.191 C 
HETATM    8  S   UNL     1      38.875 -11.086   2.966  1.00  0.00    -0.039 SA
BRANCH   7   9
HETATM    9  N   UNL     1      38.788 -12.559   0.638  1.00  0.00    -0.330 N 
HETATM   10  H   UNL     1      37.839 -12.796   0.360  1.00  0.00     0.168 HD
BRANCH   9  11
HETATM   11  C   UNL     1      39.591 -12.231  -0.482  1.00  0.00     0.068 A 
HETATM   12  C   UNL     1      39.179 -12.770  -1.724  1.00  0.00     0.095 A 
HETATM   13  C   UNL     1      39.927 -12.518  -2.878  1.00  0.00     0.039 A 
HETATM   14  C   UNL     1      41.084 -11.743  -2.806  1.00  0.00     0.003 A 
HETATM   15  C   UNL     1      41.504 -11.229  -1.582  1.00  0.00     0.002 A 
HETATM   16  C   UNL     1      40.764 -11.478  -0.423  1.00  0.00     0.032 A 
BRANCH  12  17
HETATM   17  O   UNL     1      38.031 -13.531  -1.683  1.00  0.00    -0.354 OA
HETATM   18  C   UNL     1      37.128 -13.397  -2.774  1.00  0.00     0.210 C 
ENDBRANCH  12  17
ENDBRANCH   9  11
ENDBRANCH   7   9
ENDBRANCH   5   7
ENDBRANCH   2   5
BRANCH   1  19
HETATM   19  C   UNL     1      42.320 -15.510   1.548  1.00  0.00     0.126 C 
BRANCH  19  20
HETATM   20  C   UNL     1      42.848 -15.740   2.956  1.00  0.00     0.160 C 
BRANCH  20  21
HETATM   21  N   UNL     1      43.181 -17.136   3.182  1.00  0.00    -0.272 N 
HETATM   22  N   UNL     1      43.108 -17.984   2.135  1.00  0.00    -0.176 NA
HETATM   23  C   UNL     1      43.467 -19.170   2.642  1.00  0.00     0.070 A 
HETATM   24  C   UNL     1      43.513 -20.369   1.772  1.00  0.00     0.074 C 
HETATM   25  C   UNL     1      43.762 -19.060   4.014  1.00  0.00     0.060 A 
HETATM   26  C   UNL     1      43.565 -17.741   4.353  1.00  0.00     0.046 A 
HETATM   27 BR   UNL     1      44.316 -20.467   5.120  1.00  0.00    -0.047 Br
HETATM   28  C   UNL     1      43.715 -17.022   5.642  1.00  0.00     0.071 C 
ENDBRANCH  20  21
ENDBRANCH  19  20
ENDBRANCH   1  19
TORSDOF 8
ENDMDL
MODEL 8
REMARK VINA RESULT:      -6.7      3.332      6.781
REMARK  8 active torsions:
REMARK  status: ('A' for Active; 'I' for Inactive)
REMARK    1  A    between atoms: N_4  and  C_5 
REMARK    2  A    between atoms: C_5  and  C_6 
REMARK    3  A    between atoms: C_6  and  C_7 
REMARK       I    between atoms: C_7  and  N_8 
REMARK    4  A    between atoms: N_8  and  N_9 
REMARK    5  A    between atoms: N_9  and  C_10 
REMARK    6  A    between atoms: C_10  and  N_11 
REMARK    7  A    between atoms: N_11  and  C_12 
REMARK    8  A    between atoms: C_13  and  O_14 
ROOT
HETATM    1  C   UNL     1      40.566 -13.946   5.616  1.00  0.00     0.237 C 
HETATM    2  N   UNL     1      41.418 -14.798   4.942  1.00  0.00    -0.268 N 
HETATM    3  O   UNL     1      39.910 -14.296   6.594  1.00  0.00    -0.272 OA
HETATM    4  H   UNL     1      42.118 -14.458   4.284  1.00  0.00     0.190 HD
ENDROOT
BRANCH   2   5
HETATM    5  N   UNL     1      41.660 -16.062   5.511  1.00  0.00    -0.274 N 
HETATM    6  H   UNL     1      40.813 -16.529   5.837  1.00  0.00     0.189 HD
BRANCH   5   7
HETATM    7  C   UNL     1      42.857 -16.318   6.188  1.00  0.00     0.191 C 
HETATM    8  S   UNL     1      43.076 -15.907   7.799  1.00  0.00    -0.039 SA
BRANCH   7   9
HETATM    9  N   UNL     1      43.777 -16.867   5.311  1.00  0.00    -0.330 N 
HETATM   10  H   UNL     1      44.705 -16.454   5.359  1.00  0.00     0.168 HD
BRANCH   9  11
HETATM   11  C   UNL     1      43.758 -18.010   4.476  1.00  0.00     0.068 A 
HETATM   12  C   UNL     1      43.331 -17.802   3.143  1.00  0.00     0.095 A 
HETATM   13  C   UNL     1      43.257 -18.879   2.255  1.00  0.00     0.039 A 
HETATM   14  C   UNL     1      43.596 -20.163   2.684  1.00  0.00     0.003 A 
HETATM   15  C   UNL     1      43.996 -20.375   4.000  1.00  0.00     0.002 A 
HETATM   16  C   UNL     1      44.070 -19.303   4.895  1.00  0.00     0.032 A 
BRANCH  12  17
HETATM   17  O   UNL     1      43.007 -16.500   2.826  1.00  0.00    -0.354 OA
HETATM   18  C   UNL     1      43.294 -16.067   1.501  1.00  0.00     0.210 C 
ENDBRANCH  12  17
ENDBRANCH   9  11
ENDBRANCH   7   9
ENDBRANCH   5   7
ENDBRANCH   2   5
BRANCH   1  19
HETATM   19  C   UNL     1      40.552 -12.550   5.051  1.00  0.00     0.126 C 
BRANCH  19  20
HETATM   20  C   UNL     1      39.351 -12.356   4.137  1.00  0.00     0.160 C 
BRANCH  20  21
HETATM   21  N   UNL     1      39.699 -12.575   2.743  1.00  0.00    -0.272 N 
HETATM   22  N   UNL     1      39.634 -13.833   2.262  1.00  0.00    -0.176 NA
HETATM   23  C   UNL     1      40.001 -13.717   0.979  1.00  0.00     0.070 A 
HETATM   24  C   UNL     1      40.045 -14.915   0.106  1.00  0.00     0.074 C 
HETATM   25  C   UNL     1      40.299 -12.378   0.662  1.00  0.00     0.060 A 
HETATM   26  C   UNL     1      40.108 -11.650   1.813  1.00  0.00     0.046 A 
HETATM   27 BR   UNL     1      40.843 -11.759  -1.021  1.00  0.00    -0.047 Br
HETATM   28  C   UNL     1      40.262 -10.203   2.101  1.00  0.00     0.071 C 
ENDBRANCH  20  21
ENDBRANCH  19  20
ENDBRANCH   1  19
TORSDOF 8
ENDMDL
MODEL 9
REMARK VINA RESULT:      -6.6      3.476      7.414
REMARK  8 active torsions:
REMARK  status: ('A' for Active; 'I' for Inactive)
REMARK    1  A    between atoms: N_4  and  C_5 
REMARK    2  A    between atoms: C_5  and  C_6 
REMARK    3  A    between atoms: C_6  and  C_7 
REMARK       I    between atoms: C_7  and  N_8 
REMARK    4  A    between atoms: N_8  and  N_9 
REMARK    5  A    between atoms: N_9  and  C_10 
REMARK    6  A    between atoms: C_10  and  N_11 
REMARK    7  A    between atoms: N_11  and  C_12 
REMARK    8  A    between atoms: C_13  and  O_14 
ROOT
HETATM    1  C   UNL     1      40.505 -14.143   5.794  1.00  0.00     0.237 C 
HETATM    2  N   UNL     1      41.429 -14.895   5.097  1.00  0.00    -0.268 N 
HETATM    3  O   UNL     1      39.823 -14.604   6.707  1.00  0.00    -0.272 OA
HETATM    4  H   UNL     1      42.141 -14.469   4.505  1.00  0.00     0.190 HD
ENDROOT
BRANCH   2   5
HETATM    5  N   UNL     1      41.709 -16.189   5.574  1.00  0.00    -0.274 N 
HETATM    6  H   UNL     1      40.879 -16.697   5.883  1.00  0.00     0.189 HD
BRANCH   5   7
HETATM    7  C   UNL     1      42.925 -16.465   6.208  1.00  0.00     0.191 C 
HETATM    8  S   UNL     1      43.191 -16.097   7.822  1.00  0.00    -0.039 SA
BRANCH   7   9
HETATM    9  N   UNL     1      43.818 -16.991   5.291  1.00  0.00    -0.330 N 
HETATM   10  H   UNL     1      44.748 -16.582   5.324  1.00  0.00     0.168 HD
BRANCH   9  11
HETATM   11  C   UNL     1      43.772 -18.110   4.424  1.00  0.00     0.068 A 
HETATM   12  C   UNL     1      43.323 -17.859   3.105  1.00  0.00     0.095 A 
HETATM   13  C   UNL     1      43.222 -18.911   2.189  1.00  0.00     0.039 A 
HETATM   14  C   UNL     1      43.553 -20.209   2.576  1.00  0.00     0.003 A 
HETATM   15  C   UNL     1      43.975 -20.462   3.878  1.00  0.00     0.002 A 
HETATM   16  C   UNL     1      44.076 -19.418   4.801  1.00  0.00     0.032 A 
BRANCH  12  17
HETATM   17  O   UNL     1      43.008 -16.546   2.831  1.00  0.00    -0.354 OA
HETATM   18  C   UNL     1      43.276 -16.079   1.514  1.00  0.00     0.210 C 
ENDBRANCH  12  17
ENDBRANCH   9  11
ENDBRANCH   7   9
ENDBRANCH   5   7
ENDBRANCH   2   5
BRANCH   1  19
HETATM   19  C   UNL     1      40.446 -12.707   5.344  1.00  0.00     0.126 C 
BRANCH  19  20
HETATM   20  C   UNL     1      41.829 -12.219   4.937  1.00  0.00     0.160 C 
BRANCH  20  21
HETATM   21  N   UNL     1      42.410 -11.355   5.951  1.00  0.00    -0.272 N 
HETATM   22  N   UNL     1      41.810 -10.173   6.199  1.00  0.00    -0.176 NA
HETATM   23  C   UNL     1      42.558  -9.615   7.160  1.00  0.00     0.070 A 
HETATM   24  C   UNL     1      42.197  -8.285   7.706  1.00  0.00     0.074 C 
HETATM   25  C   UNL     1      43.632 -10.455   7.510  1.00  0.00     0.060 A 
HETATM   26  C   UNL     1      43.530 -11.574   6.715  1.00  0.00     0.046 A 
HETATM   27 BR   UNL     1      44.920 -10.079   8.817  1.00  0.00    -0.047 Br
HETATM   28  C   UNL     1      44.364 -12.797   6.624  1.00  0.00     0.071 C 
ENDBRANCH  20  21
ENDBRANCH  19  20
ENDBRANCH   1  19
TORSDOF 8
ENDMDL
MODEL 10
REMARK VINA RESULT:      -6.6      4.331      7.562
REMARK  8 active torsions:
REMARK  status: ('A' for Active; 'I' for Inactive)
REMARK    1  A    between atoms: N_4  and  C_5 
REMARK    2  A    between atoms: C_5  and  C_6 
REMARK    3  A    between atoms: C_6  and  C_7 
REMARK       I    between atoms: C_7  and  N_8 
REMARK    4  A    between atoms: N_8  and  N_9 
REMARK    5  A    between atoms: N_9  and  C_10 
REMARK    6  A    between atoms: C_10  and  N_11 
REMARK    7  A    between atoms: N_11  and  C_12 
REMARK    8  A    between atoms: C_13  and  O_14 
ROOT
HETATM    1  C   UNL     1      44.000 -12.086   5.409  1.00  0.00     0.237 C 
HETATM    2  N   UNL     1      42.963 -12.973   5.203  1.00  0.00    -0.268 N 
HETATM    3  O   UNL     1      44.335 -11.247   4.575  1.00  0.00    -0.272 OA
HETATM    4  H   UNL     1      42.546 -13.507   5.964  1.00  0.00     0.190 HD
ENDROOT
BRANCH   2   5
HETATM    5  N   UNL     1      42.162 -12.786   4.061  1.00  0.00    -0.274 N 
HETATM    6  H   UNL     1      41.409 -12.111   4.199  1.00  0.00     0.189 HD
BRANCH   5   7
HETATM    7  C   UNL     1      41.951 -13.837   3.163  1.00  0.00     0.191 C 
HETATM    8  S   UNL     1      41.665 -13.572   1.532  1.00  0.00    -0.039 SA
BRANCH   7   9
HETATM    9  N   UNL     1      41.950 -15.040   3.848  1.00  0.00    -0.330 N 
HETATM   10  H   UNL     1      41.274 -15.096   4.605  1.00  0.00     0.168 HD
BRANCH   9  11
HETATM   11  C   UNL     1      42.571 -16.291   3.612  1.00  0.00     0.068 A 
HETATM   12  C   UNL     1      43.535 -16.699   4.565  1.00  0.00     0.095 A 
HETATM   13  C   UNL     1      44.216 -17.908   4.398  1.00  0.00     0.039 A 
HETATM   14  C   UNL     1      43.954 -18.710   3.286  1.00  0.00     0.003 A 
HETATM   15  C   UNL     1      43.022 -18.301   2.336  1.00  0.00     0.002 A 
HETATM   16  C   UNL     1      42.339 -17.092   2.495  1.00  0.00     0.032 A 
BRANCH  12  17
HETATM   17  O   UNL     1      43.727 -15.828   5.616  1.00  0.00    -0.354 OA
HETATM   18  C   UNL     1      44.176 -16.388   6.845  1.00  0.00     0.210 C 
ENDBRANCH  12  17
ENDBRANCH   9  11
ENDBRANCH   7   9
ENDBRANCH   5   7
ENDBRANCH   2   5
BRANCH   1  19
HETATM   19  C   UNL     1      44.648 -12.231   6.761  1.00  0.00     0.126 C 
BRANCH  19  20
HETATM   20  C   UNL     1      45.031 -10.868   7.318  1.00  0.00     0.160 C 
BRANCH  20  21
HETATM   21  N   UNL     1      44.161 -10.474   8.413  1.00  0.00    -0.272 N 
HETATM   22  N   UNL     1      44.456 -10.921   9.651  1.00  0.00    -0.176 NA
HETATM   23  C   UNL     1      43.498 -10.400  10.429  1.00  0.00     0.070 A 
HETATM   24  C   UNL     1      43.493 -10.672  11.886  1.00  0.00     0.074 C 
HETATM   25  C   UNL     1      42.601  -9.627   9.669  1.00  0.00     0.060 A 
HETATM   26  C   UNL     1      43.036  -9.689   8.365  1.00  0.00     0.046 A 
HETATM   27 BR   UNL     1      41.118  -8.706  10.350  1.00  0.00    -0.047 Br
HETATM   28  C   UNL     1      42.506  -9.082   7.120  1.00  0.00     0.071 C 
ENDBRANCH  20  21
ENDBRANCH  19  20
ENDBRANCH   1  19
TORSDOF 8
ENDMDL
