MODEL 1
REMARK VINA RESULT:      -8.5      0.000      0.000
REMARK  3 active torsions:
REMARK  status: ('A' for Active; 'I' for Inactive)
REMARK    1  A    between atoms: C_4  and  N_5 
REMARK       I    between atoms: N_5  and  C_6 
REMARK    2  A    between atoms: C_6  and  C_7 
REMARK    3  A    between atoms: C_7  and  C_8 
ROOT
HETATM    1  C   UNL     1      40.015 -14.439   1.259  1.00  0.00     0.286 C 
HETATM    2  N   UNL     1      40.855 -14.440  -0.013  1.00  0.00    -0.056 N 
HETATM    3  H   UNL     1      41.665 -13.817   0.198  1.00  0.00     0.278 HD
HETATM    4  H   UNL     1      41.257 -15.367  -0.192  1.00  0.00     0.278 HD
HETATM    5  C   UNL     1      40.166 -13.894  -1.233  1.00  0.00     0.209 C 
HETATM    6  C   UNL     1      39.573 -12.499  -0.914  1.00  0.00     0.115 C 
HETATM    7  N   UNL     1      38.810 -12.472   0.333  1.00  0.00    -0.353 N 
HETATM    8  C   UNL     1      39.212 -13.138   1.465  1.00  0.00     0.249 C 
HETATM    9  O   UNL     1      38.832 -12.755   2.565  1.00  0.00    -0.271 OA
HETATM   10  C   UNL     1      39.128 -14.898  -1.739  1.00  0.00     0.035 C 
HETATM   11  C   UNL     1      38.341 -14.329  -2.916  1.00  0.00     0.002 C 
HETATM   12  C   UNL     1      37.690 -12.997  -2.555  1.00  0.00     0.002 C 
HETATM   13  C   UNL     1      38.725 -11.978  -2.080  1.00  0.00     0.027 C 
HETATM   14  H   UNL     1      38.311 -11.613   0.558  1.00  0.00     0.163 HD
ENDROOT
BRANCH   1  15
HETATM   15  C   UNL     1      40.845 -14.786   2.505  1.00  0.00     0.146 C 
BRANCH  15  16
HETATM   16  C   UNL     1      42.281 -14.353   2.365  1.00  0.00     0.224 C 
HETATM   17  N   UNL     1      43.326 -15.191   2.589  1.00  0.00    -0.327 N 
HETATM   18  H   UNL     1      44.210 -14.747   2.354  1.00  0.00     0.169 HD
HETATM   19  O   UNL     1      42.516 -13.223   1.911  1.00  0.00    -0.273 OA
BRANCH  17  20
HETATM   20  C   UNL     1      43.451 -16.519   3.050  1.00  0.00     0.035 A 
HETATM   21  C   UNL     1      43.496 -17.664   2.256  1.00  0.00     0.036 A 
HETATM   22  C   UNL     1      43.592 -18.944   2.831  1.00  0.00    -0.059 A 
HETATM   23  C   UNL     1      43.551 -20.168   1.960  1.00  0.00     0.048 C 
HETATM   24  C   UNL     1      43.645 -19.075   4.221  1.00  0.00     0.013 A 
HETATM   25  C   UNL     1      43.624 -17.944   5.038  1.00  0.00    -0.059 A 
HETATM   26  C   UNL     1      43.507 -16.678   4.446  1.00  0.00     0.036 A 
HETATM   27  C   UNL     1      43.657 -18.084   6.532  1.00  0.00     0.048 C 
ENDBRANCH  17  20
ENDBRANCH  15  16
ENDBRANCH   1  15
TORSDOF 3
ENDMDL
MODEL 2
REMARK VINA RESULT:      -8.3      4.247      5.528
REMARK  3 active torsions:
REMARK  status: ('A' for Active; 'I' for Inactive)
REMARK    1  A    between atoms: C_4  and  N_5 
REMARK       I    between atoms: N_5  and  C_6 
REMARK    2  A    between atoms: C_6  and  C_7 
REMARK    3  A    between atoms: C_7  and  C_8 
ROOT
HETATM    1  C   UNL     1      41.849 -14.687   5.956  1.00  0.00     0.286 C 
HETATM    2  N   UNL     1      43.191 -13.979   6.104  1.00  0.00    -0.056 N 
HETATM    3  H   UNL     1      43.359 -13.930   7.132  1.00  0.00     0.278 HD
HETATM    4  H   UNL     1      43.956 -14.549   5.724  1.00  0.00     0.278 HD
HETATM    5  C   UNL     1      43.232 -12.575   5.567  1.00  0.00     0.209 C 
HETATM    6  C   UNL     1      42.060 -11.756   6.162  1.00  0.00     0.115 C 
HETATM    7  N   UNL     1      40.776 -12.449   6.076  1.00  0.00    -0.353 N 
HETATM    8  C   UNL     1      40.640 -13.795   6.309  1.00  0.00     0.249 C 
HETATM    9  O   UNL     1      39.559 -14.248   6.666  1.00  0.00    -0.271 OA
HETATM   10  C   UNL     1      43.244 -12.602   4.037  1.00  0.00     0.035 C 
HETATM   11  C   UNL     1      43.184 -11.190   3.462  1.00  0.00     0.002 C 
HETATM   12  C   UNL     1      41.973 -10.427   3.991  1.00  0.00     0.002 C 
HETATM   13  C   UNL     1      41.972 -10.368   5.518  1.00  0.00     0.027 C 
HETATM   14  H   UNL     1      39.945 -11.932   6.361  1.00  0.00     0.163 HD
ENDROOT
BRANCH   1  15
HETATM   15  C   UNL     1      41.805 -16.017   6.727  1.00  0.00     0.146 C 
BRANCH  15  16
HETATM   16  C   UNL     1      43.185 -16.526   7.053  1.00  0.00     0.224 C 
HETATM   17  N   UNL     1      43.958 -17.181   6.148  1.00  0.00    -0.327 N 
HETATM   18  H   UNL     1      44.886 -17.362   6.522  1.00  0.00     0.169 HD
HETATM   19  O   UNL     1      43.679 -16.231   8.150  1.00  0.00    -0.273 OA
BRANCH  17  20
HETATM   20  C   UNL     1      43.767 -17.640   4.828  1.00  0.00     0.035 A 
HETATM   21  C   UNL     1      43.829 -18.966   4.402  1.00  0.00     0.036 A 
HETATM   22  C   UNL     1      43.653 -19.304   3.048  1.00  0.00    -0.059 A 
HETATM   23  C   UNL     1      43.810 -20.729   2.599  1.00  0.00     0.048 C 
HETATM   24  C   UNL     1      43.408 -18.297   2.111  1.00  0.00     0.013 A 
HETATM   25  C   UNL     1      43.320 -16.964   2.514  1.00  0.00    -0.059 A 
HETATM   26  C   UNL     1      43.520 -16.646   3.865  1.00  0.00     0.036 A 
HETATM   27  C   UNL     1      43.082 -15.879   1.505  1.00  0.00     0.048 C 
ENDBRANCH  17  20
ENDBRANCH  15  16
ENDBRANCH   1  15
TORSDOF 3
ENDMDL
MODEL 3
REMARK VINA RESULT:      -8.0      3.107      5.471
REMARK  3 active torsions:
REMARK  status: ('A' for Active; 'I' for Inactive)
REMARK    1  A    between atoms: C_4  and  N_5 
REMARK       I    between atoms: N_5  and  C_6 
REMARK    2  A    between atoms: C_6  and  C_7 
REMARK    3  A    between atoms: C_7  and  C_8 
ROOT
HETATM    1  C   UNL     1      42.678 -13.017   3.253  1.00  0.00     0.286 C 
HETATM    2  N   UNL     1      42.038 -13.539   4.534  1.00  0.00    -0.056 N 
HETATM    3  H   UNL     1      41.012 -13.542   4.342  1.00  0.00     0.278 HD
HETATM    4  H   UNL     1      42.292 -14.519   4.705  1.00  0.00     0.278 HD
HETATM    5  C   UNL     1      42.270 -12.690   5.754  1.00  0.00     0.209 C 
HETATM    6  C   UNL     1      41.878 -11.223   5.448  1.00  0.00     0.115 C 
HETATM    7  N   UNL     1      42.442 -10.729   4.193  1.00  0.00    -0.353 N 
HETATM    8  C   UNL     1      42.511 -11.496   3.057  1.00  0.00     0.249 C 
HETATM    9  O   UNL     1      42.557 -10.956   1.957  1.00  0.00    -0.271 OA
HETATM   10  C   UNL     1      43.714 -12.850   6.233  1.00  0.00     0.035 C 
HETATM   11  C   UNL     1      44.009 -11.923   7.408  1.00  0.00     0.002 C 
HETATM   12  C   UNL     1      43.700 -10.470   7.060  1.00  0.00     0.002 C 
HETATM   13  C   UNL     1      42.249 -10.297   6.612  1.00  0.00     0.027 C 
HETATM   14  H   UNL     1      42.305  -9.743   3.974  1.00  0.00     0.163 HD
ENDROOT
BRANCH   1  15
HETATM   15  C   UNL     1      42.212 -13.795   2.011  1.00  0.00     0.146 C 
BRANCH  15  16
HETATM   16  C   UNL     1      40.967 -14.599   2.283  1.00  0.00     0.224 C 
HETATM   17  N   UNL     1      41.004 -15.876   2.744  1.00  0.00    -0.327 N 
HETATM   18  H   UNL     1      40.070 -16.217   2.955  1.00  0.00     0.169 HD
HETATM   19  O   UNL     1      39.868 -14.033   2.197  1.00  0.00    -0.273 OA
BRANCH  17  20
HETATM   20  C   UNL     1      42.032 -16.807   3.006  1.00  0.00     0.035 A 
HETATM   21  C   UNL     1      42.317 -17.947   2.256  1.00  0.00     0.036 A 
HETATM   22  C   UNL     1      43.351 -18.824   2.632  1.00  0.00    -0.059 A 
HETATM   23  C   UNL     1      43.585 -20.091   1.859  1.00  0.00     0.048 C 
HETATM   24  C   UNL     1      44.108 -18.551   3.774  1.00  0.00     0.013 A 
HETATM   25  C   UNL     1      43.856 -17.405   4.530  1.00  0.00    -0.059 A 
HETATM   26  C   UNL     1      42.807 -16.555   4.151  1.00  0.00     0.036 A 
HETATM   27  C   UNL     1      44.652 -17.123   5.772  1.00  0.00     0.048 C 
ENDBRANCH  17  20
ENDBRANCH  15  16
ENDBRANCH   1  15
TORSDOF 3
ENDMDL
MODEL 4
REMARK VINA RESULT:      -7.9      3.135      5.466
REMARK  3 active torsions:
REMARK  status: ('A' for Active; 'I' for Inactive)
REMARK    1  A    between atoms: C_4  and  N_5 
REMARK       I    between atoms: N_5  and  C_6 
REMARK    2  A    between atoms: C_6  and  C_7 
REMARK    3  A    between atoms: C_7  and  C_8 
ROOT
HETATM    1  C   UNL     1      40.952 -13.934   4.476  1.00  0.00     0.286 C 
HETATM    2  N   UNL     1      42.158 -13.234   3.860  1.00  0.00    -0.056 N 
HETATM    3  H   UNL     1      42.812 -14.004   3.598  1.00  0.00     0.278 HD
HETATM    4  H   UNL     1      41.909 -12.770   2.979  1.00  0.00     0.278 HD
HETATM    5  C   UNL     1      42.895 -12.304   4.783  1.00  0.00     0.209 C 
HETATM    6  C   UNL     1      43.246 -13.045   6.097  1.00  0.00     0.115 C 
HETATM    7  N   UNL     1      42.110 -13.765   6.669  1.00  0.00    -0.353 N 
HETATM    8  C   UNL     1      41.210 -14.464   5.902  1.00  0.00     0.249 C 
HETATM    9  O   UNL     1      40.572 -15.386   6.397  1.00  0.00    -0.271 OA
HETATM   10  C   UNL     1      42.078 -11.029   5.000  1.00  0.00     0.035 C 
HETATM   11  C   UNL     1      42.753 -10.108   6.012  1.00  0.00     0.002 C 
HETATM   12  C   UNL     1      43.011 -10.830   7.332  1.00  0.00     0.002 C 
HETATM   13  C   UNL     1      43.855 -12.087   7.127  1.00  0.00     0.027 C 
HETATM   14  H   UNL     1      42.241 -14.197   7.583  1.00  0.00     0.163 HD
ENDROOT
BRANCH   1  15
HETATM   15  C   UNL     1      40.390 -15.036   3.564  1.00  0.00     0.146 C 
BRANCH  15  16
HETATM   16  C   UNL     1      41.070 -15.058   2.220  1.00  0.00     0.224 C 
HETATM   17  N   UNL     1      42.071 -15.926   1.918  1.00  0.00    -0.327 N 
HETATM   18  H   UNL     1      42.338 -15.852   0.940  1.00  0.00     0.169 HD
HETATM   19  O   UNL     1      40.620 -14.338   1.318  1.00  0.00    -0.273 OA
BRANCH  17  20
HETATM   20  C   UNL     1      42.794 -16.897   2.642  1.00  0.00     0.035 A 
HETATM   21  C   UNL     1      42.980 -18.228   2.272  1.00  0.00     0.036 A 
HETATM   22  C   UNL     1      43.696 -19.118   3.092  1.00  0.00    -0.059 A 
HETATM   23  C   UNL     1      43.810 -20.568   2.715  1.00  0.00     0.048 C 
HETATM   24  C   UNL     1      44.235 -18.664   4.299  1.00  0.00     0.013 A 
HETATM   25  C   UNL     1      44.082 -17.331   4.683  1.00  0.00    -0.059 A 
HETATM   26  C   UNL     1      43.346 -16.466   3.861  1.00  0.00     0.036 A 
HETATM   27  C   UNL     1      44.639 -16.847   5.990  1.00  0.00     0.048 C 
ENDBRANCH  17  20
ENDBRANCH  15  16
ENDBRANCH   1  15
TORSDOF 3
ENDMDL
MODEL 5
REMARK VINA RESULT:      -7.9      3.041      5.365
REMARK  3 active torsions:
REMARK  status: ('A' for Active; 'I' for Inactive)
REMARK    1  A    between atoms: C_4  and  N_5 
REMARK       I    between atoms: N_5  and  C_6 
REMARK    2  A    between atoms: C_6  and  C_7 
REMARK    3  A    between atoms: C_7  and  C_8 
ROOT
HETATM    1  C   UNL     1      40.650 -13.987   4.007  1.00  0.00     0.286 C 
HETATM    2  N   UNL     1      41.800 -13.189   3.404  1.00  0.00    -0.056 N 
HETATM    3  H   UNL     1      42.535 -13.896   3.184  1.00  0.00     0.278 HD
HETATM    4  H   UNL     1      41.534 -12.776   2.502  1.00  0.00     0.278 HD
HETATM    5  C   UNL     1      42.413 -12.164   4.318  1.00  0.00     0.209 C 
HETATM    6  C   UNL     1      42.794 -12.830   5.664  1.00  0.00     0.115 C 
HETATM    7  N   UNL     1      41.718 -13.643   6.225  1.00  0.00    -0.353 N 
HETATM    8  C   UNL     1      40.915 -14.449   5.455  1.00  0.00     0.249 C 
HETATM    9  O   UNL     1      40.357 -15.416   5.960  1.00  0.00    -0.271 OA
HETATM   10  C   UNL     1      41.468 -10.971   4.473  1.00  0.00     0.035 C 
HETATM   11  C   UNL     1      42.017  -9.960   5.474  1.00  0.00     0.002 C 
HETATM   12  C   UNL     1      42.304 -10.615   6.822  1.00  0.00     0.002 C 
HETATM   13  C   UNL     1      43.274 -11.788   6.680  1.00  0.00     0.027 C 
HETATM   14  H   UNL     1      41.862 -14.034   7.156  1.00  0.00     0.163 HD
ENDROOT
BRANCH   1  15
HETATM   15  C   UNL     1      40.228 -15.165   3.114  1.00  0.00     0.146 C 
BRANCH  15  16
HETATM   16  C   UNL     1      41.078 -15.266   1.875  1.00  0.00     0.224 C 
HETATM   17  N   UNL     1      42.177 -16.061   1.801  1.00  0.00    -0.327 N 
HETATM   18  H   UNL     1      42.562 -16.068   0.860  1.00  0.00     0.169 HD
HETATM   19  O   UNL     1      40.692 -14.694   0.845  1.00  0.00    -0.273 OA
BRANCH  17  20
HETATM   20  C   UNL     1      42.876 -16.875   2.717  1.00  0.00     0.035 A 
HETATM   21  C   UNL     1      43.433 -16.460   3.926  1.00  0.00     0.036 A 
HETATM   22  C   UNL     1      44.139 -17.357   4.747  1.00  0.00    -0.059 A 
HETATM   23  C   UNL     1      44.805 -16.868   6.002  1.00  0.00     0.048 C 
HETATM   24  C   UNL     1      44.284 -18.689   4.351  1.00  0.00     0.013 A 
HETATM   25  C   UNL     1      43.717 -19.136   3.156  1.00  0.00    -0.059 A 
HETATM   26  C   UNL     1      43.036 -18.219   2.341  1.00  0.00     0.036 A 
HETATM   27  C   UNL     1      43.893 -20.560   2.716  1.00  0.00     0.048 C 
ENDBRANCH  17  20
ENDBRANCH  15  16
ENDBRANCH   1  15
TORSDOF 3
ENDMDL
MODEL 6
REMARK VINA RESULT:      -7.8      1.765      2.409
REMARK  3 active torsions:
REMARK  status: ('A' for Active; 'I' for Inactive)
REMARK    1  A    between atoms: C_4  and  N_5 
REMARK       I    between atoms: N_5  and  C_6 
REMARK    2  A    between atoms: C_6  and  C_7 
REMARK    3  A    between atoms: C_7  and  C_8 
ROOT
HETATM    1  C   UNL     1      40.370 -13.536   1.601  1.00  0.00     0.286 C 
HETATM    2  N   UNL     1      39.709 -12.312   0.978  1.00  0.00    -0.056 N 
HETATM    3  H   UNL     1      38.723 -12.334   1.319  1.00  0.00     0.278 HD
HETATM    4  H   UNL     1      40.112 -11.443   1.347  1.00  0.00     0.278 HD
HETATM    5  C   UNL     1      39.672 -12.305  -0.526  1.00  0.00     0.209 C 
HETATM    6  C   UNL     1      39.062 -13.634  -1.037  1.00  0.00     0.115 C 
HETATM    7  N   UNL     1      39.650 -14.814  -0.405  1.00  0.00    -0.353 N 
HETATM    8  C   UNL     1      39.961 -14.864   0.931  1.00  0.00     0.249 C 
HETATM    9  O   UNL     1      40.018 -15.946   1.505  1.00  0.00    -0.271 OA
HETATM   10  C   UNL     1      41.068 -12.020  -1.081  1.00  0.00     0.035 C 
HETATM   11  C   UNL     1      41.082 -12.107  -2.604  1.00  0.00     0.002 C 
HETATM   12  C   UNL     1      40.561 -13.457  -3.088  1.00  0.00     0.002 C 
HETATM   13  C   UNL     1      39.152 -13.734  -2.564  1.00  0.00     0.027 C 
HETATM   14  H   UNL     1      39.366 -15.726  -0.760  1.00  0.00     0.163 HD
ENDROOT
BRANCH   1  15
HETATM   15  C   UNL     1      40.169 -13.593   3.124  1.00  0.00     0.146 C 
BRANCH  15  16
HETATM   16  C   UNL     1      41.219 -12.806   3.863  1.00  0.00     0.224 C 
HETATM   17  N   UNL     1      42.334 -13.379   4.385  1.00  0.00    -0.327 N 
HETATM   18  H   UNL     1      42.965 -12.676   4.762  1.00  0.00     0.169 HD
HETATM   19  O   UNL     1      41.120 -11.570   3.890  1.00  0.00    -0.273 OA
BRANCH  17  20
HETATM   20  C   UNL     1      42.806 -14.703   4.504  1.00  0.00     0.035 A 
HETATM   21  C   UNL     1      42.944 -15.622   3.464  1.00  0.00     0.036 A 
HETATM   22  C   UNL     1      43.398 -16.931   3.707  1.00  0.00    -0.059 A 
HETATM   23  C   UNL     1      43.456 -17.930   2.586  1.00  0.00     0.048 C 
HETATM   24  C   UNL     1      43.720 -17.320   5.010  1.00  0.00     0.013 A 
HETATM   25  C   UNL     1      43.612 -16.413   6.065  1.00  0.00    -0.059 A 
HETATM   26  C   UNL     1      43.136 -15.120   5.805  1.00  0.00     0.036 A 
HETATM   27  C   UNL     1      43.933 -16.837   7.468  1.00  0.00     0.048 C 
ENDBRANCH  17  20
ENDBRANCH  15  16
ENDBRANCH   1  15
TORSDOF 3
ENDMDL
MODEL 7
REMARK VINA RESULT:      -7.7      2.834      4.522
REMARK  3 active torsions:
REMARK  status: ('A' for Active; 'I' for Inactive)
REMARK    1  A    between atoms: C_4  and  N_5 
REMARK       I    between atoms: N_5  and  C_6 
REMARK    2  A    between atoms: C_6  and  C_7 
REMARK    3  A    between atoms: C_7  and  C_8 
ROOT
HETATM    1  C   UNL     1      40.012 -13.941   3.284  1.00  0.00     0.286 C 
HETATM    2  N   UNL     1      40.557 -12.603   2.798  1.00  0.00    -0.056 N 
HETATM    3  H   UNL     1      41.540 -12.801   2.509  1.00  0.00     0.278 HD
HETATM    4  H   UNL     1      40.074 -12.292   1.947  1.00  0.00     0.278 HD
HETATM    5  C   UNL     1      40.598 -11.517   3.837  1.00  0.00     0.209 C 
HETATM    6  C   UNL     1      41.330 -12.032   5.100  1.00  0.00     0.115 C 
HETATM    7  N   UNL     1      40.854 -13.341   5.545  1.00  0.00    -0.353 N 
HETATM    8  C   UNL     1      40.545 -14.355   4.671  1.00  0.00     0.249 C 
HETATM    9  O   UNL     1      40.588 -15.520   5.049  1.00  0.00    -0.271 OA
HETATM   10  C   UNL     1      39.182 -11.009   4.116  1.00  0.00     0.035 C 
HETATM   11  C   UNL     1      39.180  -9.976   5.239  1.00  0.00     0.002 C 
HETATM   12  C   UNL     1      39.826 -10.532   6.505  1.00  0.00     0.002 C 
HETATM   13  C   UNL     1      41.253 -11.011   6.241  1.00  0.00     0.027 C 
HETATM   14  H   UNL     1      41.223 -13.700   6.424  1.00  0.00     0.163 HD
ENDROOT
BRANCH   1  15
HETATM   15  C   UNL     1      40.215 -15.061   2.251  1.00  0.00     0.146 C 
BRANCH  15  16
HETATM   16  C   UNL     1      41.393 -14.794   1.352  1.00  0.00     0.224 C 
HETATM   17  N   UNL     1      42.536 -15.525   1.402  1.00  0.00    -0.327 N 
HETATM   18  H   UNL     1      43.177 -15.257   0.660  1.00  0.00     0.169 HD
HETATM   19  O   UNL     1      41.269 -13.951   0.451  1.00  0.00    -0.273 OA
BRANCH  17  20
HETATM   20  C   UNL     1      43.014 -16.564   2.229  1.00  0.00     0.035 A 
HETATM   21  C   UNL     1      43.076 -17.917   1.895  1.00  0.00     0.036 A 
HETATM   22  C   UNL     1      43.544 -18.871   2.816  1.00  0.00    -0.059 A 
HETATM   23  C   UNL     1      43.521 -20.332   2.466  1.00  0.00     0.048 C 
HETATM   24  C   UNL     1      43.955 -18.462   4.087  1.00  0.00     0.013 A 
HETATM   25  C   UNL     1      43.923 -17.112   4.439  1.00  0.00    -0.059 A 
HETATM   26  C   UNL     1      43.433 -16.179   3.514  1.00  0.00     0.036 A 
HETATM   27  C   UNL     1      44.341 -16.674   5.812  1.00  0.00     0.048 C 
ENDBRANCH  17  20
ENDBRANCH  15  16
ENDBRANCH   1  15
TORSDOF 3
ENDMDL
MODEL 8
REMARK VINA RESULT:      -7.7      1.442      7.472
REMARK  3 active torsions:
REMARK  status: ('A' for Active; 'I' for Inactive)
REMARK    1  A    between atoms: C_4  and  N_5 
REMARK       I    between atoms: N_5  and  C_6 
REMARK    2  A    between atoms: C_6  and  C_7 
REMARK    3  A    between atoms: C_7  and  C_8 
ROOT
HETATM    1  C   UNL     1      42.290 -14.187   2.618  1.00  0.00     0.286 C 
HETATM    2  N   UNL     1      41.413 -15.429   2.507  1.00  0.00    -0.056 N 
HETATM    3  H   UNL     1      40.521 -15.174   2.983  1.00  0.00     0.278 HD
HETATM    4  H   UNL     1      41.162 -15.621   1.530  1.00  0.00     0.278 HD
HETATM    5  C   UNL     1      41.957 -16.656   3.186  1.00  0.00     0.209 C 
HETATM    6  C   UNL     1      42.325 -16.318   4.652  1.00  0.00     0.115 C 
HETATM    7  N   UNL     1      43.121 -15.097   4.776  1.00  0.00    -0.353 N 
HETATM    8  C   UNL     1      42.876 -13.972   4.028  1.00  0.00     0.249 C 
HETATM    9  O   UNL     1      43.229 -12.874   4.444  1.00  0.00    -0.271 OA
HETATM   10  C   UNL     1      43.125 -17.225   2.378  1.00  0.00     0.035 C 
HETATM   11  C   UNL     1      43.763 -18.411   3.095  1.00  0.00     0.002 C 
HETATM   12  C   UNL     1      44.201 -18.035   4.508  1.00  0.00     0.002 C 
HETATM   13  C   UNL     1      43.031 -17.497   5.332  1.00  0.00     0.027 C 
HETATM   14  H   UNL     1      43.480 -14.864   5.701  1.00  0.00     0.163 HD
ENDROOT
BRANCH   1  15
HETATM   15  C   UNL     1      41.575 -12.924   2.111  1.00  0.00     0.146 C 
BRANCH  15  16
HETATM   16  C   UNL     1      40.077 -13.047   2.204  1.00  0.00     0.224 C 
HETATM   17  N   UNL     1      39.270 -13.042   1.112  1.00  0.00    -0.327 N 
HETATM   18  H   UNL     1      38.304 -13.229   1.368  1.00  0.00     0.169 HD
HETATM   19  O   UNL     1      39.572 -13.282   3.312  1.00  0.00    -0.273 OA
BRANCH  17  20
HETATM   20  C   UNL     1      39.475 -12.855  -0.272  1.00  0.00     0.035 A 
HETATM   21  C   UNL     1      40.095 -11.759  -0.870  1.00  0.00     0.036 A 
HETATM   22  C   UNL     1      40.215 -11.666  -2.268  1.00  0.00    -0.059 A 
HETATM   23  C   UNL     1      40.808 -10.435  -2.894  1.00  0.00     0.048 C 
HETATM   24  C   UNL     1      39.709 -12.688  -3.075  1.00  0.00     0.013 A 
HETATM   25  C   UNL     1      39.104 -13.807  -2.501  1.00  0.00    -0.059 A 
HETATM   26  C   UNL     1      38.975 -13.870  -1.106  1.00  0.00     0.036 A 
HETATM   27  C   UNL     1      38.538 -14.893  -3.367  1.00  0.00     0.048 C 
ENDBRANCH  17  20
ENDBRANCH  15  16
ENDBRANCH   1  15
TORSDOF 3
ENDMDL
MODEL 9
REMARK VINA RESULT:      -7.6      1.635      2.070
REMARK  3 active torsions:
REMARK  status: ('A' for Active; 'I' for Inactive)
REMARK    1  A    between atoms: C_4  and  N_5 
REMARK       I    between atoms: N_5  and  C_6 
REMARK    2  A    between atoms: C_6  and  C_7 
REMARK    3  A    between atoms: C_7  and  C_8 
ROOT
HETATM    1  C   UNL     1      40.750 -13.120   0.601  1.00  0.00     0.286 C 
HETATM    2  N   UNL     1      40.763 -13.829  -0.748  1.00  0.00    -0.056 N 
HETATM    3  H   UNL     1      41.761 -14.084  -0.910  1.00  0.00     0.278 HD
HETATM    4  H   UNL     1      40.251 -14.718  -0.706  1.00  0.00     0.278 HD
HETATM    5  C   UNL     1      40.313 -12.990  -1.913  1.00  0.00     0.209 C 
HETATM    6  C   UNL     1      41.106 -11.660  -1.933  1.00  0.00     0.115 C 
HETATM    7  N   UNL     1      41.148 -10.998  -0.630  1.00  0.00    -0.353 N 
HETATM    8  C   UNL     1      41.313 -11.685   0.548  1.00  0.00     0.249 C 
HETATM    9  O   UNL     1      41.781 -11.114   1.526  1.00  0.00    -0.271 OA
HETATM   10  C   UNL     1      38.796 -12.796  -1.860  1.00  0.00     0.035 C 
HETATM   11  C   UNL     1      38.322 -11.865  -2.972  1.00  0.00     0.002 C 
HETATM   12  C   UNL     1      39.052 -10.526  -2.923  1.00  0.00     0.002 C 
HETATM   13  C   UNL     1      40.567 -10.710  -3.008  1.00  0.00     0.027 C 
HETATM   14  H   UNL     1      41.571 -10.072  -0.589  1.00  0.00     0.163 HD
ENDROOT
BRANCH   1  15
HETATM   15  C   UNL     1      41.436 -13.948   1.700  1.00  0.00     0.146 C 
BRANCH  15  16
HETATM   16  C   UNL     1      40.441 -14.567   2.645  1.00  0.00     0.224 C 
HETATM   17  N   UNL     1      40.743 -15.626   3.440  1.00  0.00    -0.327 N 
HETATM   18  H   UNL     1      39.977 -15.841   4.073  1.00  0.00     0.169 HD
HETATM   19  O   UNL     1      39.341 -14.014   2.790  1.00  0.00    -0.273 OA
BRANCH  17  20
HETATM   20  C   UNL     1      41.868 -16.464   3.591  1.00  0.00     0.035 A 
HETATM   21  C   UNL     1      42.208 -17.538   2.768  1.00  0.00     0.036 A 
HETATM   22  C   UNL     1      43.342 -18.326   3.035  1.00  0.00    -0.059 A 
HETATM   23  C   UNL     1      43.641 -19.530   2.186  1.00  0.00     0.048 C 
HETATM   24  C   UNL     1      44.145 -18.032   4.140  1.00  0.00     0.013 A 
HETATM   25  C   UNL     1      43.839 -16.949   4.966  1.00  0.00    -0.059 A 
HETATM   26  C   UNL     1      42.692 -16.189   4.695  1.00  0.00     0.036 A 
HETATM   27  C   UNL     1      44.686 -16.647   6.168  1.00  0.00     0.048 C 
ENDBRANCH  17  20
ENDBRANCH  15  16
ENDBRANCH   1  15
TORSDOF 3
ENDMDL
MODEL 10
REMARK VINA RESULT:      -7.6      2.371      7.002
REMARK  3 active torsions:
REMARK  status: ('A' for Active; 'I' for Inactive)
REMARK    1  A    between atoms: C_4  and  N_5 
REMARK       I    between atoms: N_5  and  C_6 
REMARK    2  A    between atoms: C_6  and  C_7 
REMARK    3  A    between atoms: C_7  and  C_8 
ROOT
HETATM    1  C   UNL     1      42.248 -14.723   1.706  1.00  0.00     0.286 C 
HETATM    2  N   UNL     1      41.385 -15.962   1.917  1.00  0.00    -0.056 N 
HETATM    3  H   UNL     1      40.486 -15.602   2.307  1.00  0.00     0.278 HD
HETATM    4  H   UNL     1      41.143 -16.404   1.023  1.00  0.00     0.278 HD
HETATM    5  C   UNL     1      41.937 -16.963   2.894  1.00  0.00     0.209 C 
HETATM    6  C   UNL     1      42.290 -16.251   4.224  1.00  0.00     0.115 C 
HETATM    7  N   UNL     1      43.071 -15.031   4.030  1.00  0.00    -0.353 N 
HETATM    8  C   UNL     1      42.821 -14.141   3.015  1.00  0.00     0.249 C 
HETATM    9  O   UNL     1      43.159 -12.969   3.132  1.00  0.00    -0.271 OA
HETATM   10  C   UNL     1      43.117 -17.708   2.267  1.00  0.00     0.035 C 
HETATM   11  C   UNL     1      43.762 -18.659   3.270  1.00  0.00     0.002 C 
HETATM   12  C   UNL     1      44.185 -17.925   4.539  1.00  0.00     0.002 C 
HETATM   13  C   UNL     1      43.004 -17.205   5.189  1.00  0.00     0.027 C 
HETATM   14  H   UNL     1      43.422 -14.562   4.864  1.00  0.00     0.163 HD
ENDROOT
BRANCH   1  15
HETATM   15  C   UNL     1      41.523 -13.643   0.885  1.00  0.00     0.146 C 
BRANCH  15  16
HETATM   16  C   UNL     1      40.068 -13.972   0.680  1.00  0.00     0.224 C 
HETATM   17  N   UNL     1      39.074 -13.377   1.390  1.00  0.00    -0.327 N 
HETATM   18  H   UNL     1      38.159 -13.659   1.046  1.00  0.00     0.169 HD
HETATM   19  O   UNL     1      39.758 -14.726  -0.254  1.00  0.00    -0.273 OA
BRANCH  17  20
HETATM   20  C   UNL     1      39.032 -12.462   2.463  1.00  0.00     0.035 A 
HETATM   21  C   UNL     1      38.608 -11.136   2.395  1.00  0.00     0.036 A 
HETATM   22  C   UNL     1      38.639 -10.304   3.530  1.00  0.00    -0.059 A 
HETATM   23  C   UNL     1      38.260  -8.855   3.414  1.00  0.00     0.048 C 
HETATM   24  C   UNL     1      39.100 -10.813   4.747  1.00  0.00     0.013 A 
HETATM   25  C   UNL     1      39.510 -12.143   4.846  1.00  0.00    -0.059 A 
HETATM   26  C   UNL     1      39.491 -12.949   3.699  1.00  0.00     0.036 A 
HETATM   27  C   UNL     1      40.028 -12.684   6.147  1.00  0.00     0.048 C 
ENDBRANCH  17  20
ENDBRANCH  15  16
ENDBRANCH   1  15
TORSDOF 3
ENDMDL
