MODEL 1
REMARK VINA RESULT:      -8.2      0.000      0.000
REMARK  8 active torsions:
REMARK  status: ('A' for Active; 'I' for Inactive)
REMARK    1  A    between atoms: C_2  and  C_3 
REMARK    2  A    between atoms: C_3  and  N_4 
REMARK    3  A    between atoms: C_3  and  C_19 
REMARK       I    between atoms: C_19  and  N_20 
REMARK    4  A    between atoms: N_20  and  C_21 
REMARK    5  A    between atoms: C_21  and  C_22 
REMARK    6  A    between atoms: C_22  and  C_23 
REMARK    7  A    between atoms: C_23  and  O_24 
REMARK    8  A    between atoms: O_24  and  C_25 
ROOT
HETATM    1  N   UNL     1      43.041 -14.529   3.790  1.00  0.00    -0.220 N 
HETATM    2  N   UNL     1      43.006 -14.298   5.169  1.00  0.00    -0.172 NA
HETATM    3  C   UNL     1      43.095 -15.306   5.988  1.00  0.00     0.069 A 
HETATM    4  C   UNL     1      43.013 -15.036   7.467  1.00  0.00     0.074 C 
HETATM    5  C   UNL     1      43.279 -16.639   5.479  1.00  0.00     0.048 A 
HETATM    6  C   UNL     1      43.313 -16.904   4.132  1.00  0.00     0.064 A 
HETATM    7  C   UNL     1      43.135 -15.804   3.195  1.00  0.00     0.277 A 
HETATM    8  O   UNL     1      43.094 -15.979   1.979  1.00  0.00    -0.266 OA
HETATM    9  S   UNL     1      43.490 -18.017   6.433  1.00  0.00    -0.086 SA
HETATM   10  C   UNL     1      43.670 -19.030   5.050  1.00  0.00     0.017 A 
HETATM   11  C   UNL     1      43.548 -18.301   3.861  1.00  0.00    -0.002 A 
HETATM   12  C   UNL     1      43.915 -20.417   5.049  1.00  0.00     0.020 A 
HETATM   13  C   UNL     1      44.043 -21.081   3.828  1.00  0.00     0.001 A 
HETATM   14  C   UNL     1      43.927 -20.386   2.634  1.00  0.00     0.001 A 
HETATM   15  C   UNL     1      43.680 -19.010   2.640  1.00  0.00     0.014 A 
ENDROOT
BRANCH   1  16
HETATM   16  C   UNL     1      42.825 -13.371   2.913  1.00  0.00     0.205 C 
BRANCH  16  17
HETATM   17  C   UNL     1      42.872 -12.033   3.670  1.00  0.00     0.032 C 
HETATM   18  C   UNL     1      42.465 -10.848   2.806  1.00  0.00     0.007 C 
ENDBRANCH  16  17
BRANCH  16  19
HETATM   19  C   UNL     1      41.474 -13.550   2.188  1.00  0.00     0.242 C 
HETATM   20  N   UNL     1      41.572 -13.597   0.808  1.00  0.00    -0.359 N 
HETATM   21  H   UNL     1      42.484 -13.659   0.371  1.00  0.00     0.162 HD
HETATM   22  O   UNL     1      40.391 -13.606   2.766  1.00  0.00    -0.271 OA
BRANCH  20  23
HETATM   23  C   UNL     1      40.411 -13.766  -0.042  1.00  0.00     0.125 C 
BRANCH  23  24
HETATM   24  C   UNL     1      40.500 -12.955  -1.334  1.00  0.00     0.046 C 
BRANCH  24  25
HETATM   25  C   UNL     1      40.433 -13.815  -2.593  1.00  0.00     0.169 C 
BRANCH  25  26
HETATM   26  O   UNL     1      39.392 -13.334  -3.440  1.00  0.00    -0.387 OA
BRANCH  26  27
HETATM   27  C   UNL     1      38.230 -14.167  -3.462  1.00  0.00     0.113 C 
HETATM   28  C   UNL     1      38.493 -15.499  -2.765  1.00  0.00     0.039 C 
HETATM   29  C   UNL     1      37.128 -13.403  -2.734  1.00  0.00     0.039 C 
ENDBRANCH  26  27
ENDBRANCH  25  26
ENDBRANCH  24  25
ENDBRANCH  23  24
ENDBRANCH  20  23
ENDBRANCH  16  19
ENDBRANCH   1  16
TORSDOF 8
ENDMDL
MODEL 2
REMARK VINA RESULT:      -8.2      1.320      1.659
REMARK  8 active torsions:
REMARK  status: ('A' for Active; 'I' for Inactive)
REMARK    1  A    between atoms: C_2  and  C_3 
REMARK    2  A    between atoms: C_3  and  N_4 
REMARK    3  A    between atoms: C_3  and  C_19 
REMARK       I    between atoms: C_19  and  N_20 
REMARK    4  A    between atoms: N_20  and  C_21 
REMARK    5  A    between atoms: C_21  and  C_22 
REMARK    6  A    between atoms: C_22  and  C_23 
REMARK    7  A    between atoms: C_23  and  O_24 
REMARK    8  A    between atoms: O_24  and  C_25 
ROOT
HETATM    1  N   UNL     1      42.740 -14.446   2.955  1.00  0.00    -0.220 N 
HETATM    2  N   UNL     1      42.881 -14.030   4.283  1.00  0.00    -0.172 NA
HETATM    3  C   UNL     1      43.130 -14.913   5.206  1.00  0.00     0.069 A 
HETATM    4  C   UNL     1      43.236 -14.447   6.634  1.00  0.00     0.074 C 
HETATM    5  C   UNL     1      43.306 -16.298   4.856  1.00  0.00     0.048 A 
HETATM    6  C   UNL     1      43.171 -16.743   3.564  1.00  0.00     0.064 A 
HETATM    7  C   UNL     1      42.814 -15.787   2.525  1.00  0.00     0.277 A 
HETATM    8  O   UNL     1      42.617 -16.127   1.360  1.00  0.00    -0.266 OA
HETATM    9  S   UNL     1      43.711 -17.526   5.943  1.00  0.00    -0.086 SA
HETATM   10  C   UNL     1      43.750 -18.712   4.693  1.00  0.00     0.017 A 
HETATM   11  C   UNL     1      43.433 -18.156   3.448  1.00  0.00    -0.002 A 
HETATM   12  C   UNL     1      44.059 -20.078   4.839  1.00  0.00     0.020 A 
HETATM   13  C   UNL     1      44.053 -20.899   3.710  1.00  0.00     0.001 A 
HETATM   14  C   UNL     1      43.742 -20.377   2.464  1.00  0.00     0.001 A 
HETATM   15  C   UNL     1      43.432 -19.021   2.324  1.00  0.00     0.014 A 
ENDROOT
BRANCH   1  16
HETATM   16  C   UNL     1      42.352 -13.425   1.973  1.00  0.00     0.205 C 
BRANCH  16  17
HETATM   17  C   UNL     1      42.322 -12.007   2.568  1.00  0.00     0.032 C 
HETATM   18  C   UNL     1      41.783 -10.968   1.596  1.00  0.00     0.007 C 
ENDBRANCH  16  17
BRANCH  16  19
HETATM   19  C   UNL     1      40.977 -13.809   1.386  1.00  0.00     0.242 C 
HETATM   20  N   UNL     1      40.990 -14.053   0.024  1.00  0.00    -0.359 N 
HETATM   21  H   UNL     1      41.873 -14.112  -0.468  1.00  0.00     0.162 HD
HETATM   22  O   UNL     1      39.941 -13.857   2.046  1.00  0.00    -0.271 OA
BRANCH  20  23
HETATM   23  C   UNL     1      39.795 -14.430  -0.704  1.00  0.00     0.125 C 
BRANCH  23  24
HETATM   24  C   UNL     1      39.877 -14.095  -2.193  1.00  0.00     0.046 C 
BRANCH  24  25
HETATM   25  C   UNL     1      39.404 -12.682  -2.521  1.00  0.00     0.169 C 
BRANCH  25  26
HETATM   26  O   UNL     1      39.595 -11.843  -1.384  1.00  0.00    -0.387 OA
BRANCH  26  27
HETATM   27  C   UNL     1      38.473 -11.010  -1.083  1.00  0.00     0.113 C 
HETATM   28  C   UNL     1      37.311 -11.284  -2.033  1.00  0.00     0.039 C 
HETATM   29  C   UNL     1      38.063 -11.327   0.352  1.00  0.00     0.039 C 
ENDBRANCH  26  27
ENDBRANCH  25  26
ENDBRANCH  24  25
ENDBRANCH  23  24
ENDBRANCH  20  23
ENDBRANCH  16  19
ENDBRANCH   1  16
TORSDOF 8
ENDMDL
MODEL 3
REMARK VINA RESULT:      -8.0      3.325      5.900
REMARK  8 active torsions:
REMARK  status: ('A' for Active; 'I' for Inactive)
REMARK    1  A    between atoms: C_2  and  C_3 
REMARK    2  A    between atoms: C_3  and  N_4 
REMARK    3  A    between atoms: C_3  and  C_19 
REMARK       I    between atoms: C_19  and  N_20 
REMARK    4  A    between atoms: N_20  and  C_21 
REMARK    5  A    between atoms: C_21  and  C_22 
REMARK    6  A    between atoms: C_22  and  C_23 
REMARK    7  A    between atoms: C_23  and  O_24 
REMARK    8  A    between atoms: O_24  and  C_25 
ROOT
HETATM    1  N   UNL     1      42.160 -14.282   4.287  1.00  0.00    -0.220 N 
HETATM    2  N   UNL     1      42.401 -14.242   5.664  1.00  0.00    -0.172 NA
HETATM    3  C   UNL     1      42.792 -15.321   6.276  1.00  0.00     0.069 A 
HETATM    4  C   UNL     1      43.006 -15.263   7.766  1.00  0.00     0.074 C 
HETATM    5  C   UNL     1      43.022 -16.533   5.534  1.00  0.00     0.048 A 
HETATM    6  C   UNL     1      42.790 -16.611   4.183  1.00  0.00     0.064 A 
HETATM    7  C   UNL     1      42.277 -15.439   3.489  1.00  0.00     0.277 A 
HETATM    8  O   UNL     1      41.990 -15.457   2.293  1.00  0.00    -0.266 OA
HETATM    9  S   UNL     1      43.605 -17.974   6.193  1.00  0.00    -0.086 SA
HETATM   10  C   UNL     1      43.599 -18.758   4.658  1.00  0.00     0.017 A 
HETATM   11  C   UNL     1      43.129 -17.907   3.650  1.00  0.00    -0.002 A 
HETATM   12  C   UNL     1      44.006 -20.078   4.386  1.00  0.00     0.020 A 
HETATM   13  C   UNL     1      43.943 -20.550   3.073  1.00  0.00     0.001 A 
HETATM   14  C   UNL     1      43.482 -19.731   2.054  1.00  0.00     0.001 A 
HETATM   15  C   UNL     1      43.075 -18.422   2.329  1.00  0.00     0.014 A 
ENDROOT
BRANCH   1  16
HETATM   16  C   UNL     1      41.615 -13.066   3.668  1.00  0.00     0.205 C 
BRANCH  16  17
HETATM   17  C   UNL     1      42.711 -12.090   3.208  1.00  0.00     0.032 C 
HETATM   18  C   UNL     1      42.214 -11.083   2.181  1.00  0.00     0.007 C 
ENDBRANCH  16  17
BRANCH  16  19
HETATM   19  C   UNL     1      40.657 -12.392   4.673  1.00  0.00     0.242 C 
HETATM   20  N   UNL     1      41.284 -11.557   5.581  1.00  0.00    -0.359 N 
HETATM   21  H   UNL     1      42.262 -11.323   5.458  1.00  0.00     0.162 HD
HETATM   22  O   UNL     1      39.447 -12.599   4.707  1.00  0.00    -0.271 OA
BRANCH  20  23
HETATM   23  C   UNL     1      40.549 -10.833   6.599  1.00  0.00     0.125 C 
BRANCH  23  24
HETATM   24  C   UNL     1      41.207  -9.506   6.975  1.00  0.00     0.046 C 
BRANCH  24  25
HETATM   25  C   UNL     1      42.435  -9.673   7.866  1.00  0.00     0.169 C 
BRANCH  25  26
HETATM   26  O   UNL     1      43.528 -10.144   7.082  1.00  0.00    -0.387 OA
BRANCH  26  27
HETATM   27  C   UNL     1      44.315 -11.149   7.727  1.00  0.00     0.113 C 
HETATM   28  C   UNL     1      44.988 -12.062   6.705  1.00  0.00     0.039 C 
HETATM   29  C   UNL     1      45.369 -10.418   8.552  1.00  0.00     0.039 C 
ENDBRANCH  26  27
ENDBRANCH  25  26
ENDBRANCH  24  25
ENDBRANCH  23  24
ENDBRANCH  20  23
ENDBRANCH  16  19
ENDBRANCH   1  16
TORSDOF 8
ENDMDL
MODEL 4
REMARK VINA RESULT:      -7.9      3.929      7.487
REMARK  8 active torsions:
REMARK  status: ('A' for Active; 'I' for Inactive)
REMARK    1  A    between atoms: C_2  and  C_3 
REMARK    2  A    between atoms: C_3  and  N_4 
REMARK    3  A    between atoms: C_3  and  C_19 
REMARK       I    between atoms: C_19  and  N_20 
REMARK    4  A    between atoms: N_20  and  C_21 
REMARK    5  A    between atoms: C_21  and  C_22 
REMARK    6  A    between atoms: C_22  and  C_23 
REMARK    7  A    between atoms: C_23  and  O_24 
REMARK    8  A    between atoms: O_24  and  C_25 
ROOT
HETATM    1  N   UNL     1      42.023 -13.345   4.989  1.00  0.00    -0.220 N 
HETATM    2  N   UNL     1      41.138 -13.055   3.946  1.00  0.00    -0.172 NA
HETATM    3  C   UNL     1      40.991 -13.910   2.976  1.00  0.00     0.069 A 
HETATM    4  C   UNL     1      40.063 -13.557   1.844  1.00  0.00     0.074 C 
HETATM    5  C   UNL     1      41.695 -15.165   3.003  1.00  0.00     0.048 A 
HETATM    6  C   UNL     1      42.576 -15.482   4.008  1.00  0.00     0.064 A 
HETATM    7  C   UNL     1      42.818 -14.507   5.063  1.00  0.00     0.277 A 
HETATM    8  O   UNL     1      43.638 -14.701   5.958  1.00  0.00    -0.266 OA
HETATM    9  S   UNL     1      41.531 -16.391   1.853  1.00  0.00    -0.086 SA
HETATM   10  C   UNL     1      42.629 -17.419   2.693  1.00  0.00     0.017 A 
HETATM   11  C   UNL     1      43.129 -16.803   3.847  1.00  0.00    -0.002 A 
HETATM   12  C   UNL     1      43.011 -18.724   2.323  1.00  0.00     0.020 A 
HETATM   13  C   UNL     1      43.910 -19.422   3.131  1.00  0.00     0.001 A 
HETATM   14  C   UNL     1      44.422 -18.837   4.279  1.00  0.00     0.001 A 
HETATM   15  C   UNL     1      44.044 -17.541   4.641  1.00  0.00     0.014 A 
ENDROOT
BRANCH   1  16
HETATM   16  C   UNL     1      42.233 -12.298   5.998  1.00  0.00     0.205 C 
BRANCH  16  17
HETATM   17  C   UNL     1      41.070 -11.295   6.067  1.00  0.00     0.032 C 
HETATM   18  C   UNL     1      41.345 -10.132   7.008  1.00  0.00     0.007 C 
ENDBRANCH  16  17
BRANCH  16  19
HETATM   19  C   UNL     1      43.566 -11.582   5.690  1.00  0.00     0.242 C 
HETATM   20  N   UNL     1      44.542 -11.760   6.655  1.00  0.00    -0.359 N 
HETATM   21  H   UNL     1      44.398 -12.434   7.398  1.00  0.00     0.162 HD
HETATM   22  O   UNL     1      43.749 -10.875   4.702  1.00  0.00    -0.271 OA
BRANCH  20  23
HETATM   23  C   UNL     1      45.859 -11.168   6.538  1.00  0.00     0.125 C 
BRANCH  23  24
HETATM   24  C   UNL     1      46.288 -10.420   7.800  1.00  0.00     0.046 C 
BRANCH  24  25
HETATM   25  C   UNL     1      45.306  -9.329   8.218  1.00  0.00     0.169 C 
BRANCH  25  26
HETATM   26  O   UNL     1      44.234  -9.914   8.953  1.00  0.00    -0.387 OA
BRANCH  26  27
HETATM   27  C   UNL     1      43.520  -8.987   9.775  1.00  0.00     0.113 C 
HETATM   28  C   UNL     1      43.998  -9.054  11.223  1.00  0.00     0.039 C 
HETATM   29  C   UNL     1      43.782  -7.599   9.200  1.00  0.00     0.039 C 
ENDBRANCH  26  27
ENDBRANCH  25  26
ENDBRANCH  24  25
ENDBRANCH  23  24
ENDBRANCH  20  23
ENDBRANCH  16  19
ENDBRANCH   1  16
TORSDOF 8
ENDMDL
MODEL 5
REMARK VINA RESULT:      -7.8      3.071      5.014
REMARK  8 active torsions:
REMARK  status: ('A' for Active; 'I' for Inactive)
REMARK    1  A    between atoms: C_2  and  C_3 
REMARK    2  A    between atoms: C_3  and  N_4 
REMARK    3  A    between atoms: C_3  and  C_19 
REMARK       I    between atoms: C_19  and  N_20 
REMARK    4  A    between atoms: N_20  and  C_21 
REMARK    5  A    between atoms: C_21  and  C_22 
REMARK    6  A    between atoms: C_22  and  C_23 
REMARK    7  A    between atoms: C_23  and  O_24 
REMARK    8  A    between atoms: O_24  and  C_25 
ROOT
HETATM    1  N   UNL     1      42.251 -14.162   3.464  1.00  0.00    -0.220 N 
HETATM    2  N   UNL     1      42.706 -13.873   4.753  1.00  0.00    -0.172 NA
HETATM    3  C   UNL     1      43.209 -14.826   5.483  1.00  0.00     0.069 A 
HETATM    4  C   UNL     1      43.654 -14.497   6.883  1.00  0.00     0.074 C 
HETATM    5  C   UNL     1      43.340 -16.155   4.948  1.00  0.00     0.048 A 
HETATM    6  C   UNL     1      42.900 -16.478   3.688  1.00  0.00     0.064 A 
HETATM    7  C   UNL     1      42.261 -15.447   2.882  1.00  0.00     0.277 A 
HETATM    8  O   UNL     1      41.789 -15.682   1.771  1.00  0.00    -0.266 OA
HETATM    9  S   UNL     1      44.047 -17.458   5.759  1.00  0.00    -0.086 SA
HETATM   10  C   UNL     1      43.812 -18.510   4.414  1.00  0.00     0.017 A 
HETATM   11  C   UNL     1      43.174 -17.853   3.355  1.00  0.00    -0.002 A 
HETATM   12  C   UNL     1      44.195 -19.862   4.327  1.00  0.00     0.020 A 
HETATM   13  C   UNL     1      43.934 -20.566   3.150  1.00  0.00     0.001 A 
HETATM   14  C   UNL     1      43.302 -19.943   2.084  1.00  0.00     0.001 A 
HETATM   15  C   UNL     1      42.920 -18.601   2.176  1.00  0.00     0.014 A 
ENDROOT
BRANCH   1  16
HETATM   16  C   UNL     1      41.592 -13.075   2.727  1.00  0.00     0.205 C 
BRANCH  16  17
HETATM   17  C   UNL     1      42.440 -11.793   2.674  1.00  0.00     0.032 C 
HETATM   18  C   UNL     1      41.825 -10.711   1.799  1.00  0.00     0.007 C 
ENDBRANCH  16  17
BRANCH  16  19
HETATM   19  C   UNL     1      40.219 -12.805   3.376  1.00  0.00     0.242 C 
HETATM   20  N   UNL     1      40.289 -12.271   4.651  1.00  0.00    -0.359 N 
HETATM   21  H   UNL     1      41.180 -11.960   5.018  1.00  0.00     0.162 HD
HETATM   22  O   UNL     1      39.145 -13.075   2.842  1.00  0.00    -0.271 OA
BRANCH  20  23
HETATM   23  C   UNL     1      39.103 -11.946   5.418  1.00  0.00     0.125 C 
BRANCH  23  24
HETATM   24  C   UNL     1      38.681 -10.485   5.269  1.00  0.00     0.046 C 
BRANCH  24  25
HETATM   25  C   UNL     1      39.467  -9.536   6.168  1.00  0.00     0.169 C 
BRANCH  25  26
HETATM   26  O   UNL     1      40.587 -10.224   6.720  1.00  0.00    -0.387 OA
BRANCH  26  27
HETATM   27  C   UNL     1      41.840  -9.579   6.482  1.00  0.00     0.113 C 
HETATM   28  C   UNL     1      42.976 -10.595   6.397  1.00  0.00     0.039 C 
HETATM   29  C   UNL     1      41.705  -8.831   5.160  1.00  0.00     0.039 C 
ENDBRANCH  26  27
ENDBRANCH  25  26
ENDBRANCH  24  25
ENDBRANCH  23  24
ENDBRANCH  20  23
ENDBRANCH  16  19
ENDBRANCH   1  16
TORSDOF 8
ENDMDL
MODEL 6
REMARK VINA RESULT:      -7.4      5.981      9.573
REMARK  8 active torsions:
REMARK  status: ('A' for Active; 'I' for Inactive)
REMARK    1  A    between atoms: C_2  and  C_3 
REMARK    2  A    between atoms: C_3  and  N_4 
REMARK    3  A    between atoms: C_3  and  C_19 
REMARK       I    between atoms: C_19  and  N_20 
REMARK    4  A    between atoms: N_20  and  C_21 
REMARK    5  A    between atoms: C_21  and  C_22 
REMARK    6  A    between atoms: C_22  and  C_23 
REMARK    7  A    between atoms: C_23  and  O_24 
REMARK    8  A    between atoms: O_24  and  C_25 
ROOT
HETATM    1  N   UNL     1      43.667 -10.427   8.455  1.00  0.00    -0.220 N 
HETATM    2  N   UNL     1      42.767  -9.873   7.539  1.00  0.00    -0.172 NA
HETATM    3  C   UNL     1      41.736  -9.210   7.977  1.00  0.00     0.069 A 
HETATM    4  C   UNL     1      40.760  -8.658   6.972  1.00  0.00     0.074 C 
HETATM    5  C   UNL     1      41.552  -9.007   9.389  1.00  0.00     0.048 A 
HETATM    6  C   UNL     1      42.411  -9.540  10.318  1.00  0.00     0.064 A 
HETATM    7  C   UNL     1      43.528 -10.353   9.856  1.00  0.00     0.277 A 
HETATM    8  O   UNL     1      44.299 -10.911  10.635  1.00  0.00    -0.266 OA
HETATM    9  S   UNL     1      40.306  -8.100  10.081  1.00  0.00    -0.086 SA
HETATM   10  C   UNL     1      40.903  -8.369  11.675  1.00  0.00     0.017 A 
HETATM   11  C   UNL     1      42.051  -9.171  11.664  1.00  0.00    -0.002 A 
HETATM   12  C   UNL     1      40.358  -7.869  12.873  1.00  0.00     0.020 A 
HETATM   13  C   UNL     1      40.981  -8.180  14.083  1.00  0.00     0.001 A 
HETATM   14  C   UNL     1      42.118  -8.972  14.104  1.00  0.00     0.001 A 
HETATM   15  C   UNL     1      42.654  -9.470  12.912  1.00  0.00     0.014 A 
ENDROOT
BRANCH   1  16
HETATM   16  C   UNL     1      44.749 -11.258   7.910  1.00  0.00     0.205 C 
BRANCH  16  17
HETATM   17  C   UNL     1      45.948 -10.428   7.421  1.00  0.00     0.032 C 
HETATM   18  C   UNL     1      46.198  -9.190   8.270  1.00  0.00     0.007 C 
ENDBRANCH  16  17
BRANCH  16  19
HETATM   19  C   UNL     1      44.174 -12.126   6.771  1.00  0.00     0.242 C 
HETATM   20  N   UNL     1      43.367 -13.165   7.201  1.00  0.00    -0.359 N 
HETATM   21  H   UNL     1      43.086 -13.214   8.173  1.00  0.00     0.162 HD
HETATM   22  O   UNL     1      44.433 -11.953   5.582  1.00  0.00    -0.271 OA
BRANCH  20  23
HETATM   23  C   UNL     1      42.735 -14.084   6.277  1.00  0.00     0.125 C 
BRANCH  23  24
HETATM   24  C   UNL     1      43.579 -15.329   6.008  1.00  0.00     0.046 C 
BRANCH  24  25
HETATM   25  C   UNL     1      42.885 -16.345   5.104  1.00  0.00     0.169 C 
BRANCH  25  26
HETATM   26  O   UNL     1      42.482 -15.706   3.896  1.00  0.00    -0.387 OA
BRANCH  26  27
HETATM   27  C   UNL     1      42.520 -16.558   2.748  1.00  0.00     0.113 C 
HETATM   28  C   UNL     1      43.205 -15.869   1.571  1.00  0.00     0.039 C 
HETATM   29  C   UNL     1      43.299 -17.805   3.152  1.00  0.00     0.039 C 
ENDBRANCH  26  27
ENDBRANCH  25  26
ENDBRANCH  24  25
ENDBRANCH  23  24
ENDBRANCH  20  23
ENDBRANCH  16  19
ENDBRANCH   1  16
TORSDOF 8
ENDMDL
MODEL 7
REMARK VINA RESULT:      -7.2      3.390      6.387
REMARK  8 active torsions:
REMARK  status: ('A' for Active; 'I' for Inactive)
REMARK    1  A    between atoms: C_2  and  C_3 
REMARK    2  A    between atoms: C_3  and  N_4 
REMARK    3  A    between atoms: C_3  and  C_19 
REMARK       I    between atoms: C_19  and  N_20 
REMARK    4  A    between atoms: N_20  and  C_21 
REMARK    5  A    between atoms: C_21  and  C_22 
REMARK    6  A    between atoms: C_22  and  C_23 
REMARK    7  A    between atoms: C_23  and  O_24 
REMARK    8  A    between atoms: O_24  and  C_25 
ROOT
HETATM    1  N   UNL     1      42.196 -14.329   4.183  1.00  0.00    -0.220 N 
HETATM    2  N   UNL     1      42.440 -14.261   5.558  1.00  0.00    -0.172 NA
HETATM    3  C   UNL     1      42.830 -15.328   6.192  1.00  0.00     0.069 A 
HETATM    4  C   UNL     1      43.047 -15.239   7.680  1.00  0.00     0.074 C 
HETATM    5  C   UNL     1      43.056 -16.555   5.475  1.00  0.00     0.048 A 
HETATM    6  C   UNL     1      42.822 -16.661   4.126  1.00  0.00     0.064 A 
HETATM    7  C   UNL     1      42.309 -15.503   3.409  1.00  0.00     0.277 A 
HETATM    8  O   UNL     1      42.020 -15.546   2.215  1.00  0.00    -0.266 OA
HETATM    9  S   UNL     1      43.639 -17.983   6.163  1.00  0.00    -0.086 SA
HETATM   10  C   UNL     1      43.628 -18.799   4.644  1.00  0.00     0.017 A 
HETATM   11  C   UNL     1      43.158 -17.968   3.620  1.00  0.00    -0.002 A 
HETATM   12  C   UNL     1      44.033 -20.125   4.399  1.00  0.00     0.020 A 
HETATM   13  C   UNL     1      43.966 -20.624   3.096  1.00  0.00     0.001 A 
HETATM   14  C   UNL     1      43.505 -19.825   2.061  1.00  0.00     0.001 A 
HETATM   15  C   UNL     1      43.100 -18.511   2.310  1.00  0.00     0.014 A 
ENDROOT
BRANCH   1  16
HETATM   16  C   UNL     1      41.652 -13.126   3.540  1.00  0.00     0.205 C 
BRANCH  16  17
HETATM   17  C   UNL     1      42.720 -12.048   3.294  1.00  0.00     0.032 C 
HETATM   18  C   UNL     1      42.255 -10.961   2.336  1.00  0.00     0.007 C 
ENDBRANCH  16  17
BRANCH  16  19
HETATM   19  C   UNL     1      40.504 -12.579   4.415  1.00  0.00     0.242 C 
HETATM   20  N   UNL     1      40.922 -11.783   5.467  1.00  0.00    -0.359 N 
HETATM   21  H   UNL     1      41.890 -11.490   5.522  1.00  0.00     0.162 HD
HETATM   22  O   UNL     1      39.319 -12.851   4.235  1.00  0.00    -0.271 OA
BRANCH  20  23
HETATM   23  C   UNL     1      39.987 -11.177   6.394  1.00  0.00     0.125 C 
BRANCH  23  24
HETATM   24  C   UNL     1      40.447  -9.805   6.887  1.00  0.00     0.046 C 
BRANCH  24  25
HETATM   25  C   UNL     1      39.544  -9.219   7.969  1.00  0.00     0.169 C 
BRANCH  25  26
HETATM   26  O   UNL     1      39.692  -9.974   9.169  1.00  0.00    -0.387 OA
BRANCH  26  27
HETATM   27  C   UNL     1      39.764  -9.175  10.352  1.00  0.00     0.113 C 
HETATM   28  C   UNL     1      39.654 -10.037  11.607  1.00  0.00     0.039 C 
HETATM   29  C   UNL     1      41.114  -8.465  10.321  1.00  0.00     0.039 C 
ENDBRANCH  26  27
ENDBRANCH  25  26
ENDBRANCH  24  25
ENDBRANCH  23  24
ENDBRANCH  20  23
ENDBRANCH  16  19
ENDBRANCH   1  16
TORSDOF 8
ENDMDL
MODEL 8
REMARK VINA RESULT:      -7.2      5.041      9.136
REMARK  8 active torsions:
REMARK  status: ('A' for Active; 'I' for Inactive)
REMARK    1  A    between atoms: C_2  and  C_3 
REMARK    2  A    between atoms: C_3  and  N_4 
REMARK    3  A    between atoms: C_3  and  C_19 
REMARK       I    between atoms: C_19  and  N_20 
REMARK    4  A    between atoms: N_20  and  C_21 
REMARK    5  A    between atoms: C_21  and  C_22 
REMARK    6  A    between atoms: C_22  and  C_23 
REMARK    7  A    between atoms: C_23  and  O_24 
REMARK    8  A    between atoms: O_24  and  C_25 
ROOT
HETATM    1  N   UNL     1      43.844 -12.252   6.238  1.00  0.00    -0.220 N 
HETATM    2  N   UNL     1      43.782 -13.246   7.220  1.00  0.00    -0.172 NA
HETATM    3  C   UNL     1      43.155 -14.358   6.966  1.00  0.00     0.069 A 
HETATM    4  C   UNL     1      43.067 -15.395   8.054  1.00  0.00     0.074 C 
HETATM    5  C   UNL     1      42.573 -14.582   5.669  1.00  0.00     0.048 A 
HETATM    6  C   UNL     1      42.609 -13.628   4.682  1.00  0.00     0.064 A 
HETATM    7  C   UNL     1      43.236 -12.345   4.968  1.00  0.00     0.277 A 
HETATM    8  O   UNL     1      43.249 -11.425   4.152  1.00  0.00    -0.266 OA
HETATM    9  S   UNL     1      41.806 -16.007   5.188  1.00  0.00    -0.086 SA
HETATM   10  C   UNL     1      41.518 -15.397   3.602  1.00  0.00     0.017 A 
HETATM   11  C   UNL     1      42.001 -14.090   3.460  1.00  0.00    -0.002 A 
HETATM   12  C   UNL     1      40.891 -16.076   2.539  1.00  0.00     0.020 A 
HETATM   13  C   UNL     1      40.750 -15.429   1.310  1.00  0.00     0.001 A 
HETATM   14  C   UNL     1      41.217 -14.135   1.140  1.00  0.00     0.001 A 
HETATM   15  C   UNL     1      41.836 -13.463   2.198  1.00  0.00     0.014 A 
ENDROOT
BRANCH   1  16
HETATM   16  C   UNL     1      44.467 -10.977   6.615  1.00  0.00     0.205 C 
BRANCH  16  17
HETATM   17  C   UNL     1      45.887 -11.152   7.178  1.00  0.00     0.032 C 
HETATM   18  C   UNL     1      46.515  -9.838   7.620  1.00  0.00     0.007 C 
ENDBRANCH  16  17
BRANCH  16  19
HETATM   19  C   UNL     1      43.550 -10.266   7.634  1.00  0.00     0.242 C 
HETATM   20  N   UNL     1      43.774 -10.631   8.950  1.00  0.00    -0.359 N 
HETATM   21  H   UNL     1      44.579 -11.199   9.184  1.00  0.00     0.162 HD
HETATM   22  O   UNL     1      42.664  -9.475   7.319  1.00  0.00    -0.271 OA
BRANCH  20  23
HETATM   23  C   UNL     1      43.014 -10.067  10.047  1.00  0.00     0.125 C 
BRANCH  23  24
HETATM   24  C   UNL     1      43.842  -9.904  11.320  1.00  0.00     0.046 C 
BRANCH  24  25
HETATM   25  C   UNL     1      43.167  -9.028  12.371  1.00  0.00     0.169 C 
BRANCH  25  26
HETATM   26  O   UNL     1      42.279  -9.824  13.152  1.00  0.00    -0.387 OA
BRANCH  26  27
HETATM   27  C   UNL     1      40.979  -9.253  13.317  1.00  0.00     0.113 C 
HETATM   28  C   UNL     1      39.892 -10.321  13.225  1.00  0.00     0.039 C 
HETATM   29  C   UNL     1      40.957  -8.600  14.695  1.00  0.00     0.039 C 
ENDBRANCH  26  27
ENDBRANCH  25  26
ENDBRANCH  24  25
ENDBRANCH  23  24
ENDBRANCH  20  23
ENDBRANCH  16  19
ENDBRANCH   1  16
TORSDOF 8
ENDMDL
MODEL 9
REMARK VINA RESULT:      -7.1      3.938      9.421
REMARK  8 active torsions:
REMARK  status: ('A' for Active; 'I' for Inactive)
REMARK    1  A    between atoms: C_2  and  C_3 
REMARK    2  A    between atoms: C_3  and  N_4 
REMARK    3  A    between atoms: C_3  and  C_19 
REMARK       I    between atoms: C_19  and  N_20 
REMARK    4  A    between atoms: N_20  and  C_21 
REMARK    5  A    between atoms: C_21  and  C_22 
REMARK    6  A    between atoms: C_22  and  C_23 
REMARK    7  A    between atoms: C_23  and  O_24 
REMARK    8  A    between atoms: O_24  and  C_25 
ROOT
HETATM    1  N   UNL     1      39.777 -12.662  -1.087  1.00  0.00    -0.220 N 
HETATM    2  N   UNL     1      39.018 -12.304   0.032  1.00  0.00    -0.172 NA
HETATM    3  C   UNL     1      38.822 -11.045   0.295  1.00  0.00     0.069 A 
HETATM    4  C   UNL     1      38.037 -10.685   1.529  1.00  0.00     0.074 C 
HETATM    5  C   UNL     1      39.339 -10.031  -0.585  1.00  0.00     0.048 A 
HETATM    6  C   UNL     1      40.092 -10.344  -1.690  1.00  0.00     0.064 A 
HETATM    7  C   UNL     1      40.393 -11.743  -1.962  1.00  0.00     0.277 A 
HETATM    8  O   UNL     1      41.111 -12.090  -2.897  1.00  0.00    -0.266 OA
HETATM    9  S   UNL     1      39.086  -8.371  -0.402  1.00  0.00    -0.086 SA
HETATM   10  C   UNL     1      39.966  -8.010  -1.840  1.00  0.00     0.017 A 
HETATM   11  C   UNL     1      40.463  -9.172  -2.442  1.00  0.00    -0.002 A 
HETATM   12  C   UNL     1      40.185  -6.734  -2.394  1.00  0.00     0.020 A 
HETATM   13  C   UNL     1      40.917  -6.625  -3.578  1.00  0.00     0.001 A 
HETATM   14  C   UNL     1      41.423  -7.759  -4.196  1.00  0.00     0.001 A 
HETATM   15  C   UNL     1      41.206  -9.023  -3.641  1.00  0.00     0.014 A 
ENDROOT
BRANCH   1  16
HETATM   16  C   UNL     1      40.060 -14.091  -1.274  1.00  0.00     0.205 C 
BRANCH  16  17
HETATM   17  C   UNL     1      38.860 -14.866  -1.844  1.00  0.00     0.032 C 
HETATM   18  C   UNL     1      38.627 -14.593  -3.323  1.00  0.00     0.007 C 
ENDBRANCH  16  17
BRANCH  16  19
HETATM   19  C   UNL     1      40.509 -14.683   0.079  1.00  0.00     0.242 C 
HETATM   20  N   UNL     1      41.717 -14.191   0.540  1.00  0.00    -0.359 N 
HETATM   21  H   UNL     1      42.151 -13.404   0.073  1.00  0.00     0.162 HD
HETATM   22  O   UNL     1      39.883 -15.548   0.688  1.00  0.00    -0.271 OA
BRANCH  20  23
HETATM   23  C   UNL     1      42.299 -14.625   1.794  1.00  0.00     0.125 C 
BRANCH  23  24
HETATM   24  C   UNL     1      43.134 -15.897   1.652  1.00  0.00     0.046 C 
BRANCH  24  25
HETATM   25  C   UNL     1      43.319 -16.648   2.968  1.00  0.00     0.169 C 
BRANCH  25  26
HETATM   26  O   UNL     1      42.850 -17.986   2.819  1.00  0.00    -0.387 OA
BRANCH  26  27
HETATM   27  C   UNL     1      43.885 -18.971   2.853  1.00  0.00     0.113 C 
HETATM   28  C   UNL     1      44.185 -19.406   4.285  1.00  0.00     0.039 C 
HETATM   29  C   UNL     1      43.387 -20.160   2.038  1.00  0.00     0.039 C 
ENDBRANCH  26  27
ENDBRANCH  25  26
ENDBRANCH  24  25
ENDBRANCH  23  24
ENDBRANCH  20  23
ENDBRANCH  16  19
ENDBRANCH   1  16
TORSDOF 8
ENDMDL
MODEL 10
REMARK VINA RESULT:      -7.0      4.113      7.889
REMARK  8 active torsions:
REMARK  status: ('A' for Active; 'I' for Inactive)
REMARK    1  A    between atoms: C_2  and  C_3 
REMARK    2  A    between atoms: C_3  and  N_4 
REMARK    3  A    between atoms: C_3  and  C_19 
REMARK       I    between atoms: C_19  and  N_20 
REMARK    4  A    between atoms: N_20  and  C_21 
REMARK    5  A    between atoms: C_21  and  C_22 
REMARK    6  A    between atoms: C_22  and  C_23 
REMARK    7  A    between atoms: C_23  and  O_24 
REMARK    8  A    between atoms: O_24  and  C_25 
ROOT
HETATM    1  N   UNL     1      41.147 -12.934   4.532  1.00  0.00    -0.220 N 
HETATM    2  N   UNL     1      40.942 -12.707   3.168  1.00  0.00    -0.172 NA
HETATM    3  C   UNL     1      41.408 -13.559   2.301  1.00  0.00     0.069 A 
HETATM    4  C   UNL     1      41.211 -13.270   0.836  1.00  0.00     0.074 C 
HETATM    5  C   UNL     1      42.084 -14.749   2.746  1.00  0.00     0.048 A 
HETATM    6  C   UNL     1      42.307 -15.003   4.077  1.00  0.00     0.064 A 
HETATM    7  C   UNL     1      41.866 -14.025   5.062  1.00  0.00     0.277 A 
HETATM    8  O   UNL     1      42.088 -14.160   6.264  1.00  0.00    -0.266 OA
HETATM    9  S   UNL     1      42.661 -15.969   1.731  1.00  0.00    -0.086 SA
HETATM   10  C   UNL     1      43.212 -16.911   3.064  1.00  0.00     0.017 A 
HETATM   11  C   UNL     1      42.962 -16.270   4.283  1.00  0.00    -0.002 A 
HETATM   12  C   UNL     1      43.834 -18.173   3.003  1.00  0.00     0.020 A 
HETATM   13  C   UNL     1      44.210 -18.803   4.191  1.00  0.00     0.001 A 
HETATM   14  C   UNL     1      43.975 -18.192   5.414  1.00  0.00     0.001 A 
HETATM   15  C   UNL     1      43.361 -16.937   5.470  1.00  0.00     0.014 A 
ENDROOT
BRANCH   1  16
HETATM   16  C   UNL     1      40.698 -11.886   5.459  1.00  0.00     0.205 C 
BRANCH  16  17
HETATM   17  C   UNL     1      39.459 -11.131   4.949  1.00  0.00     0.032 C 
HETATM   18  C   UNL     1      38.734 -10.371   6.050  1.00  0.00     0.007 C 
ENDBRANCH  16  17
BRANCH  16  19
HETATM   19  C   UNL     1      41.873 -10.917   5.710  1.00  0.00     0.242 C 
HETATM   20  N   UNL     1      42.286 -10.856   7.029  1.00  0.00    -0.359 N 
HETATM   21  H   UNL     1      41.921 -11.519   7.702  1.00  0.00     0.162 HD
HETATM   22  O   UNL     1      42.383 -10.221   4.835  1.00  0.00    -0.271 OA
BRANCH  20  23
HETATM   23  C   UNL     1      43.379 -10.005   7.457  1.00  0.00     0.125 C 
BRANCH  23  24
HETATM   24  C   UNL     1      42.916  -8.609   7.870  1.00  0.00     0.046 C 
BRANCH  24  25
HETATM   25  C   UNL     1      42.968  -8.377   9.378  1.00  0.00     0.169 C 
BRANCH  25  26
HETATM   26  O   UNL     1      43.553  -9.513  10.011  1.00  0.00    -0.387 OA
BRANCH  26  27
HETATM   27  C   UNL     1      43.051  -9.767  11.325  1.00  0.00     0.113 C 
HETATM   28  C   UNL     1      43.647 -11.048  11.904  1.00  0.00     0.039 C 
HETATM   29  C   UNL     1      43.444  -8.571  12.185  1.00  0.00     0.039 C 
ENDBRANCH  26  27
ENDBRANCH  25  26
ENDBRANCH  24  25
ENDBRANCH  23  24
ENDBRANCH  20  23
ENDBRANCH  16  19
ENDBRANCH   1  16
TORSDOF 8
ENDMDL
