MODEL 1
REMARK VINA RESULT:      -8.3      0.000      0.000
REMARK  3 active torsions:
REMARK  status: ('A' for Active; 'I' for Inactive)
REMARK    1  A    between atoms: C_3  and  N_4 
REMARK       I    between atoms: N_4  and  C_5 
REMARK    2  A    between atoms: C_5  and  C_6 
REMARK    3  A    between atoms: C_6  and  C_7 
ROOT
HETATM    1  C   UNL     1      40.397 -13.341   0.784  1.00  0.00     0.286 C 
HETATM    2  N   UNL     1      40.949 -13.369  -0.640  1.00  0.00    -0.056 N 
HETATM    3  H   UNL     1      41.608 -12.585  -0.723  1.00  0.00     0.278 HD
HETATM    4  H   UNL     1      41.562 -14.207  -0.738  1.00  0.00     0.278 HD
HETATM    5  C   UNL     1      39.977 -13.283  -1.776  1.00  0.00     0.209 C 
HETATM    6  C   UNL     1      38.986 -12.129  -1.513  1.00  0.00     0.115 C 
HETATM    7  N   UNL     1      38.386 -12.215  -0.186  1.00  0.00    -0.353 N 
HETATM    8  C   UNL     1      39.077 -12.569   0.944  1.00  0.00     0.249 C 
HETATM    9  O   UNL     1      38.603 -12.327   2.051  1.00  0.00    -0.271 OA
HETATM   10  C   UNL     1      39.288 -14.628  -2.003  1.00  0.00     0.035 C 
HETATM   11  C   UNL     1      38.259 -14.523  -3.125  1.00  0.00     0.002 C 
HETATM   12  C   UNL     1      37.238 -13.424  -2.843  1.00  0.00     0.002 C 
HETATM   13  C   UNL     1      37.911 -12.071  -2.604  1.00  0.00     0.027 C 
HETATM   14  H   UNL     1      37.560 -11.652   0.015  1.00  0.00     0.163 HD
ENDROOT
BRANCH   1  15
HETATM   15  C   UNL     1      40.232 -14.735   1.410  1.00  0.00     0.146 C 
BRANCH  15  16
HETATM   16  C   UNL     1      41.550 -15.326   1.852  1.00  0.00     0.224 C 
HETATM   17  N   UNL     1      41.423 -16.498   2.561  1.00  0.00    -0.327 N 
HETATM   18  H   UNL     1      40.489 -16.782   2.834  1.00  0.00     0.169 HD
HETATM   19  O   UNL     1      42.590 -14.757   1.521  1.00  0.00    -0.273 OA
BRANCH  17  20
HETATM   20  C   UNL     1      42.464 -17.343   3.024  1.00  0.00     0.040 A 
HETATM   21  C   UNL     1      43.020 -17.101   4.300  1.00  0.00    -0.035 A 
HETATM   22  C   UNL     1      42.583 -15.956   5.176  1.00  0.00     0.050 C 
HETATM   23  C   UNL     1      44.036 -17.947   4.781  1.00  0.00     0.009 A 
HETATM   24  C   UNL     1      44.497 -19.017   4.018  1.00  0.00     0.001 A 
HETATM   25  C   UNL     1      43.949 -19.255   2.765  1.00  0.00     0.002 A 
HETATM   26  C   UNL     1      42.940 -18.424   2.271  1.00  0.00     0.030 A 
ENDBRANCH  17  20
ENDBRANCH  15  16
ENDBRANCH   1  15
TORSDOF 3
ENDMDL
MODEL 2
REMARK VINA RESULT:      -8.0      4.013      5.657
REMARK  3 active torsions:
REMARK  status: ('A' for Active; 'I' for Inactive)
REMARK    1  A    between atoms: C_3  and  N_4 
REMARK       I    between atoms: N_4  and  C_5 
REMARK    2  A    between atoms: C_5  and  C_6 
REMARK    3  A    between atoms: C_6  and  C_7 
ROOT
HETATM    1  C   UNL     1      41.495 -13.715   3.146  1.00  0.00     0.286 C 
HETATM    2  N   UNL     1      41.268 -14.080   4.612  1.00  0.00    -0.056 N 
HETATM    3  H   UNL     1      40.263 -13.972   4.797  1.00  0.00     0.278 HD
HETATM    4  H   UNL     1      41.422 -15.106   4.722  1.00  0.00     0.278 HD
HETATM    5  C   UNL     1      42.020 -13.313   5.655  1.00  0.00     0.209 C 
HETATM    6  C   UNL     1      41.900 -11.802   5.363  1.00  0.00     0.115 C 
HETATM    7  N   UNL     1      42.250 -11.482   3.983  1.00  0.00    -0.353 N 
HETATM    8  C   UNL     1      41.886 -12.247   2.905  1.00  0.00     0.249 C 
HETATM    9  O   UNL     1      41.941 -11.774   1.773  1.00  0.00    -0.271 OA
HETATM   10  C   UNL     1      43.467 -13.796   5.745  1.00  0.00     0.035 C 
HETATM   11  C   UNL     1      44.245 -12.976   6.771  1.00  0.00     0.002 C 
HETATM   12  C   UNL     1      44.182 -11.484   6.454  1.00  0.00     0.002 C 
HETATM   13  C   UNL     1      42.740 -10.985   6.351  1.00  0.00     0.027 C 
HETATM   14  H   UNL     1      42.428 -10.509   3.736  1.00  0.00     0.163 HD
ENDROOT
BRANCH   1  15
HETATM   15  C   UNL     1      42.515 -14.619   2.435  1.00  0.00     0.146 C 
BRANCH  15  16
HETATM   16  C   UNL     1      42.320 -16.079   2.772  1.00  0.00     0.224 C 
HETATM   17  N   UNL     1      43.488 -16.805   2.789  1.00  0.00    -0.327 N 
HETATM   18  H   UNL     1      44.328 -16.349   2.453  1.00  0.00     0.169 HD
HETATM   19  O   UNL     1      41.185 -16.476   3.034  1.00  0.00    -0.273 OA
BRANCH  17  20
HETATM   20  C   UNL     1      43.654 -18.163   3.164  1.00  0.00     0.040 A 
HETATM   21  C   UNL     1      44.038 -18.461   4.491  1.00  0.00    -0.035 A 
HETATM   22  C   UNL     1      44.321 -17.396   5.516  1.00  0.00     0.050 C 
HETATM   23  C   UNL     1      44.182 -19.806   4.880  1.00  0.00     0.009 A 
HETATM   24  C   UNL     1      43.949 -20.841   3.979  1.00  0.00     0.001 A 
HETATM   25  C   UNL     1      43.571 -20.547   2.676  1.00  0.00     0.002 A 
HETATM   26  C   UNL     1      43.425 -19.217   2.271  1.00  0.00     0.030 A 
ENDBRANCH  17  20
ENDBRANCH  15  16
ENDBRANCH   1  15
TORSDOF 3
ENDMDL
MODEL 3
REMARK VINA RESULT:      -7.8      1.712      7.154
REMARK  3 active torsions:
REMARK  status: ('A' for Active; 'I' for Inactive)
REMARK    1  A    between atoms: C_3  and  N_4 
REMARK       I    between atoms: N_4  and  C_5 
REMARK    2  A    between atoms: C_5  and  C_6 
REMARK    3  A    between atoms: C_6  and  C_7 
ROOT
HETATM    1  C   UNL     1      41.450 -13.854   3.794  1.00  0.00     0.286 C 
HETATM    2  N   UNL     1      40.665 -15.148   3.583  1.00  0.00    -0.056 N 
HETATM    3  H   UNL     1      39.931 -15.176   4.302  1.00  0.00     0.278 HD
HETATM    4  H   UNL     1      40.125 -15.063   2.694  1.00  0.00     0.278 HD
HETATM    5  C   UNL     1      41.414 -16.444   3.631  1.00  0.00     0.209 C 
HETATM    6  C   UNL     1      42.323 -16.462   4.879  1.00  0.00     0.115 C 
HETATM    7  N   UNL     1      43.148 -15.262   4.971  1.00  0.00    -0.353 N 
HETATM    8  C   UNL     1      42.699 -14.001   4.678  1.00  0.00     0.249 C 
HETATM    9  O   UNL     1      43.332 -13.022   5.065  1.00  0.00    -0.271 OA
HETATM   10  C   UNL     1      42.176 -16.678   2.327  1.00  0.00     0.035 C 
HETATM   11  C   UNL     1      42.982 -17.973   2.400  1.00  0.00     0.002 C 
HETATM   12  C   UNL     1      43.928 -17.973   3.598  1.00  0.00     0.002 C 
HETATM   13  C   UNL     1      43.183 -17.730   4.911  1.00  0.00     0.027 C 
HETATM   14  H   UNL     1      43.940 -15.262   5.614  1.00  0.00     0.163 HD
ENDROOT
BRANCH   1  15
HETATM   15  C   UNL     1      41.851 -13.155   2.486  1.00  0.00     0.146 C 
BRANCH  15  16
HETATM   16  C   UNL     1      40.727 -13.138   1.476  1.00  0.00     0.224 C 
HETATM   17  N   UNL     1      41.127 -13.440   0.195  1.00  0.00    -0.327 N 
HETATM   18  H   UNL     1      42.122 -13.510   0.019  1.00  0.00     0.169 HD
HETATM   19  O   UNL     1      39.584 -12.905   1.872  1.00  0.00    -0.273 OA
BRANCH  17  20
HETATM   20  C   UNL     1      40.305 -13.603  -0.949  1.00  0.00     0.040 A 
HETATM   21  C   UNL     1      40.309 -12.596  -1.940  1.00  0.00    -0.035 A 
HETATM   22  C   UNL     1      41.118 -11.332  -1.815  1.00  0.00     0.050 C 
HETATM   23  C   UNL     1      39.516 -12.759  -3.091  1.00  0.00     0.009 A 
HETATM   24  C   UNL     1      38.732 -13.896  -3.266  1.00  0.00     0.001 A 
HETATM   25  C   UNL     1      38.730 -14.886  -2.292  1.00  0.00     0.002 A 
HETATM   26  C   UNL     1      39.510 -14.741  -1.142  1.00  0.00     0.030 A 
ENDBRANCH  17  20
ENDBRANCH  15  16
ENDBRANCH   1  15
TORSDOF 3
ENDMDL
MODEL 4
REMARK VINA RESULT:      -7.7      5.228      7.979
REMARK  3 active torsions:
REMARK  status: ('A' for Active; 'I' for Inactive)
REMARK    1  A    between atoms: C_3  and  N_4 
REMARK       I    between atoms: N_4  and  C_5 
REMARK    2  A    between atoms: C_5  and  C_6 
REMARK    3  A    between atoms: C_6  and  C_7 
ROOT
HETATM    1  C   UNL     1      42.065 -14.349   6.049  1.00  0.00     0.286 C 
HETATM    2  N   UNL     1      41.562 -13.743   4.739  1.00  0.00    -0.056 N 
HETATM    3  H   UNL     1      40.554 -13.578   4.851  1.00  0.00     0.278 HD
HETATM    4  H   UNL     1      41.954 -12.779   4.653  1.00  0.00     0.278 HD
HETATM    5  C   UNL     1      41.771 -14.519   3.476  1.00  0.00     0.209 C 
HETATM    6  C   UNL     1      41.329 -15.982   3.697  1.00  0.00     0.115 C 
HETATM    7  N   UNL     1      41.935 -16.562   4.891  1.00  0.00    -0.353 N 
HETATM    8  C   UNL     1      42.092 -15.886   6.073  1.00  0.00     0.249 C 
HETATM    9  O   UNL     1      42.317 -16.509   7.107  1.00  0.00    -0.271 OA
HETATM   10  C   UNL     1      43.217 -14.393   2.995  1.00  0.00     0.035 C 
HETATM   11  C   UNL     1      43.440 -15.229   1.738  1.00  0.00     0.002 C 
HETATM   12  C   UNL     1      43.062 -16.690   1.966  1.00  0.00     0.002 C 
HETATM   13  C   UNL     1      41.621 -16.834   2.457  1.00  0.00     0.027 C 
HETATM   14  H   UNL     1      41.902 -17.573   5.013  1.00  0.00     0.163 HD
ENDROOT
BRANCH   1  15
HETATM   15  C   UNL     1      43.443 -13.824   6.484  1.00  0.00     0.146 C 
BRANCH  15  16
HETATM   16  C   UNL     1      43.485 -12.316   6.560  1.00  0.00     0.224 C 
HETATM   17  N   UNL     1      43.654 -11.829   7.835  1.00  0.00    -0.327 N 
HETATM   18  H   UNL     1      43.599 -12.490   8.600  1.00  0.00     0.169 HD
HETATM   19  O   UNL     1      43.409 -11.672   5.513  1.00  0.00    -0.273 OA
BRANCH  17  20
HETATM   20  C   UNL     1      43.831 -10.477   8.225  1.00  0.00     0.040 A 
HETATM   21  C   UNL     1      45.117  -9.900   8.117  1.00  0.00    -0.035 A 
HETATM   22  C   UNL     1      46.320 -10.673   7.645  1.00  0.00     0.050 C 
HETATM   23  C   UNL     1      45.299  -8.553   8.478  1.00  0.00     0.009 A 
HETATM   24  C   UNL     1      44.234  -7.782   8.936  1.00  0.00     0.001 A 
HETATM   25  C   UNL     1      42.970  -8.350   9.040  1.00  0.00     0.002 A 
HETATM   26  C   UNL     1      42.771  -9.687   8.687  1.00  0.00     0.030 A 
ENDBRANCH  17  20
ENDBRANCH  15  16
ENDBRANCH   1  15
TORSDOF 3
ENDMDL
MODEL 5
REMARK VINA RESULT:      -7.4      7.634     10.471
REMARK  3 active torsions:
REMARK  status: ('A' for Active; 'I' for Inactive)
REMARK    1  A    between atoms: C_3  and  N_4 
REMARK       I    between atoms: N_4  and  C_5 
REMARK    2  A    between atoms: C_5  and  C_6 
REMARK    3  A    between atoms: C_6  and  C_7 
ROOT
HETATM    1  C   UNL     1      43.439  -9.599   8.613  1.00  0.00     0.286 C 
HETATM    2  N   UNL     1      42.126  -9.854   9.352  1.00  0.00    -0.056 N 
HETATM    3  H   UNL     1      41.368  -9.522   8.743  1.00  0.00     0.278 HD
HETATM    4  H   UNL     1      41.966 -10.885   9.390  1.00  0.00     0.278 HD
HETATM    5  C   UNL     1      41.944  -9.235  10.703  1.00  0.00     0.209 C 
HETATM    6  C   UNL     1      42.346  -7.746  10.640  1.00  0.00     0.115 C 
HETATM    7  N   UNL     1      43.664  -7.559  10.042  1.00  0.00    -0.353 N 
HETATM    8  C   UNL     1      44.117  -8.262   8.956  1.00  0.00     0.249 C 
HETATM    9  O   UNL     1      45.086  -7.852   8.324  1.00  0.00    -0.271 OA
HETATM   10  C   UNL     1      42.711 -10.021  11.766  1.00  0.00     0.035 C 
HETATM   11  C   UNL     1      42.569  -9.357  13.134  1.00  0.00     0.002 C 
HETATM   12  C   UNL     1      43.021  -7.899  13.094  1.00  0.00     0.002 C 
HETATM   13  C   UNL     1      42.271  -7.100  12.028  1.00  0.00     0.027 C 
HETATM   14  H   UNL     1      44.127  -6.659  10.153  1.00  0.00     0.163 HD
ENDROOT
BRANCH   1  15
HETATM   15  C   UNL     1      44.468 -10.730   8.774  1.00  0.00     0.146 C 
BRANCH  15  16
HETATM   16  C   UNL     1      44.600 -11.567   7.523  1.00  0.00     0.224 C 
HETATM   17  N   UNL     1      43.480 -12.309   7.231  1.00  0.00    -0.327 N 
HETATM   18  H   UNL     1      42.742 -12.336   7.924  1.00  0.00     0.169 HD
HETATM   19  O   UNL     1      45.642 -11.490   6.871  1.00  0.00    -0.273 OA
BRANCH  17  20
HETATM   20  C   UNL     1      43.252 -13.112   6.084  1.00  0.00     0.040 A 
HETATM   21  C   UNL     1      43.034 -14.497   6.254  1.00  0.00    -0.035 A 
HETATM   22  C   UNL     1      43.074 -15.168   7.602  1.00  0.00     0.050 C 
HETATM   23  C   UNL     1      42.782 -15.299   5.126  1.00  0.00     0.009 A 
HETATM   24  C   UNL     1      42.744 -14.746   3.849  1.00  0.00     0.001 A 
HETATM   25  C   UNL     1      42.958 -13.384   3.682  1.00  0.00     0.002 A 
HETATM   26  C   UNL     1      43.210 -12.573   4.791  1.00  0.00     0.030 A 
ENDBRANCH  17  20
ENDBRANCH  15  16
ENDBRANCH   1  15
TORSDOF 3
ENDMDL
MODEL 6
REMARK VINA RESULT:      -7.4      3.492      4.292
REMARK  3 active torsions:
REMARK  status: ('A' for Active; 'I' for Inactive)
REMARK    1  A    between atoms: C_3  and  N_4 
REMARK       I    between atoms: N_4  and  C_5 
REMARK    2  A    between atoms: C_5  and  C_6 
REMARK    3  A    between atoms: C_6  and  C_7 
ROOT
HETATM    1  C   UNL     1      43.168 -13.007   3.383  1.00  0.00     0.286 C 
HETATM    2  N   UNL     1      42.193 -13.273   2.237  1.00  0.00    -0.056 N 
HETATM    3  H   UNL     1      42.751 -13.352   1.378  1.00  0.00     0.278 HD
HETATM    4  H   UNL     1      41.800 -14.233   2.357  1.00  0.00     0.278 HD
HETATM    5  C   UNL     1      41.101 -12.277   1.994  1.00  0.00     0.209 C 
HETATM    6  C   UNL     1      41.701 -10.855   1.986  1.00  0.00     0.115 C 
HETATM    7  N   UNL     1      42.524 -10.601   3.164  1.00  0.00    -0.353 N 
HETATM    8  C   UNL     1      43.382 -11.520   3.709  1.00  0.00     0.249 C 
HETATM    9  O   UNL     1      44.255 -11.153   4.491  1.00  0.00    -0.271 OA
HETATM   10  C   UNL     1      39.974 -12.450   3.012  1.00  0.00     0.035 C 
HETATM   11  C   UNL     1      38.888 -11.398   2.796  1.00  0.00     0.002 C 
HETATM   12  C   UNL     1      39.464  -9.986   2.847  1.00  0.00     0.002 C 
HETATM   13  C   UNL     1      40.601  -9.798   1.841  1.00  0.00     0.027 C 
HETATM   14  H   UNL     1      42.781  -9.640   3.382  1.00  0.00     0.163 HD
ENDROOT
BRANCH   1  15
HETATM   15  C   UNL     1      42.814 -13.751   4.681  1.00  0.00     0.146 C 
BRANCH  15  16
HETATM   16  C   UNL     1      42.521 -15.214   4.443  1.00  0.00     0.224 C 
HETATM   17  N   UNL     1      43.648 -15.994   4.323  1.00  0.00    -0.327 N 
HETATM   18  H   UNL     1      44.541 -15.520   4.269  1.00  0.00     0.169 HD
HETATM   19  O   UNL     1      41.346 -15.582   4.417  1.00  0.00    -0.273 OA
BRANCH  17  20
HETATM   20  C   UNL     1      43.710 -17.405   4.196  1.00  0.00     0.040 A 
HETATM   21  C   UNL     1      43.527 -17.983   2.920  1.00  0.00    -0.035 A 
HETATM   22  C   UNL     1      43.225 -17.166   1.691  1.00  0.00     0.050 C 
HETATM   23  C   UNL     1      43.611 -19.380   2.778  1.00  0.00     0.009 A 
HETATM   24  C   UNL     1      43.874 -20.197   3.874  1.00  0.00     0.001 A 
HETATM   25  C   UNL     1      44.056 -19.628   5.127  1.00  0.00     0.002 A 
HETATM   26  C   UNL     1      43.974 -18.242   5.287  1.00  0.00     0.030 A 
ENDBRANCH  17  20
ENDBRANCH  15  16
ENDBRANCH   1  15
TORSDOF 3
ENDMDL
MODEL 7
REMARK VINA RESULT:      -7.4      2.666      3.551
REMARK  3 active torsions:
REMARK  status: ('A' for Active; 'I' for Inactive)
REMARK    1  A    between atoms: C_3  and  N_4 
REMARK       I    between atoms: N_4  and  C_5 
REMARK    2  A    between atoms: C_5  and  C_6 
REMARK    3  A    between atoms: C_6  and  C_7 
ROOT
HETATM    1  C   UNL     1      40.896 -14.160   2.861  1.00  0.00     0.286 C 
HETATM    2  N   UNL     1      40.372 -13.240   3.962  1.00  0.00    -0.056 N 
HETATM    3  H   UNL     1      39.718 -13.793   4.530  1.00  0.00     0.278 HD
HETATM    4  H   UNL     1      41.154 -13.041   4.624  1.00  0.00     0.278 HD
HETATM    5  C   UNL     1      39.682 -11.974   3.556  1.00  0.00     0.209 C 
HETATM    6  C   UNL     1      38.643 -12.289   2.458  1.00  0.00     0.115 C 
HETATM    7  N   UNL     1      39.221 -13.061   1.363  1.00  0.00    -0.353 N 
HETATM    8  C   UNL     1      40.113 -14.088   1.539  1.00  0.00     0.249 C 
HETATM    9  O   UNL     1      40.318 -14.882   0.626  1.00  0.00    -0.271 OA
HETATM   10  C   UNL     1      40.700 -10.914   3.136  1.00  0.00     0.035 C 
HETATM   11  C   UNL     1      39.992  -9.643   2.671  1.00  0.00     0.002 C 
HETATM   12  C   UNL     1      39.006  -9.937   1.543  1.00  0.00     0.002 C 
HETATM   13  C   UNL     1      37.986 -11.004   1.943  1.00  0.00     0.027 C 
HETATM   14  H   UNL     1      38.703 -13.132   0.489  1.00  0.00     0.163 HD
ENDROOT
BRANCH   1  15
HETATM   15  C   UNL     1      42.391 -13.971   2.558  1.00  0.00     0.146 C 
BRANCH  15  16
HETATM   16  C   UNL     1      43.105 -15.286   2.348  1.00  0.00     0.224 C 
HETATM   17  N   UNL     1      42.725 -16.271   3.230  1.00  0.00    -0.327 N 
HETATM   18  H   UNL     1      42.125 -16.003   4.001  1.00  0.00     0.169 HD
HETATM   19  O   UNL     1      43.906 -15.379   1.417  1.00  0.00    -0.273 OA
BRANCH  17  20
HETATM   20  C   UNL     1      43.131 -17.630   3.233  1.00  0.00     0.040 A 
HETATM   21  C   UNL     1      43.823 -18.132   4.358  1.00  0.00    -0.035 A 
HETATM   22  C   UNL     1      44.185 -17.274   5.541  1.00  0.00     0.050 C 
HETATM   23  C   UNL     1      44.209 -19.485   4.381  1.00  0.00     0.009 A 
HETATM   24  C   UNL     1      43.917 -20.332   3.316  1.00  0.00     0.001 A 
HETATM   25  C   UNL     1      43.236 -19.838   2.211  1.00  0.00     0.002 A 
HETATM   26  C   UNL     1      42.846 -18.496   2.169  1.00  0.00     0.030 A 
ENDBRANCH  17  20
ENDBRANCH  15  16
ENDBRANCH   1  15
TORSDOF 3
ENDMDL
MODEL 8
REMARK VINA RESULT:      -7.1      4.183      5.435
REMARK  3 active torsions:
REMARK  status: ('A' for Active; 'I' for Inactive)
REMARK    1  A    between atoms: C_3  and  N_4 
REMARK       I    between atoms: N_4  and  C_5 
REMARK    2  A    between atoms: C_5  and  C_6 
REMARK    3  A    between atoms: C_6  and  C_7 
ROOT
HETATM    1  C   UNL     1      41.802 -14.343   6.342  1.00  0.00     0.286 C 
HETATM    2  N   UNL     1      41.844 -12.855   6.685  1.00  0.00    -0.056 N 
HETATM    3  H   UNL     1      41.223 -12.714   7.491  1.00  0.00     0.278 HD
HETATM    4  H   UNL     1      42.789 -12.633   7.069  1.00  0.00     0.278 HD
HETATM    5  C   UNL     1      41.457 -11.874   5.621  1.00  0.00     0.209 C 
HETATM    6  C   UNL     1      40.134 -12.327   4.966  1.00  0.00     0.115 C 
HETATM    7  N   UNL     1      40.185 -13.721   4.539  1.00  0.00    -0.353 N 
HETATM    8  C   UNL     1      40.769 -14.724   5.268  1.00  0.00     0.249 C 
HETATM    9  O   UNL     1      40.513 -15.896   5.010  1.00  0.00    -0.271 OA
HETATM   10  C   UNL     1      42.594 -11.688   4.617  1.00  0.00     0.035 C 
HETATM   11  C   UNL     1      42.176 -10.730   3.504  1.00  0.00     0.002 C 
HETATM   12  C   UNL     1      40.901 -11.203   2.811  1.00  0.00     0.002 C 
HETATM   13  C   UNL     1      39.755 -11.404   3.803  1.00  0.00     0.027 C 
HETATM   14  H   UNL     1      39.469 -14.062   3.899  1.00  0.00     0.163 HD
ENDROOT
BRANCH   1  15
HETATM   15  C   UNL     1      43.168 -14.923   5.940  1.00  0.00     0.146 C 
BRANCH  15  16
HETATM   16  C   UNL     1      43.165 -16.434   5.914  1.00  0.00     0.224 C 
HETATM   17  N   UNL     1      43.445 -16.968   4.678  1.00  0.00    -0.327 N 
HETATM   18  H   UNL     1      43.491 -16.331   3.892  1.00  0.00     0.169 HD
HETATM   19  O   UNL     1      42.962 -17.039   6.967  1.00  0.00    -0.273 OA
BRANCH  17  20
HETATM   20  C   UNL     1      43.615 -18.337   4.349  1.00  0.00     0.040 A 
HETATM   21  C   UNL     1      43.422 -18.745   3.010  1.00  0.00    -0.035 A 
HETATM   22  C   UNL     1      43.003 -17.793   1.921  1.00  0.00     0.050 C 
HETATM   23  C   UNL     1      43.612 -20.096   2.667  1.00  0.00     0.009 A 
HETATM   24  C   UNL     1      43.988 -21.032   3.626  1.00  0.00     0.001 A 
HETATM   25  C   UNL     1      44.178 -20.631   4.942  1.00  0.00     0.002 A 
HETATM   26  C   UNL     1      43.993 -19.293   5.301  1.00  0.00     0.030 A 
ENDBRANCH  17  20
ENDBRANCH  15  16
ENDBRANCH   1  15
TORSDOF 3
ENDMDL
MODEL 9
REMARK VINA RESULT:      -7.1      4.415      5.647
REMARK  3 active torsions:
REMARK  status: ('A' for Active; 'I' for Inactive)
REMARK    1  A    between atoms: C_3  and  N_4 
REMARK       I    between atoms: N_4  and  C_5 
REMARK    2  A    between atoms: C_5  and  C_6 
REMARK    3  A    between atoms: C_6  and  C_7 
ROOT
HETATM    1  C   UNL     1      41.724 -12.807   5.337  1.00  0.00     0.286 C 
HETATM    2  N   UNL     1      42.473 -11.476   5.373  1.00  0.00    -0.056 N 
HETATM    3  H   UNL     1      43.177 -11.546   6.119  1.00  0.00     0.278 HD
HETATM    4  H   UNL     1      43.050 -11.400   4.507  1.00  0.00     0.278 HD
HETATM    5  C   UNL     1      41.680 -10.225   5.597  1.00  0.00     0.209 C 
HETATM    6  C   UNL     1      40.723 -10.435   6.790  1.00  0.00     0.115 C 
HETATM    7  N   UNL     1      39.935 -11.655   6.651  1.00  0.00    -0.353 N 
HETATM    8  C   UNL     1      40.437 -12.840   6.177  1.00  0.00     0.249 C 
HETATM    9  O   UNL     1      39.822 -13.885   6.372  1.00  0.00    -0.271 OA
HETATM   10  C   UNL     1      40.963  -9.802   4.316  1.00  0.00     0.035 C 
HETATM   11  C   UNL     1      40.112  -8.558   4.562  1.00  0.00     0.002 C 
HETATM   12  C   UNL     1      39.120  -8.779   5.701  1.00  0.00     0.002 C 
HETATM   13  C   UNL     1      39.820  -9.212   6.989  1.00  0.00     0.027 C 
HETATM   14  H   UNL     1      39.119 -11.781   7.249  1.00  0.00     0.163 HD
ENDROOT
BRANCH   1  15
HETATM   15  C   UNL     1      41.399 -13.294   3.916  1.00  0.00     0.146 C 
BRANCH  15  16
HETATM   16  C   UNL     1      42.357 -14.362   3.442  1.00  0.00     0.224 C 
HETATM   17  N   UNL     1      42.108 -15.606   3.973  1.00  0.00    -0.327 N 
HETATM   18  H   UNL     1      41.418 -15.671   4.712  1.00  0.00     0.169 HD
HETATM   19  O   UNL     1      43.221 -14.054   2.621  1.00  0.00    -0.273 OA
BRANCH  17  20
HETATM   20  C   UNL     1      42.758 -16.826   3.654  1.00  0.00     0.040 A 
HETATM   21  C   UNL     1      43.724 -17.337   4.549  1.00  0.00    -0.035 A 
HETATM   22  C   UNL     1      44.126 -16.620   5.811  1.00  0.00     0.050 C 
HETATM   23  C   UNL     1      44.357 -18.558   4.254  1.00  0.00     0.009 A 
HETATM   24  C   UNL     1      44.044 -19.268   3.098  1.00  0.00     0.001 A 
HETATM   25  C   UNL     1      43.093 -18.765   2.220  1.00  0.00     0.002 A 
HETATM   26  C   UNL     1      42.455 -17.553   2.495  1.00  0.00     0.030 A 
ENDBRANCH  17  20
ENDBRANCH  15  16
ENDBRANCH   1  15
TORSDOF 3
ENDMDL
MODEL 10
REMARK VINA RESULT:      -7.0     14.673     16.451
REMARK  3 active torsions:
REMARK  status: ('A' for Active; 'I' for Inactive)
REMARK    1  A    between atoms: C_3  and  N_4 
REMARK       I    between atoms: N_4  and  C_5 
REMARK    2  A    between atoms: C_5  and  C_6 
REMARK    3  A    between atoms: C_6  and  C_7 
ROOT
HETATM    1  C   UNL     1      45.911 -29.441   0.476  1.00  0.00     0.286 C 
HETATM    2  N   UNL     1      44.804 -28.522  -0.037  1.00  0.00    -0.056 N 
HETATM    3  H   UNL     1      43.960 -28.733   0.510  1.00  0.00     0.278 HD
HETATM    4  H   UNL     1      45.033 -27.543   0.245  1.00  0.00     0.278 HD
HETATM    5  C   UNL     1      44.448 -28.588  -1.490  1.00  0.00     0.209 C 
HETATM    6  C   UNL     1      44.276 -30.065  -1.906  1.00  0.00     0.115 C 
HETATM    7  N   UNL     1      45.417 -30.882  -1.507  1.00  0.00    -0.353 N 
HETATM    8  C   UNL     1      46.064 -30.757  -0.305  1.00  0.00     0.249 C 
HETATM    9  O   UNL     1      46.798 -31.658   0.090  1.00  0.00    -0.271 OA
HETATM   10  C   UNL     1      45.479 -27.841  -2.335  1.00  0.00     0.035 C 
HETATM   11  C   UNL     1      45.143 -27.956  -3.820  1.00  0.00     0.002 C 
HETATM   12  C   UNL     1      45.030 -29.416  -4.253  1.00  0.00     0.002 C 
HETATM   13  C   UNL     1      44.010 -30.182  -3.411  1.00  0.00     0.027 C 
HETATM   14  H   UNL     1      45.522 -31.808  -1.920  1.00  0.00     0.163 HD
ENDROOT
BRANCH   1  15
HETATM   15  C   UNL     1      47.287 -28.760   0.568  1.00  0.00     0.146 C 
BRANCH  15  16
HETATM   16  C   UNL     1      47.926 -28.939   1.926  1.00  0.00     0.224 C 
HETATM   17  N   UNL     1      48.468 -30.187   2.124  1.00  0.00    -0.327 N 
HETATM   18  H   UNL     1      48.280 -30.896   1.425  1.00  0.00     0.169 HD
HETATM   19  O   UNL     1      47.945 -27.980   2.697  1.00  0.00    -0.273 OA
BRANCH  17  20
HETATM   20  C   UNL     1      49.218 -30.634   3.241  1.00  0.00     0.040 A 
HETATM   21  C   UNL     1      48.594 -31.478   4.187  1.00  0.00    -0.035 A 
HETATM   22  C   UNL     1      47.150 -31.892   4.082  1.00  0.00     0.050 C 
HETATM   23  C   UNL     1      49.336 -31.947   5.287  1.00  0.00     0.009 A 
HETATM   24  C   UNL     1      50.673 -31.594   5.453  1.00  0.00     0.001 A 
HETATM   25  C   UNL     1      51.285 -30.765   4.522  1.00  0.00     0.002 A 
HETATM   26  C   UNL     1      50.563 -30.288   3.425  1.00  0.00     0.030 A 
ENDBRANCH  17  20
ENDBRANCH  15  16
ENDBRANCH   1  15
TORSDOF 3
ENDMDL
