MODEL 1
REMARK VINA RESULT:      -8.9      0.000      0.000
REMARK  5 active torsions:
REMARK  status: ('A' for Active; 'I' for Inactive)
REMARK       I    between atoms: C_2  and  N_3 
REMARK    1  A    between atoms: C_2  and  C_31 
REMARK    2  A    between atoms: N_3  and  C_4 
REMARK    3  A    between atoms: C_9  and  C_10 
REMARK    4  A    between atoms: C_12  and  N_13 
REMARK    5  A    between atoms: N_13  and  C_14 
ROOT
HETATM    1  C   UNL     1      41.425 -15.530   2.189  1.00  0.00     0.164 A 
HETATM    2  N   UNL     1      40.733 -14.842   3.111  1.00  0.00    -0.210 NA
HETATM    3  C   UNL     1      39.911 -13.863   2.692  1.00  0.00     0.143 A 
HETATM    4  C   UNL     1      39.784 -13.531   1.334  1.00  0.00     0.039 A 
HETATM    5  C   UNL     1      38.970 -12.490   0.817  1.00  0.00     0.018 A 
HETATM    6  C   UNL     1      38.925 -12.229  -0.551  1.00  0.00     0.001 A 
HETATM    7  C   UNL     1      39.695 -12.996  -1.414  1.00  0.00     0.002 A 
HETATM    8  C   UNL     1      40.500 -14.017  -0.901  1.00  0.00     0.032 A 
HETATM    9  C   UNL     1      40.557 -14.301   0.457  1.00  0.00     0.073 A 
HETATM   10  N   UNL     1      41.352 -15.292   0.870  1.00  0.00    -0.228 NA
ENDROOT
BRANCH   1  11
HETATM   11  C   UNL     1      42.333 -16.599   2.673  1.00  0.00     0.039 A 
HETATM   12  C   UNL     1      43.264 -16.439   3.737  1.00  0.00     0.049 A 
HETATM   13  C   UNL     1      44.065 -17.528   4.122  1.00  0.00     0.030 A 
HETATM   14  C   UNL     1      43.975 -18.765   3.480  1.00  0.00     0.002 A 
HETATM   15  C   UNL     1      43.082 -18.936   2.436  1.00  0.00     0.001 A 
HETATM   16  C   UNL     1      42.277 -17.869   2.041  1.00  0.00     0.018 A 
BRANCH  12  17
HETATM   17  N   UNL     1      43.398 -15.180   4.374  1.00  0.00    -0.321 N 
HETATM   18  C   UNL     1      43.003 -14.798   5.642  1.00  0.00     0.274 C 
HETATM   19  O   UNL     1      42.390 -15.471   6.463  1.00  0.00    -0.266 OA
HETATM   20  H   UNL     1      43.832 -14.437   3.819  1.00  0.00     0.169 HD
BRANCH  18  21
HETATM   21  C   UNL     1      43.396 -13.393   6.000  1.00  0.00     0.124 A 
HETATM   22  C   UNL     1      43.390 -12.406   5.020  1.00  0.00     0.037 A 
HETATM   23  C   UNL     1      43.730 -11.107   5.387  1.00  0.00     0.004 A 
HETATM   24  C   UNL     1      44.055 -10.838   6.713  1.00  0.00     0.019 A 
HETATM   25  C   UNL     1      44.033 -11.884   7.623  1.00  0.00     0.117 A 
HETATM   26  N   UNL     1      43.720 -13.158   7.302  1.00  0.00    -0.256 NA
ENDBRANCH  18  21
ENDBRANCH  12  17
ENDBRANCH   1  11
BRANCH   3  27
HETATM   27  N   UNL     1      39.135 -13.157   3.652  1.00  0.00    -0.340 N 
HETATM   28  H   UNL     1      38.575 -13.826   4.169  1.00  0.00     0.167 HD
BRANCH  27  29
HETATM   29  C   UNL     1      39.556 -12.079   4.467  1.00  0.00     0.034 A 
HETATM   30  C   UNL     1      39.673 -12.206   5.859  1.00  0.00     0.032 A 
HETATM   31  C   UNL     1      40.141 -11.164   6.672  1.00  0.00     0.034 A 
HETATM   32  C   UNL     1      40.511  -9.981   6.029  1.00  0.00     0.062 A 
HETATM   33  N   UNL     1      40.997  -8.794   6.510  1.00  0.00    -0.278 N 
HETATM   34  C   UNL     1      40.444  -9.820   4.652  1.00  0.00     0.013 A 
HETATM   35  H   UNL     1      41.180  -8.547   7.476  1.00  0.00     0.189 HD
HETATM   36  N   UNL     1      41.253  -7.879   5.557  1.00  0.00    -0.186 NA
HETATM   37  C   UNL     1      40.914  -8.507   4.427  1.00  0.00     0.152 A 
HETATM   38  C   UNL     1      39.976 -10.882   3.855  1.00  0.00     0.044 A 
ENDBRANCH  27  29
ENDBRANCH   3  27
TORSDOF 5
ENDMDL
MODEL 2
REMARK VINA RESULT:      -8.8      2.082      5.546
REMARK  5 active torsions:
REMARK  status: ('A' for Active; 'I' for Inactive)
REMARK       I    between atoms: C_2  and  N_3 
REMARK    1  A    between atoms: C_2  and  C_31 
REMARK    2  A    between atoms: N_3  and  C_4 
REMARK    3  A    between atoms: C_9  and  C_10 
REMARK    4  A    between atoms: C_12  and  N_13 
REMARK    5  A    between atoms: N_13  and  C_14 
ROOT
HETATM    1  C   UNL     1      42.284 -14.163   4.039  1.00  0.00     0.164 A 
HETATM    2  N   UNL     1      43.247 -13.299   4.398  1.00  0.00    -0.210 NA
HETATM    3  C   UNL     1      42.892 -12.035   4.692  1.00  0.00     0.143 A 
HETATM    4  C   UNL     1      41.561 -11.599   4.607  1.00  0.00     0.039 A 
HETATM    5  C   UNL     1      41.114 -10.276   4.864  1.00  0.00     0.018 A 
HETATM    6  C   UNL     1      39.769  -9.938   4.734  1.00  0.00     0.001 A 
HETATM    7  C   UNL     1      38.860 -10.910   4.343  1.00  0.00     0.002 A 
HETATM    8  C   UNL     1      39.304 -12.209   4.085  1.00  0.00     0.032 A 
HETATM    9  C   UNL     1      40.638 -12.573   4.213  1.00  0.00     0.073 A 
HETATM   10  N   UNL     1      40.985 -13.836   3.947  1.00  0.00    -0.228 NA
ENDROOT
BRANCH   1  11
HETATM   11  C   UNL     1      42.696 -15.549   3.708  1.00  0.00     0.039 A 
HETATM   12  C   UNL     1      42.555 -16.142   2.423  1.00  0.00     0.049 A 
HETATM   13  C   UNL     1      42.996 -17.462   2.220  1.00  0.00     0.030 A 
HETATM   14  C   UNL     1      43.565 -18.209   3.253  1.00  0.00     0.002 A 
HETATM   15  C   UNL     1      43.702 -17.652   4.513  1.00  0.00     0.001 A 
HETATM   16  C   UNL     1      43.273 -16.344   4.733  1.00  0.00     0.018 A 
BRANCH  12  17
HETATM   17  N   UNL     1      41.943 -15.413   1.372  1.00  0.00    -0.321 N 
HETATM   18  C   UNL     1      40.607 -15.334   1.028  1.00  0.00     0.274 C 
HETATM   19  O   UNL     1      39.673 -15.944   1.537  1.00  0.00    -0.266 OA
HETATM   20  H   UNL     1      42.573 -14.877   0.768  1.00  0.00     0.169 HD
BRANCH  18  21
HETATM   21  C   UNL     1      40.329 -14.382  -0.100  1.00  0.00     0.124 A 
HETATM   22  C   UNL     1      39.510 -14.780  -1.151  1.00  0.00     0.037 A 
HETATM   23  C   UNL     1      39.246 -13.867  -2.167  1.00  0.00     0.004 A 
HETATM   24  C   UNL     1      39.800 -12.593  -2.097  1.00  0.00     0.019 A 
HETATM   25  C   UNL     1      40.603 -12.282  -1.011  1.00  0.00     0.117 A 
HETATM   26  N   UNL     1      40.891 -13.144  -0.012  1.00  0.00    -0.256 NA
ENDBRANCH  18  21
ENDBRANCH  12  17
ENDBRANCH   1  11
BRANCH   3  27
HETATM   27  N   UNL     1      43.895 -11.122   5.121  1.00  0.00    -0.340 N 
HETATM   28  H   UNL     1      43.770 -10.248   4.621  1.00  0.00     0.167 HD
BRANCH  27  29
HETATM   29  C   UNL     1      44.352 -10.912   6.444  1.00  0.00     0.034 A 
HETATM   30  C   UNL     1      45.715 -10.957   6.772  1.00  0.00     0.032 A 
HETATM   31  C   UNL     1      46.186 -10.697   8.066  1.00  0.00     0.034 A 
HETATM   32  C   UNL     1      45.232 -10.366   9.029  1.00  0.00     0.062 A 
HETATM   33  N   UNL     1      45.344 -10.062  10.360  1.00  0.00    -0.278 N 
HETATM   34  C   UNL     1      43.875 -10.278   8.746  1.00  0.00     0.013 A 
HETATM   35  H   UNL     1      46.191 -10.026  10.916  1.00  0.00     0.189 HD
HETATM   36  N   UNL     1      44.173  -9.780  10.961  1.00  0.00    -0.186 NA
HETATM   37  C   UNL     1      43.281  -9.914   9.975  1.00  0.00     0.152 A 
HETATM   38  C   UNL     1      43.426 -10.538   7.437  1.00  0.00     0.044 A 
ENDBRANCH  27  29
ENDBRANCH   3  27
TORSDOF 5
ENDMDL
MODEL 3
REMARK VINA RESULT:      -8.8      2.024      6.707
REMARK  5 active torsions:
REMARK  status: ('A' for Active; 'I' for Inactive)
REMARK       I    between atoms: C_2  and  N_3 
REMARK    1  A    between atoms: C_2  and  C_31 
REMARK    2  A    between atoms: N_3  and  C_4 
REMARK    3  A    between atoms: C_9  and  C_10 
REMARK    4  A    between atoms: C_12  and  N_13 
REMARK    5  A    between atoms: N_13  and  C_14 
ROOT
HETATM    1  C   UNL     1      42.653 -14.139   4.723  1.00  0.00     0.164 A 
HETATM    2  N   UNL     1      41.648 -14.072   3.835  1.00  0.00    -0.210 NA
HETATM    3  C   UNL     1      41.422 -15.136   3.045  1.00  0.00     0.143 A 
HETATM    4  C   UNL     1      42.220 -16.290   3.108  1.00  0.00     0.039 A 
HETATM    5  C   UNL     1      42.070 -17.436   2.285  1.00  0.00     0.018 A 
HETATM    6  C   UNL     1      42.926 -18.527   2.415  1.00  0.00     0.001 A 
HETATM    7  C   UNL     1      43.942 -18.484   3.358  1.00  0.00     0.002 A 
HETATM    8  C   UNL     1      44.091 -17.352   4.164  1.00  0.00     0.032 A 
HETATM    9  C   UNL     1      43.246 -16.254   4.058  1.00  0.00     0.073 A 
HETATM   10  N   UNL     1      43.455 -15.208   4.863  1.00  0.00    -0.228 NA
ENDROOT
BRANCH   1  11
HETATM   11  C   UNL     1      42.892 -12.951   5.578  1.00  0.00     0.039 A 
HETATM   12  C   UNL     1      42.264 -11.688   5.390  1.00  0.00     0.049 A 
HETATM   13  C   UNL     1      42.555 -10.634   6.273  1.00  0.00     0.030 A 
HETATM   14  C   UNL     1      43.453 -10.794   7.330  1.00  0.00     0.002 A 
HETATM   15  C   UNL     1      44.081 -12.012   7.524  1.00  0.00     0.001 A 
HETATM   16  C   UNL     1      43.804 -13.070   6.660  1.00  0.00     0.018 A 
BRANCH  12  17
HETATM   17  N   UNL     1      41.380 -11.497   4.298  1.00  0.00    -0.321 N 
HETATM   18  C   UNL     1      40.014 -11.286   4.309  1.00  0.00     0.274 C 
HETATM   19  O   UNL     1      39.271 -11.287   5.284  1.00  0.00    -0.266 OA
HETATM   20  H   UNL     1      41.800 -11.532   3.365  1.00  0.00     0.169 HD
BRANCH  18  21
HETATM   21  C   UNL     1      39.430 -11.037   2.948  1.00  0.00     0.124 A 
HETATM   22  C   UNL     1      38.324 -11.767   2.528  1.00  0.00     0.037 A 
HETATM   23  C   UNL     1      37.787 -11.494   1.273  1.00  0.00     0.004 A 
HETATM   24  C   UNL     1      38.365 -10.501   0.488  1.00  0.00     0.019 A 
HETATM   25  C   UNL     1      39.465  -9.821   0.988  1.00  0.00     0.117 A 
HETATM   26  N   UNL     1      40.021 -10.067   2.195  1.00  0.00    -0.256 NA
ENDBRANCH  18  21
ENDBRANCH  12  17
ENDBRANCH   1  11
BRANCH   3  27
HETATM   27  N   UNL     1      40.332 -15.098   2.133  1.00  0.00    -0.340 N 
HETATM   28  H   UNL     1      39.475 -14.964   2.660  1.00  0.00     0.167 HD
BRANCH  27  29
HETATM   29  C   UNL     1      40.288 -14.445   0.878  1.00  0.00     0.034 A 
HETATM   30  C   UNL     1      41.027 -13.281   0.624  1.00  0.00     0.032 A 
HETATM   31  C   UNL     1      41.036 -12.655  -0.630  1.00  0.00     0.034 A 
HETATM   32  C   UNL     1      40.284 -13.257  -1.640  1.00  0.00     0.062 A 
HETATM   33  N   UNL     1      40.076 -12.917  -2.950  1.00  0.00    -0.278 N 
HETATM   34  C   UNL     1      39.561 -14.427  -1.445  1.00  0.00     0.013 A 
HETATM   35  H   UNL     1      40.449 -12.117  -3.447  1.00  0.00     0.189 HD
HETATM   36  N   UNL     1      39.281 -13.771  -3.621  1.00  0.00    -0.186 NA
HETATM   37  C   UNL     1      38.970 -14.689  -2.701  1.00  0.00     0.152 A 
HETATM   38  C   UNL     1      39.572 -15.040  -0.178  1.00  0.00     0.044 A 
ENDBRANCH  27  29
ENDBRANCH   3  27
TORSDOF 5
ENDMDL
MODEL 4
REMARK VINA RESULT:      -8.7      3.001      7.553
REMARK  5 active torsions:
REMARK  status: ('A' for Active; 'I' for Inactive)
REMARK       I    between atoms: C_2  and  N_3 
REMARK    1  A    between atoms: C_2  and  C_31 
REMARK    2  A    between atoms: N_3  and  C_4 
REMARK    3  A    between atoms: C_9  and  C_10 
REMARK    4  A    between atoms: C_12  and  N_13 
REMARK    5  A    between atoms: N_13  and  C_14 
ROOT
HETATM    1  C   UNL     1      40.329 -13.798   1.048  1.00  0.00     0.164 A 
HETATM    2  N   UNL     1      41.535 -14.368   1.203  1.00  0.00    -0.210 NA
HETATM    3  C   UNL     1      42.060 -14.421   2.441  1.00  0.00     0.143 A 
HETATM    4  C   UNL     1      41.397 -13.878   3.552  1.00  0.00     0.039 A 
HETATM    5  C   UNL     1      41.901 -13.860   4.879  1.00  0.00     0.018 A 
HETATM    6  C   UNL     1      41.171 -13.279   5.914  1.00  0.00     0.001 A 
HETATM    7  C   UNL     1      39.939 -12.705   5.636  1.00  0.00     0.002 A 
HETATM    8  C   UNL     1      39.448 -12.718   4.327  1.00  0.00     0.032 A 
HETATM    9  C   UNL     1      40.154 -13.297   3.280  1.00  0.00     0.073 A 
HETATM   10  N   UNL     1      39.618 -13.268   2.056  1.00  0.00    -0.228 NA
ENDROOT
BRANCH   1  11
HETATM   11  C   UNL     1      39.772 -13.740  -0.326  1.00  0.00     0.039 A 
HETATM   12  C   UNL     1      39.534 -12.535  -1.045  1.00  0.00     0.049 A 
HETATM   13  C   UNL     1      39.016 -12.602  -2.350  1.00  0.00     0.030 A 
HETATM   14  C   UNL     1      38.723 -13.823  -2.958  1.00  0.00     0.002 A 
HETATM   15  C   UNL     1      38.938 -15.005  -2.271  1.00  0.00     0.001 A 
HETATM   16  C   UNL     1      39.453 -14.961  -0.977  1.00  0.00     0.018 A 
BRANCH  12  17
HETATM   17  N   UNL     1      39.789 -11.284  -0.428  1.00  0.00    -0.321 N 
HETATM   18  C   UNL     1      40.784 -10.365  -0.700  1.00  0.00     0.274 C 
HETATM   19  O   UNL     1      41.701 -10.481  -1.505  1.00  0.00    -0.266 OA
HETATM   20  H   UNL     1      39.163 -11.023   0.339  1.00  0.00     0.169 HD
BRANCH  18  21
HETATM   21  C   UNL     1      40.680  -9.105   0.110  1.00  0.00     0.124 A 
HETATM   22  C   UNL     1      40.157  -9.155   1.398  1.00  0.00     0.037 A 
HETATM   23  C   UNL     1      40.100  -7.976   2.136  1.00  0.00     0.004 A 
HETATM   24  C   UNL     1      40.572  -6.796   1.570  1.00  0.00     0.019 A 
HETATM   25  C   UNL     1      41.079  -6.840   0.280  1.00  0.00     0.117 A 
HETATM   26  N   UNL     1      41.140  -7.961  -0.471  1.00  0.00    -0.256 NA
ENDBRANCH  18  21
ENDBRANCH  12  17
ENDBRANCH   1  11
BRANCH   3  27
HETATM   27  N   UNL     1      43.314 -15.065   2.629  1.00  0.00    -0.340 N 
HETATM   28  H   UNL     1      43.956 -14.403   3.051  1.00  0.00     0.167 HD
BRANCH  27  29
HETATM   29  C   UNL     1      43.538 -16.385   3.088  1.00  0.00     0.034 A 
HETATM   30  C   UNL     1      43.796 -16.665   4.437  1.00  0.00     0.032 A 
HETATM   31  C   UNL     1      43.965 -17.972   4.915  1.00  0.00     0.034 A 
HETATM   32  C   UNL     1      43.844 -19.004   3.983  1.00  0.00     0.062 A 
HETATM   33  N   UNL     1      43.949 -20.364   4.106  1.00  0.00    -0.278 N 
HETATM   34  C   UNL     1      43.558 -18.778   2.642  1.00  0.00     0.013 A 
HETATM   35  H   UNL     1      44.150 -20.894   4.946  1.00  0.00     0.189 HD
HETATM   36  N   UNL     1      43.751 -21.038   2.958  1.00  0.00    -0.186 NA
HETATM   37  C   UNL     1      43.513 -20.069   2.069  1.00  0.00     0.152 A 
HETATM   38  C   UNL     1      43.387 -17.457   2.187  1.00  0.00     0.044 A 
ENDBRANCH  27  29
ENDBRANCH   3  27
TORSDOF 5
ENDMDL
MODEL 5
REMARK VINA RESULT:      -8.7      2.306      5.321
REMARK  5 active torsions:
REMARK  status: ('A' for Active; 'I' for Inactive)
REMARK       I    between atoms: C_2  and  N_3 
REMARK    1  A    between atoms: C_2  and  C_31 
REMARK    2  A    between atoms: N_3  and  C_4 
REMARK    3  A    between atoms: C_9  and  C_10 
REMARK    4  A    between atoms: C_12  and  N_13 
REMARK    5  A    between atoms: N_13  and  C_14 
ROOT
HETATM    1  C   UNL     1      41.842 -13.392   4.697  1.00  0.00     0.164 A 
HETATM    2  N   UNL     1      41.824 -13.140   3.378  1.00  0.00    -0.210 NA
HETATM    3  C   UNL     1      41.010 -12.170   2.925  1.00  0.00     0.143 A 
HETATM    4  C   UNL     1      40.171 -11.443   3.785  1.00  0.00     0.039 A 
HETATM    5  C   UNL     1      39.260 -10.434   3.380  1.00  0.00     0.018 A 
HETATM    6  C   UNL     1      38.456  -9.781   4.312  1.00  0.00     0.001 A 
HETATM    7  C   UNL     1      38.547 -10.132   5.651  1.00  0.00     0.002 A 
HETATM    8  C   UNL     1      39.441 -11.130   6.046  1.00  0.00     0.032 A 
HETATM    9  C   UNL     1      40.258 -11.791   5.137  1.00  0.00     0.073 A 
HETATM   10  N   UNL     1      41.086 -12.736   5.593  1.00  0.00    -0.228 NA
ENDROOT
BRANCH   1  11
HETATM   11  C   UNL     1      42.739 -14.473   5.176  1.00  0.00     0.039 A 
HETATM   12  C   UNL     1      43.508 -14.406   6.371  1.00  0.00     0.049 A 
HETATM   13  C   UNL     1      44.314 -15.499   6.735  1.00  0.00     0.030 A 
HETATM   14  C   UNL     1      44.383 -16.650   5.947  1.00  0.00     0.002 A 
HETATM   15  C   UNL     1      43.649 -16.729   4.776  1.00  0.00     0.001 A 
HETATM   16  C   UNL     1      42.843 -15.656   4.399  1.00  0.00     0.018 A 
BRANCH  12  17
HETATM   17  N   UNL     1      43.481 -13.230   7.162  1.00  0.00    -0.321 N 
HETATM   18  C   UNL     1      44.344 -12.150   7.150  1.00  0.00     0.274 C 
HETATM   19  O   UNL     1      45.363 -12.023   6.481  1.00  0.00    -0.266 OA
HETATM   20  H   UNL     1      42.728 -13.168   7.854  1.00  0.00     0.169 HD
BRANCH  18  21
HETATM   21  C   UNL     1      43.939 -11.042   8.079  1.00  0.00     0.124 A 
HETATM   22  C   UNL     1      42.916 -10.175   7.713  1.00  0.00     0.037 A 
HETATM   23  C   UNL     1      42.543  -9.176   8.608  1.00  0.00     0.004 A 
HETATM   24  C   UNL     1      43.195  -9.082   9.833  1.00  0.00     0.019 A 
HETATM   25  C   UNL     1      44.203  -9.991  10.115  1.00  0.00     0.117 A 
HETATM   26  N   UNL     1      44.600 -10.965   9.268  1.00  0.00    -0.256 NA
ENDBRANCH  18  21
ENDBRANCH  12  17
ENDBRANCH   1  11
BRANCH   3  27
HETATM   27  N   UNL     1      41.016 -11.859   1.538  1.00  0.00    -0.340 N 
HETATM   28  H   UNL     1      41.965 -11.627   1.263  1.00  0.00     0.167 HD
BRANCH  27  29
HETATM   29  C   UNL     1      40.317 -12.532   0.507  1.00  0.00     0.034 A 
HETATM   30  C   UNL     1      40.559 -13.880   0.207  1.00  0.00     0.032 A 
HETATM   31  C   UNL     1      39.836 -14.573  -0.774  1.00  0.00     0.034 A 
HETATM   32  C   UNL     1      38.833 -13.864  -1.437  1.00  0.00     0.062 A 
HETATM   33  N   UNL     1      37.958 -14.227  -2.426  1.00  0.00    -0.278 N 
HETATM   34  C   UNL     1      38.535 -12.538  -1.151  1.00  0.00     0.013 A 
HETATM   35  H   UNL     1      37.883 -15.128  -2.883  1.00  0.00     0.189 HD
HETATM   36  N   UNL     1      37.116 -13.248  -2.803  1.00  0.00    -0.186 NA
HETATM   37  C   UNL     1      37.471 -12.220  -2.025  1.00  0.00     0.152 A 
HETATM   38  C   UNL     1      39.272 -11.864  -0.159  1.00  0.00     0.044 A 
ENDBRANCH  27  29
ENDBRANCH   3  27
TORSDOF 5
ENDMDL
MODEL 6
REMARK VINA RESULT:      -8.6      1.745      5.260
REMARK  5 active torsions:
REMARK  status: ('A' for Active; 'I' for Inactive)
REMARK       I    between atoms: C_2  and  N_3 
REMARK    1  A    between atoms: C_2  and  C_31 
REMARK    2  A    between atoms: N_3  and  C_4 
REMARK    3  A    between atoms: C_9  and  C_10 
REMARK    4  A    between atoms: C_12  and  N_13 
REMARK    5  A    between atoms: N_13  and  C_14 
ROOT
HETATM    1  C   UNL     1      41.309 -14.928   2.072  1.00  0.00     0.164 A 
HETATM    2  N   UNL     1      41.424 -14.390   3.297  1.00  0.00    -0.210 NA
HETATM    3  C   UNL     1      42.177 -15.033   4.207  1.00  0.00     0.143 A 
HETATM    4  C   UNL     1      42.814 -16.250   3.918  1.00  0.00     0.039 A 
HETATM    5  C   UNL     1      43.592 -17.006   4.833  1.00  0.00     0.018 A 
HETATM    6  C   UNL     1      44.170 -18.215   4.453  1.00  0.00     0.001 A 
HETATM    7  C   UNL     1      43.973 -18.685   3.162  1.00  0.00     0.002 A 
HETATM    8  C   UNL     1      43.202 -17.941   2.265  1.00  0.00     0.032 A 
HETATM    9  C   UNL     1      42.620 -16.730   2.618  1.00  0.00     0.073 A 
HETATM   10  N   UNL     1      41.895 -16.079   1.704  1.00  0.00    -0.228 NA
ENDROOT
BRANCH   1  11
HETATM   11  C   UNL     1      40.465 -14.210   1.085  1.00  0.00     0.039 A 
HETATM   12  C   UNL     1      39.964 -12.891   1.269  1.00  0.00     0.049 A 
HETATM   13  C   UNL     1      39.186 -12.302   0.258  1.00  0.00     0.030 A 
HETATM   14  C   UNL     1      38.886 -12.982  -0.924  1.00  0.00     0.002 A 
HETATM   15  C   UNL     1      39.357 -14.270  -1.116  1.00  0.00     0.001 A 
HETATM   16  C   UNL     1      40.132 -14.870  -0.126  1.00  0.00     0.018 A 
BRANCH  12  17
HETATM   17  N   UNL     1      40.225 -12.199   2.479  1.00  0.00    -0.321 N 
HETATM   18  C   UNL     1      41.094 -11.151   2.715  1.00  0.00     0.274 C 
HETATM   19  O   UNL     1      41.875 -10.642   1.918  1.00  0.00    -0.266 OA
HETATM   20  H   UNL     1      39.714 -12.525   3.305  1.00  0.00     0.169 HD
BRANCH  18  21
HETATM   21  C   UNL     1      41.033 -10.619   4.117  1.00  0.00     0.124 A 
HETATM   22  C   UNL     1      40.320 -11.314   5.088  1.00  0.00     0.037 A 
HETATM   23  C   UNL     1      40.305 -10.811   6.386  1.00  0.00     0.004 A 
HETATM   24  C   UNL     1      41.005  -9.644   6.671  1.00  0.00     0.019 A 
HETATM   25  C   UNL     1      41.691  -9.018   5.642  1.00  0.00     0.117 A 
HETATM   26  N   UNL     1      41.719  -9.468   4.369  1.00  0.00    -0.256 NA
ENDBRANCH  18  21
ENDBRANCH  12  17
ENDBRANCH   1  11
BRANCH   3  27
HETATM   27  N   UNL     1      42.348 -14.450   5.493  1.00  0.00    -0.340 N 
HETATM   28  H   UNL     1      42.410 -15.195   6.179  1.00  0.00     0.167 HD
BRANCH  27  29
HETATM   29  C   UNL     1      43.172 -13.350   5.832  1.00  0.00     0.034 A 
HETATM   30  C   UNL     1      43.841 -12.599   4.855  1.00  0.00     0.032 A 
HETATM   31  C   UNL     1      44.615 -11.474   5.172  1.00  0.00     0.034 A 
HETATM   32  C   UNL     1      44.680 -11.112   6.518  1.00  0.00     0.062 A 
HETATM   33  N   UNL     1      45.330 -10.092   7.160  1.00  0.00    -0.278 N 
HETATM   34  C   UNL     1      44.009 -11.806   7.517  1.00  0.00     0.013 A 
HETATM   35  H   UNL     1      45.921  -9.380   6.746  1.00  0.00     0.189 HD
HETATM   36  N   UNL     1      45.134 -10.065   8.491  1.00  0.00    -0.186 NA
HETATM   37  C   UNL     1      44.330 -11.111   8.704  1.00  0.00     0.152 A 
HETATM   38  C   UNL     1      43.233 -12.929   7.174  1.00  0.00     0.044 A 
ENDBRANCH  27  29
ENDBRANCH   3  27
TORSDOF 5
ENDMDL
MODEL 7
REMARK VINA RESULT:      -8.6      2.696      7.594
REMARK  5 active torsions:
REMARK  status: ('A' for Active; 'I' for Inactive)
REMARK       I    between atoms: C_2  and  N_3 
REMARK    1  A    between atoms: C_2  and  C_31 
REMARK    2  A    between atoms: N_3  and  C_4 
REMARK    3  A    between atoms: C_9  and  C_10 
REMARK    4  A    between atoms: C_12  and  N_13 
REMARK    5  A    between atoms: N_13  and  C_14 
ROOT
HETATM    1  C   UNL     1      40.335 -14.091   1.446  1.00  0.00     0.164 A 
HETATM    2  N   UNL     1      41.475 -14.800   1.472  1.00  0.00    -0.210 NA
HETATM    3  C   UNL     1      42.076 -14.998   2.658  1.00  0.00     0.143 A 
HETATM    4  C   UNL     1      41.561 -14.464   3.850  1.00  0.00     0.039 A 
HETATM    5  C   UNL     1      42.156 -14.595   5.132  1.00  0.00     0.018 A 
HETATM    6  C   UNL     1      41.573 -14.011   6.254  1.00  0.00     0.001 A 
HETATM    7  C   UNL     1      40.399 -13.287   6.110  1.00  0.00     0.002 A 
HETATM    8  C   UNL     1      39.819 -13.154   4.845  1.00  0.00     0.032 A 
HETATM    9  C   UNL     1      40.377 -13.732   3.712  1.00  0.00     0.073 A 
HETATM   10  N   UNL     1      39.763 -13.558   2.538  1.00  0.00    -0.228 NA
ENDROOT
BRANCH   1  11
HETATM   11  C   UNL     1      39.692 -13.876   0.126  1.00  0.00     0.039 A 
HETATM   12  C   UNL     1      39.121 -12.643  -0.295  1.00  0.00     0.049 A 
HETATM   13  C   UNL     1      38.551 -12.550  -1.577  1.00  0.00     0.030 A 
HETATM   14  C   UNL     1      38.526 -13.641  -2.447  1.00  0.00     0.002 A 
HETATM   15  C   UNL     1      39.068 -14.852  -2.050  1.00  0.00     0.001 A 
HETATM   16  C   UNL     1      39.640 -14.964  -0.784  1.00  0.00     0.018 A 
BRANCH  12  17
HETATM   17  N   UNL     1      39.101 -11.535   0.590  1.00  0.00    -0.321 N 
HETATM   18  C   UNL     1      38.038 -10.997   1.290  1.00  0.00     0.274 C 
HETATM   19  O   UNL     1      36.863 -11.340   1.232  1.00  0.00    -0.266 OA
HETATM   20  H   UNL     1      39.993 -11.049   0.725  1.00  0.00     0.169 HD
BRANCH  18  21
HETATM   21  C   UNL     1      38.425  -9.869   2.203  1.00  0.00     0.124 A 
HETATM   22  C   UNL     1      39.588  -9.964   2.960  1.00  0.00     0.037 A 
HETATM   23  C   UNL     1      39.936  -8.892   3.776  1.00  0.00     0.004 A 
HETATM   24  C   UNL     1      39.121  -7.765   3.802  1.00  0.00     0.019 A 
HETATM   25  C   UNL     1      37.982  -7.756   3.013  1.00  0.00     0.117 A 
HETATM   26  N   UNL     1      37.605  -8.782   2.218  1.00  0.00    -0.256 NA
ENDBRANCH  18  21
ENDBRANCH  12  17
ENDBRANCH   1  11
BRANCH   3  27
HETATM   27  N   UNL     1      43.258 -15.788   2.708  1.00  0.00    -0.340 N 
HETATM   28  H   UNL     1      43.970 -15.272   3.214  1.00  0.00     0.167 HD
BRANCH  27  29
HETATM   29  C   UNL     1      43.347 -17.181   2.942  1.00  0.00     0.034 A 
HETATM   30  C   UNL     1      43.201 -18.116   1.907  1.00  0.00     0.032 A 
HETATM   31  C   UNL     1      43.341 -19.495   2.115  1.00  0.00     0.034 A 
HETATM   32  C   UNL     1      43.658 -19.908   3.410  1.00  0.00     0.062 A 
HETATM   33  N   UNL     1      43.862 -21.151   3.948  1.00  0.00    -0.278 N 
HETATM   34  C   UNL     1      43.845 -19.018   4.459  1.00  0.00     0.013 A 
HETATM   35  H   UNL     1      43.810 -22.045   3.474  1.00  0.00     0.189 HD
HETATM   36  N   UNL     1      44.168 -21.139   5.258  1.00  0.00    -0.186 NA
HETATM   37  C   UNL     1      44.156 -19.839   5.566  1.00  0.00     0.152 A 
HETATM   38  C   UNL     1      43.704 -17.637   4.225  1.00  0.00     0.044 A 
ENDBRANCH  27  29
ENDBRANCH   3  27
TORSDOF 5
ENDMDL
MODEL 8
REMARK VINA RESULT:      -8.5      2.078      5.245
REMARK  5 active torsions:
REMARK  status: ('A' for Active; 'I' for Inactive)
REMARK       I    between atoms: C_2  and  N_3 
REMARK    1  A    between atoms: C_2  and  C_31 
REMARK    2  A    between atoms: N_3  and  C_4 
REMARK    3  A    between atoms: C_9  and  C_10 
REMARK    4  A    between atoms: C_12  and  N_13 
REMARK    5  A    between atoms: N_13  and  C_14 
ROOT
HETATM    1  C   UNL     1      40.333 -14.540   0.925  1.00  0.00     0.164 A 
HETATM    2  N   UNL     1      39.803 -14.173   2.102  1.00  0.00    -0.210 NA
HETATM    3  C   UNL     1      40.379 -14.627   3.230  1.00  0.00     0.143 A 
HETATM    4  C   UNL     1      41.489 -15.485   3.203  1.00  0.00     0.039 A 
HETATM    5  C   UNL     1      42.128 -16.035   4.345  1.00  0.00     0.018 A 
HETATM    6  C   UNL     1      43.217 -16.894   4.211  1.00  0.00     0.001 A 
HETATM    7  C   UNL     1      43.674 -17.217   2.943  1.00  0.00     0.002 A 
HETATM    8  C   UNL     1      43.039 -16.679   1.820  1.00  0.00     0.032 A 
HETATM    9  C   UNL     1      41.956 -15.816   1.927  1.00  0.00     0.073 A 
HETATM   10  N   UNL     1      41.402 -15.344   0.806  1.00  0.00    -0.228 NA
ENDROOT
BRANCH   1  11
HETATM   11  C   UNL     1      39.677 -14.038  -0.308  1.00  0.00     0.039 A 
HETATM   12  C   UNL     1      39.311 -12.680  -0.524  1.00  0.00     0.049 A 
HETATM   13  C   UNL     1      38.707 -12.314  -1.739  1.00  0.00     0.030 A 
HETATM   14  C   UNL     1      38.452 -13.253  -2.741  1.00  0.00     0.002 A 
HETATM   15  C   UNL     1      38.793 -14.580  -2.544  1.00  0.00     0.001 A 
HETATM   16  C   UNL     1      39.394 -14.963  -1.346  1.00  0.00     0.018 A 
BRANCH  12  17
HETATM   17  N   UNL     1      39.526 -11.720   0.497  1.00  0.00    -0.321 N 
HETATM   18  C   UNL     1      38.627 -11.200   1.409  1.00  0.00     0.274 C 
HETATM   19  O   UNL     1      37.423 -11.425   1.474  1.00  0.00    -0.266 OA
HETATM   20  H   UNL     1      40.475 -11.342   0.568  1.00  0.00     0.169 HD
BRANCH  18  21
HETATM   21  C   UNL     1      39.248 -10.261   2.402  1.00  0.00     0.124 A 
HETATM   22  C   UNL     1      40.628 -10.255   2.574  1.00  0.00     0.037 A 
HETATM   23  C   UNL     1      41.178  -9.353   3.481  1.00  0.00     0.004 A 
HETATM   24  C   UNL     1      40.338  -8.490   4.176  1.00  0.00     0.019 A 
HETATM   25  C   UNL     1      38.974  -8.565   3.941  1.00  0.00     0.117 A 
HETATM   26  N   UNL     1      38.403  -9.434   3.078  1.00  0.00    -0.256 NA
ENDBRANCH  18  21
ENDBRANCH  12  17
ENDBRANCH   1  11
BRANCH   3  27
HETATM   27  N   UNL     1      39.858 -14.207   4.485  1.00  0.00    -0.340 N 
HETATM   28  H   UNL     1      39.769 -15.020   5.085  1.00  0.00     0.167 HD
BRANCH  27  29
HETATM   29  C   UNL     1      40.214 -13.048   5.215  1.00  0.00     0.034 A 
HETATM   30  C   UNL     1      39.249 -12.233   5.825  1.00  0.00     0.032 A 
HETATM   31  C   UNL     1      39.590 -11.113   6.596  1.00  0.00     0.034 A 
HETATM   32  C   UNL     1      40.951 -10.848   6.754  1.00  0.00     0.062 A 
HETATM   33  N   UNL     1      41.617  -9.858   7.428  1.00  0.00    -0.278 N 
HETATM   34  C   UNL     1      41.943 -11.645   6.197  1.00  0.00     0.013 A 
HETATM   35  H   UNL     1      41.215  -9.094   7.958  1.00  0.00     0.189 HD
HETATM   36  N   UNL     1      42.957  -9.950   7.356  1.00  0.00    -0.186 NA
HETATM   37  C   UNL     1      43.152 -11.038   6.605  1.00  0.00     0.152 A 
HETATM   38  C   UNL     1      41.576 -12.767   5.431  1.00  0.00     0.044 A 
ENDBRANCH  27  29
ENDBRANCH   3  27
TORSDOF 5
ENDMDL
MODEL 9
REMARK VINA RESULT:      -8.5      2.059      5.327
REMARK  5 active torsions:
REMARK  status: ('A' for Active; 'I' for Inactive)
REMARK       I    between atoms: C_2  and  N_3 
REMARK    1  A    between atoms: C_2  and  C_31 
REMARK    2  A    between atoms: N_3  and  C_4 
REMARK    3  A    between atoms: C_9  and  C_10 
REMARK    4  A    between atoms: C_12  and  N_13 
REMARK    5  A    between atoms: N_13  and  C_14 
ROOT
HETATM    1  C   UNL     1      42.691 -14.764   4.644  1.00  0.00     0.164 A 
HETATM    2  N   UNL     1      41.447 -14.290   4.469  1.00  0.00    -0.210 NA
HETATM    3  C   UNL     1      41.141 -13.092   4.999  1.00  0.00     0.143 A 
HETATM    4  C   UNL     1      42.071 -12.350   5.743  1.00  0.00     0.039 A 
HETATM    5  C   UNL     1      41.813 -11.101   6.365  1.00  0.00     0.018 A 
HETATM    6  C   UNL     1      42.802 -10.449   7.099  1.00  0.00     0.001 A 
HETATM    7  C   UNL     1      44.051 -11.039   7.227  1.00  0.00     0.002 A 
HETATM    8  C   UNL     1      44.300 -12.272   6.619  1.00  0.00     0.032 A 
HETATM    9  C   UNL     1      43.333 -12.938   5.876  1.00  0.00     0.073 A 
HETATM   10  N   UNL     1      43.648 -14.115   5.327  1.00  0.00    -0.228 NA
ENDROOT
BRANCH   1  11
HETATM   11  C   UNL     1      43.006 -16.091   4.060  1.00  0.00     0.039 A 
HETATM   12  C   UNL     1      42.811 -16.432   2.693  1.00  0.00     0.049 A 
HETATM   13  C   UNL     1      43.160 -17.718   2.246  1.00  0.00     0.030 A 
HETATM   14  C   UNL     1      43.691 -18.674   3.115  1.00  0.00     0.002 A 
HETATM   15  C   UNL     1      43.879 -18.364   4.450  1.00  0.00     0.001 A 
HETATM   16  C   UNL     1      43.541 -17.093   4.912  1.00  0.00     0.018 A 
BRANCH  12  17
HETATM   17  N   UNL     1      42.236 -15.487   1.806  1.00  0.00    -0.321 N 
HETATM   18  C   UNL     1      40.921 -15.357   1.403  1.00  0.00     0.274 C 
HETATM   19  O   UNL     1      39.981 -16.089   1.691  1.00  0.00    -0.266 OA
HETATM   20  H   UNL     1      42.881 -14.811   1.387  1.00  0.00     0.169 HD
BRANCH  18  21
HETATM   21  C   UNL     1      40.676 -14.171   0.514  1.00  0.00     0.124 A 
HETATM   22  C   UNL     1      41.368 -12.987   0.739  1.00  0.00     0.037 A 
HETATM   23  C   UNL     1      41.142 -11.914  -0.119  1.00  0.00     0.004 A 
HETATM   24  C   UNL     1      40.243 -12.062  -1.170  1.00  0.00     0.019 A 
HETATM   25  C   UNL     1      39.599 -13.280  -1.320  1.00  0.00     0.117 A 
HETATM   26  N   UNL     1      39.783 -14.339  -0.502  1.00  0.00    -0.256 NA
ENDBRANCH  18  21
ENDBRANCH  12  17
ENDBRANCH   1  11
BRANCH   3  27
HETATM   27  N   UNL     1      39.842 -12.555   4.780  1.00  0.00    -0.340 N 
HETATM   28  H   UNL     1      39.507 -12.156   5.651  1.00  0.00     0.167 HD
BRANCH  27  29
HETATM   29  C   UNL     1      39.398 -11.819   3.656  1.00  0.00     0.034 A 
HETATM   30  C   UNL     1      38.427 -12.321   2.778  1.00  0.00     0.032 A 
HETATM   31  C   UNL     1      37.939 -11.580   1.693  1.00  0.00     0.034 A 
HETATM   32  C   UNL     1      38.451 -10.293   1.528  1.00  0.00     0.062 A 
HETATM   33  N   UNL     1      38.200  -9.322   0.595  1.00  0.00    -0.278 N 
HETATM   34  C   UNL     1      39.390  -9.740   2.389  1.00  0.00     0.013 A 
HETATM   35  H   UNL     1      37.563  -9.372  -0.192  1.00  0.00     0.189 HD
HETATM   36  N   UNL     1      38.895  -8.186   0.782  1.00  0.00    -0.186 NA
HETATM   37  C   UNL     1      39.620  -8.444   1.875  1.00  0.00     0.152 A 
HETATM   38  C   UNL     1      39.862 -10.501   3.476  1.00  0.00     0.044 A 
ENDBRANCH  27  29
ENDBRANCH   3  27
TORSDOF 5
ENDMDL
MODEL 10
REMARK VINA RESULT:      -8.4     16.748     19.619
REMARK  5 active torsions:
REMARK  status: ('A' for Active; 'I' for Inactive)
REMARK       I    between atoms: C_2  and  N_3 
REMARK    1  A    between atoms: C_2  and  C_31 
REMARK    2  A    between atoms: N_3  and  C_4 
REMARK    3  A    between atoms: C_9  and  C_10 
REMARK    4  A    between atoms: C_12  and  N_13 
REMARK    5  A    between atoms: N_13  and  C_14 
ROOT
HETATM    1  C   UNL     1      50.074 -31.314   1.939  1.00  0.00     0.164 A 
HETATM    2  N   UNL     1      49.444 -30.270   1.377  1.00  0.00    -0.210 NA
HETATM    3  C   UNL     1      49.757 -29.942   0.111  1.00  0.00     0.143 A 
HETATM    4  C   UNL     1      50.733 -30.640  -0.617  1.00  0.00     0.039 A 
HETATM    5  C   UNL     1      51.146 -30.333  -1.940  1.00  0.00     0.018 A 
HETATM    6  C   UNL     1      52.139 -31.078  -2.571  1.00  0.00     0.001 A 
HETATM    7  C   UNL     1      52.733 -32.130  -1.890  1.00  0.00     0.002 A 
HETATM    8  C   UNL     1      52.330 -32.427  -0.586  1.00  0.00     0.032 A 
HETATM    9  C   UNL     1      51.337 -31.703   0.063  1.00  0.00     0.073 A 
HETATM   10  N   UNL     1      51.008 -32.048   1.312  1.00  0.00    -0.228 NA
ENDROOT
BRANCH   1  11
HETATM   11  C   UNL     1      49.722 -31.654   3.339  1.00  0.00     0.039 A 
HETATM   12  C   UNL     1      48.404 -31.956   3.784  1.00  0.00     0.049 A 
HETATM   13  C   UNL     1      48.189 -32.280   5.135  1.00  0.00     0.030 A 
HETATM   14  C   UNL     1      49.238 -32.305   6.056  1.00  0.00     0.002 A 
HETATM   15  C   UNL     1      50.525 -32.004   5.644  1.00  0.00     0.001 A 
HETATM   16  C   UNL     1      50.759 -31.683   4.308  1.00  0.00     0.018 A 
BRANCH  12  17
HETATM   17  N   UNL     1      47.321 -31.896   2.871  1.00  0.00    -0.321 N 
HETATM   18  C   UNL     1      46.398 -30.886   2.678  1.00  0.00     0.274 C 
HETATM   19  O   UNL     1      46.294 -29.845   3.317  1.00  0.00    -0.266 OA
HETATM   20  H   UNL     1      47.185 -32.719   2.277  1.00  0.00     0.169 HD
BRANCH  18  21
HETATM   21  C   UNL     1      45.442 -31.147   1.550  1.00  0.00     0.124 A 
HETATM   22  C   UNL     1      45.859 -31.892   0.452  1.00  0.00     0.037 A 
HETATM   23  C   UNL     1      44.943 -32.143  -0.565  1.00  0.00     0.004 A 
HETATM   24  C   UNL     1      43.647 -31.652  -0.448  1.00  0.00     0.019 A 
HETATM   25  C   UNL     1      43.317 -30.920   0.682  1.00  0.00     0.117 A 
HETATM   26  N   UNL     1      44.182 -30.646   1.683  1.00  0.00    -0.256 NA
ENDBRANCH  18  21
ENDBRANCH  12  17
ENDBRANCH   1  11
BRANCH   3  27
HETATM   27  N   UNL     1      49.063 -28.869  -0.514  1.00  0.00    -0.340 N 
HETATM   28  H   UNL     1      49.706 -28.386  -1.133  1.00  0.00     0.167 HD
BRANCH  27  29
HETATM   29  C   UNL     1      47.745 -28.886  -1.029  1.00  0.00     0.034 A 
HETATM   30  C   UNL     1      46.696 -28.200  -0.402  1.00  0.00     0.032 A 
HETATM   31  C   UNL     1      45.399 -28.164  -0.931  1.00  0.00     0.034 A 
HETATM   32  C   UNL     1      45.192 -28.831  -2.139  1.00  0.00     0.062 A 
HETATM   33  N   UNL     1      44.074 -28.993  -2.914  1.00  0.00    -0.278 N 
HETATM   34  C   UNL     1      46.207 -29.498  -2.814  1.00  0.00     0.013 A 
HETATM   35  H   UNL     1      43.142 -28.640  -2.734  1.00  0.00     0.189 HD
HETATM   36  N   UNL     1      44.282 -29.706  -4.036  1.00  0.00    -0.186 NA
HETATM   37  C   UNL     1      45.581 -30.012  -3.972  1.00  0.00     0.152 A 
HETATM   38  C   UNL     1      47.503 -29.516  -2.265  1.00  0.00     0.044 A 
ENDBRANCH  27  29
ENDBRANCH   3  27
TORSDOF 5
ENDMDL
