MODEL 1
REMARK VINA RESULT:      -8.1      0.000      0.000
REMARK  3 active torsions:
REMARK  status: ('A' for Active; 'I' for Inactive)
REMARK    1  A    between atoms: C_4  and  N_5 
REMARK       I    between atoms: N_5  and  C_6 
REMARK    2  A    between atoms: C_6  and  C_7 
REMARK    3  A    between atoms: C_7  and  C_8 
ROOT
HETATM    1  C   UNL     1      43.658 -12.967   6.888  1.00  0.00     0.286 C 
HETATM    2  N   UNL     1      42.166 -12.761   6.538  1.00  0.00    -0.056 N 
HETATM    3  H   UNL     1      41.609 -13.557   6.876  1.00  0.00     0.278 HD
HETATM    4  H   UNL     1      41.840 -11.935   7.060  1.00  0.00     0.278 HD
HETATM    5  C   UNL     1      41.957 -12.533   5.061  1.00  0.00     0.209 C 
HETATM    6  C   UNL     1      42.781 -11.301   4.627  1.00  0.00     0.115 C 
HETATM    7  N   UNL     1      44.182 -11.418   5.004  1.00  0.00    -0.353 N 
HETATM    8  C   UNL     1      44.546 -11.871   6.253  1.00  0.00     0.249 C 
HETATM    9  O   UNL     1      45.529 -11.415   6.828  1.00  0.00    -0.271 OA
HETATM   10  C   UNL     1      40.475 -12.333   4.769  1.00  0.00     0.035 C 
HETATM   11  C   UNL     1      40.265 -12.061   3.279  1.00  0.00     0.002 C 
HETATM   12  C   UNL     1      41.121 -10.897   2.774  1.00  0.00     0.002 C 
HETATM   13  C   UNL     1      42.602 -11.061   3.127  1.00  0.00     0.027 C 
HETATM   14  H   UNL     1      44.820 -10.694   4.673  1.00  0.00     0.163 HD
ENDROOT
BRANCH   1  15
HETATM   15  C   UNL     1      44.029 -14.425   6.601  1.00  0.00     0.146 C 
BRANCH  15  16
HETATM   16  C   UNL     1      43.050 -15.405   7.202  1.00  0.00     0.224 C 
HETATM   17  N   UNL     1      42.187 -16.106   6.417  1.00  0.00    -0.327 N 
HETATM   18  H   UNL     1      41.418 -16.509   6.947  1.00  0.00     0.169 HD
HETATM   19  O   UNL     1      42.994 -15.527   8.426  1.00  0.00    -0.273 OA
BRANCH  17  20
HETATM   20  C   UNL     1      42.266 -16.512   5.072  1.00  0.00     0.035 A 
HETATM   21  C   UNL     1      43.176 -17.463   4.602  1.00  0.00     0.036 A 
HETATM   22  C   UNL     1      43.185 -17.840   3.251  1.00  0.00    -0.059 A 
HETATM   23  C   UNL     1      44.143 -18.880   2.745  1.00  0.00     0.048 C 
HETATM   24  C   UNL     1      42.242 -17.286   2.380  1.00  0.00     0.013 A 
HETATM   25  C   UNL     1      41.293 -16.369   2.843  1.00  0.00    -0.059 A 
HETATM   26  C   UNL     1      41.307 -15.995   4.193  1.00  0.00     0.036 A 
HETATM   27  C   UNL     1      40.262 -15.822   1.898  1.00  0.00     0.048 C 
ENDBRANCH  17  20
ENDBRANCH  15  16
ENDBRANCH   1  15
TORSDOF 3
ENDMDL
MODEL 2
REMARK VINA RESULT:      -8.0      0.436      1.841
REMARK  3 active torsions:
REMARK  status: ('A' for Active; 'I' for Inactive)
REMARK    1  A    between atoms: C_4  and  N_5 
REMARK       I    between atoms: N_5  and  C_6 
REMARK    2  A    between atoms: C_6  and  C_7 
REMARK    3  A    between atoms: C_7  and  C_8 
ROOT
HETATM    1  C   UNL     1      43.556 -12.961   6.805  1.00  0.00     0.286 C 
HETATM    2  N   UNL     1      42.018 -12.823   6.712  1.00  0.00    -0.056 N 
HETATM    3  H   UNL     1      41.562 -13.626   7.164  1.00  0.00     0.278 HD
HETATM    4  H   UNL     1      41.752 -11.991   7.257  1.00  0.00     0.278 HD
HETATM    5  C   UNL     1      41.550 -12.657   5.287  1.00  0.00     0.209 C 
HETATM    6  C   UNL     1      42.234 -11.413   4.680  1.00  0.00     0.115 C 
HETATM    7  N   UNL     1      43.683 -11.464   4.813  1.00  0.00    -0.353 N 
HETATM    8  C   UNL     1      44.275 -11.857   5.994  1.00  0.00     0.249 C 
HETATM    9  O   UNL     1      45.321 -11.344   6.376  1.00  0.00    -0.271 OA
HETATM   10  C   UNL     1      40.032 -12.522   5.250  1.00  0.00     0.035 C 
HETATM   11  C   UNL     1      39.559 -12.313   3.810  1.00  0.00     0.002 C 
HETATM   12  C   UNL     1      40.265 -11.138   3.131  1.00  0.00     0.002 C 
HETATM   13  C   UNL     1      41.791 -11.234   3.228  1.00  0.00     0.027 C 
HETATM   14  H   UNL     1      44.224 -10.730   4.356  1.00  0.00     0.163 HD
ENDROOT
BRANCH   1  15
HETATM   15  C   UNL     1      43.934 -14.414   6.502  1.00  0.00     0.146 C 
BRANCH  15  16
HETATM   16  C   UNL     1      43.006 -15.407   7.161  1.00  0.00     0.224 C 
HETATM   17  N   UNL     1      42.098 -16.110   6.431  1.00  0.00    -0.327 N 
HETATM   18  H   UNL     1      41.371 -16.524   7.009  1.00  0.00     0.169 HD
HETATM   19  O   UNL     1      43.035 -15.538   8.384  1.00  0.00    -0.273 OA
BRANCH  17  20
HETATM   20  C   UNL     1      42.089 -16.506   5.081  1.00  0.00     0.035 A 
HETATM   21  C   UNL     1      41.207 -15.989   4.127  1.00  0.00     0.036 A 
HETATM   22  C   UNL     1      41.268 -16.411   2.792  1.00  0.00    -0.059 A 
HETATM   23  C   UNL     1      40.341 -15.839   1.757  1.00  0.00     0.048 C 
HETATM   24  C   UNL     1      42.252 -17.327   2.408  1.00  0.00     0.013 A 
HETATM   25  C   UNL     1      43.173 -17.819   3.338  1.00  0.00    -0.059 A 
HETATM   26  C   UNL     1      43.089 -17.396   4.672  1.00  0.00     0.036 A 
HETATM   27  C   UNL     1      44.248 -18.768   2.893  1.00  0.00     0.048 C 
ENDBRANCH  17  20
ENDBRANCH  15  16
ENDBRANCH   1  15
TORSDOF 3
ENDMDL
MODEL 3
REMARK VINA RESULT:      -7.9      2.151      6.390
REMARK  3 active torsions:
REMARK  status: ('A' for Active; 'I' for Inactive)
REMARK    1  A    between atoms: C_4  and  N_5 
REMARK       I    between atoms: N_5  and  C_6 
REMARK    2  A    between atoms: C_6  and  C_7 
REMARK    3  A    between atoms: C_7  and  C_8 
ROOT
HETATM    1  C   UNL     1      42.913 -16.389   5.338  1.00  0.00     0.286 C 
HETATM    2  N   UNL     1      43.409 -16.851   3.948  1.00  0.00    -0.056 N 
HETATM    3  H   UNL     1      42.958 -16.297   3.208  1.00  0.00     0.278 HD
HETATM    4  H   UNL     1      44.416 -16.640   3.897  1.00  0.00     0.278 HD
HETATM    5  C   UNL     1      43.196 -18.330   3.733  1.00  0.00     0.209 C 
HETATM    6  C   UNL     1      43.934 -19.105   4.847  1.00  0.00     0.115 C 
HETATM    7  N   UNL     1      43.553 -18.651   6.176  1.00  0.00    -0.353 N 
HETATM    8  C   UNL     1      43.444 -17.308   6.464  1.00  0.00     0.249 C 
HETATM    9  O   UNL     1      43.763 -16.871   7.565  1.00  0.00    -0.271 OA
HETATM   10  C   UNL     1      43.704 -18.734   2.354  1.00  0.00     0.035 C 
HETATM   11  C   UNL     1      43.527 -20.239   2.150  1.00  0.00     0.002 C 
HETATM   12  C   UNL     1      44.171 -21.057   3.271  1.00  0.00     0.002 C 
HETATM   13  C   UNL     1      43.717 -20.607   4.662  1.00  0.00     0.027 C 
HETATM   14  H   UNL     1      43.918 -19.171   6.974  1.00  0.00     0.163 HD
ENDROOT
BRANCH   1  15
HETATM   15  C   UNL     1      41.399 -16.170   5.268  1.00  0.00     0.146 C 
BRANCH  15  16
HETATM   16  C   UNL     1      40.881 -15.312   6.397  1.00  0.00     0.224 C 
HETATM   17  N   UNL     1      41.525 -14.172   6.765  1.00  0.00    -0.327 N 
HETATM   18  H   UNL     1      41.244 -13.845   7.686  1.00  0.00     0.169 HD
HETATM   19  O   UNL     1      39.893 -15.683   7.031  1.00  0.00    -0.273 OA
BRANCH  17  20
HETATM   20  C   UNL     1      42.351 -13.290   6.043  1.00  0.00     0.035 A 
HETATM   21  C   UNL     1      42.024 -12.776   4.785  1.00  0.00     0.036 A 
HETATM   22  C   UNL     1      42.882 -11.882   4.130  1.00  0.00    -0.059 A 
HETATM   23  C   UNL     1      42.524 -11.306   2.790  1.00  0.00     0.048 C 
HETATM   24  C   UNL     1      44.057 -11.471   4.768  1.00  0.00     0.013 A 
HETATM   25  C   UNL     1      44.377 -11.938   6.046  1.00  0.00    -0.059 A 
HETATM   26  C   UNL     1      43.513 -12.841   6.680  1.00  0.00     0.036 A 
HETATM   27  C   UNL     1      45.622 -11.448   6.729  1.00  0.00     0.048 C 
ENDBRANCH  17  20
ENDBRANCH  15  16
ENDBRANCH   1  15
TORSDOF 3
ENDMDL
MODEL 4
REMARK VINA RESULT:      -7.9      2.517      4.138
REMARK  3 active torsions:
REMARK  status: ('A' for Active; 'I' for Inactive)
REMARK    1  A    between atoms: C_4  and  N_5 
REMARK       I    between atoms: N_5  and  C_6 
REMARK    2  A    between atoms: C_6  and  C_7 
REMARK    3  A    between atoms: C_7  and  C_8 
ROOT
HETATM    1  C   UNL     1      40.291 -12.980   4.208  1.00  0.00     0.286 C 
HETATM    2  N   UNL     1      41.497 -12.159   3.695  1.00  0.00    -0.056 N 
HETATM    3  H   UNL     1      41.710 -12.412   2.721  1.00  0.00     0.278 HD
HETATM    4  H   UNL     1      41.212 -11.170   3.683  1.00  0.00     0.278 HD
HETATM    5  C   UNL     1      42.709 -12.320   4.581  1.00  0.00     0.209 C 
HETATM    6  C   UNL     1      42.338 -11.882   6.014  1.00  0.00     0.115 C 
HETATM    7  N   UNL     1      41.159 -12.576   6.512  1.00  0.00    -0.353 N 
HETATM    8  C   UNL     1      40.046 -12.746   5.717  1.00  0.00     0.249 C 
HETATM    9  O   UNL     1      38.918 -12.706   6.196  1.00  0.00    -0.271 OA
HETATM   10  C   UNL     1      43.865 -11.490   4.035  1.00  0.00     0.035 C 
HETATM   11  C   UNL     1      45.082 -11.619   4.953  1.00  0.00     0.002 C 
HETATM   12  C   UNL     1      44.752 -11.274   6.407  1.00  0.00     0.002 C 
HETATM   13  C   UNL     1      43.545 -12.054   6.937  1.00  0.00     0.027 C 
HETATM   14  H   UNL     1      40.897 -12.421   7.485  1.00  0.00     0.163 HD
ENDROOT
BRANCH   1  15
HETATM   15  C   UNL     1      40.452 -14.429   3.740  1.00  0.00     0.146 C 
BRANCH  15  16
HETATM   16  C   UNL     1      40.977 -14.530   2.327  1.00  0.00     0.224 C 
HETATM   17  N   UNL     1      42.105 -15.237   2.046  1.00  0.00    -0.327 N 
HETATM   18  H   UNL     1      42.494 -15.004   1.135  1.00  0.00     0.169 HD
HETATM   19  O   UNL     1      40.406 -13.915   1.427  1.00  0.00    -0.273 OA
BRANCH  17  20
HETATM   20  C   UNL     1      42.708 -16.332   2.693  1.00  0.00     0.035 A 
HETATM   21  C   UNL     1      42.824 -17.602   2.121  1.00  0.00     0.036 A 
HETATM   22  C   UNL     1      43.459 -18.644   2.813  1.00  0.00    -0.059 A 
HETATM   23  C   UNL     1      43.610 -20.004   2.193  1.00  0.00     0.048 C 
HETATM   24  C   UNL     1      44.017 -18.390   4.069  1.00  0.00     0.013 A 
HETATM   25  C   UNL     1      43.953 -17.114   4.636  1.00  0.00    -0.059 A 
HETATM   26  C   UNL     1      43.303 -16.088   3.936  1.00  0.00     0.036 A 
HETATM   27  C   UNL     1      44.598 -16.854   5.967  1.00  0.00     0.048 C 
ENDBRANCH  17  20
ENDBRANCH  15  16
ENDBRANCH   1  15
TORSDOF 3
ENDMDL
MODEL 5
REMARK VINA RESULT:      -7.8      1.846      2.806
REMARK  3 active torsions:
REMARK  status: ('A' for Active; 'I' for Inactive)
REMARK    1  A    between atoms: C_4  and  N_5 
REMARK       I    between atoms: N_5  and  C_6 
REMARK    2  A    between atoms: C_6  and  C_7 
REMARK    3  A    between atoms: C_7  and  C_8 
ROOT
HETATM    1  C   UNL     1      41.227 -14.215   6.372  1.00  0.00     0.286 C 
HETATM    2  N   UNL     1      40.155 -13.949   5.290  1.00  0.00    -0.056 N 
HETATM    3  H   UNL     1      39.324 -14.530   5.464  1.00  0.00     0.278 HD
HETATM    4  H   UNL     1      39.852 -12.970   5.391  1.00  0.00     0.278 HD
HETATM    5  C   UNL     1      40.692 -14.164   3.896  1.00  0.00     0.209 C 
HETATM    6  C   UNL     1      41.906 -13.234   3.682  1.00  0.00     0.115 C 
HETATM    7  N   UNL     1      42.911 -13.396   4.723  1.00  0.00    -0.353 N 
HETATM    8  C   UNL     1      42.551 -13.483   6.050  1.00  0.00     0.249 C 
HETATM    9  O   UNL     1      43.254 -12.993   6.927  1.00  0.00    -0.271 OA
HETATM   10  C   UNL     1      39.600 -13.887   2.869  1.00  0.00     0.035 C 
HETATM   11  C   UNL     1      40.154 -14.064   1.454  1.00  0.00     0.002 C 
HETATM   12  C   UNL     1      41.409 -13.224   1.211  1.00  0.00     0.002 C 
HETATM   13  C   UNL     1      42.481 -13.447   2.282  1.00  0.00     0.027 C 
HETATM   14  H   UNL     1      43.790 -12.892   4.611  1.00  0.00     0.163 HD
ENDROOT
BRANCH   1  15
HETATM   15  C   UNL     1      41.302 -15.724   6.624  1.00  0.00     0.146 C 
BRANCH  15  16
HETATM   16  C   UNL     1      42.624 -16.149   7.220  1.00  0.00     0.224 C 
HETATM   17  N   UNL     1      43.348 -17.161   6.670  1.00  0.00    -0.327 N 
HETATM   18  H   UNL     1      44.055 -17.524   7.305  1.00  0.00     0.169 HD
HETATM   19  O   UNL     1      43.020 -15.609   8.252  1.00  0.00    -0.273 OA
BRANCH  17  20
HETATM   20  C   UNL     1      43.412 -17.658   5.355  1.00  0.00     0.035 A 
HETATM   21  C   UNL     1      43.309 -16.853   4.216  1.00  0.00     0.036 A 
HETATM   22  C   UNL     1      43.406 -17.411   2.933  1.00  0.00    -0.059 A 
HETATM   23  C   UNL     1      43.322 -16.548   1.707  1.00  0.00     0.048 C 
HETATM   24  C   UNL     1      43.650 -18.781   2.799  1.00  0.00     0.013 A 
HETATM   25  C   UNL     1      43.804 -19.593   3.927  1.00  0.00    -0.059 A 
HETATM   26  C   UNL     1      43.691 -19.021   5.202  1.00  0.00     0.036 A 
HETATM   27  C   UNL     1      44.110 -21.054   3.759  1.00  0.00     0.048 C 
ENDBRANCH  17  20
ENDBRANCH  15  16
ENDBRANCH   1  15
TORSDOF 3
ENDMDL
MODEL 6
REMARK VINA RESULT:      -7.6      3.124      5.938
REMARK  3 active torsions:
REMARK  status: ('A' for Active; 'I' for Inactive)
REMARK    1  A    between atoms: C_4  and  N_5 
REMARK       I    between atoms: N_5  and  C_6 
REMARK    2  A    between atoms: C_6  and  C_7 
REMARK    3  A    between atoms: C_7  and  C_8 
ROOT
HETATM    1  C   UNL     1      39.921 -13.475   2.233  1.00  0.00     0.286 C 
HETATM    2  N   UNL     1      40.132 -14.671   3.189  1.00  0.00    -0.056 N 
HETATM    3  H   UNL     1      39.950 -14.386   4.160  1.00  0.00     0.278 HD
HETATM    4  H   UNL     1      39.423 -15.380   2.955  1.00  0.00     0.278 HD
HETATM    5  C   UNL     1      41.509 -15.275   3.044  1.00  0.00     0.209 C 
HETATM    6  C   UNL     1      41.703 -15.723   1.579  1.00  0.00     0.115 C 
HETATM    7  N   UNL     1      41.440 -14.646   0.636  1.00  0.00    -0.353 N 
HETATM    8  C   UNL     1      40.345 -13.823   0.786  1.00  0.00     0.249 C 
HETATM    9  O   UNL     1      39.738 -13.397  -0.191  1.00  0.00    -0.271 OA
HETATM   10  C   UNL     1      41.665 -16.449   4.003  1.00  0.00     0.035 C 
HETATM   11  C   UNL     1      43.044 -17.089   3.829  1.00  0.00     0.002 C 
HETATM   12  C   UNL     1      43.323 -17.481   2.377  1.00  0.00     0.002 C 
HETATM   13  C   UNL     1      43.098 -16.322   1.402  1.00  0.00     0.027 C 
HETATM   14  H   UNL     1      41.636 -14.824  -0.349  1.00  0.00     0.163 HD
ENDROOT
BRANCH   1  15
HETATM   15  C   UNL     1      40.545 -12.228   2.866  1.00  0.00     0.146 C 
BRANCH  15  16
HETATM   16  C   UNL     1      39.841 -11.803   4.133  1.00  0.00     0.224 C 
HETATM   17  N   UNL     1      40.269 -12.231   5.351  1.00  0.00    -0.327 N 
HETATM   18  H   UNL     1      39.567 -12.105   6.076  1.00  0.00     0.169 HD
HETATM   19  O   UNL     1      38.830 -11.105   4.054  1.00  0.00    -0.273 OA
BRANCH  17  20
HETATM   20  C   UNL     1      41.537 -12.636   5.807  1.00  0.00     0.035 A 
HETATM   21  C   UNL     1      42.671 -11.820   5.769  1.00  0.00     0.036 A 
HETATM   22  C   UNL     1      43.901 -12.279   6.263  1.00  0.00    -0.059 A 
HETATM   23  C   UNL     1      45.117 -11.398   6.249  1.00  0.00     0.048 C 
HETATM   24  C   UNL     1      43.975 -13.551   6.838  1.00  0.00     0.013 A 
HETATM   25  C   UNL     1      42.840 -14.362   6.928  1.00  0.00    -0.059 A 
HETATM   26  C   UNL     1      41.622 -13.892   6.417  1.00  0.00     0.036 A 
HETATM   27  C   UNL     1      42.935 -15.707   7.589  1.00  0.00     0.048 C 
ENDBRANCH  17  20
ENDBRANCH  15  16
ENDBRANCH   1  15
TORSDOF 3
ENDMDL
MODEL 7
REMARK VINA RESULT:      -7.6      1.882      3.406
REMARK  3 active torsions:
REMARK  status: ('A' for Active; 'I' for Inactive)
REMARK    1  A    between atoms: C_4  and  N_5 
REMARK       I    between atoms: N_5  and  C_6 
REMARK    2  A    between atoms: C_6  and  C_7 
REMARK    3  A    between atoms: C_7  and  C_8 
ROOT
HETATM    1  C   UNL     1      43.757 -12.903   5.681  1.00  0.00     0.286 C 
HETATM    2  N   UNL     1      44.886 -11.865   5.880  1.00  0.00    -0.056 N 
HETATM    3  H   UNL     1      45.802 -12.300   5.710  1.00  0.00     0.278 HD
HETATM    4  H   UNL     1      44.768 -11.141   5.157  1.00  0.00     0.278 HD
HETATM    5  C   UNL     1      44.829 -11.222   7.245  1.00  0.00     0.209 C 
HETATM    6  C   UNL     1      43.451 -10.549   7.420  1.00  0.00     0.115 C 
HETATM    7  N   UNL     1      42.354 -11.472   7.168  1.00  0.00    -0.353 N 
HETATM    8  C   UNL     1      42.379 -12.328   6.088  1.00  0.00     0.249 C 
HETATM    9  O   UNL     1      41.351 -12.609   5.482  1.00  0.00    -0.271 OA
HETATM   10  C   UNL     1      45.958 -10.208   7.389  1.00  0.00     0.035 C 
HETATM   11  C   UNL     1      45.878  -9.525   8.755  1.00  0.00     0.002 C 
HETATM   12  C   UNL     1      44.503  -8.908   9.018  1.00  0.00     0.002 C 
HETATM   13  C   UNL     1      43.361  -9.906   8.805  1.00  0.00     0.027 C 
HETATM   14  H   UNL     1      41.407 -11.141   7.354  1.00  0.00     0.163 HD
ENDROOT
BRANCH   1  15
HETATM   15  C   UNL     1      44.186 -14.222   6.330  1.00  0.00     0.146 C 
BRANCH  15  16
HETATM   16  C   UNL     1      43.029 -14.970   6.950  1.00  0.00     0.224 C 
HETATM   17  N   UNL     1      42.111 -15.608   6.177  1.00  0.00    -0.327 N 
HETATM   18  H   UNL     1      41.258 -15.829   6.686  1.00  0.00     0.169 HD
HETATM   19  O   UNL     1      42.886 -14.950   8.173  1.00  0.00    -0.273 OA
BRANCH  17  20
HETATM   20  C   UNL     1      42.199 -16.163   4.886  1.00  0.00     0.035 A 
HETATM   21  C   UNL     1      43.115 -17.158   4.531  1.00  0.00     0.036 A 
HETATM   22  C   UNL     1      43.134 -17.685   3.232  1.00  0.00    -0.059 A 
HETATM   23  C   UNL     1      44.097 -18.772   2.852  1.00  0.00     0.048 C 
HETATM   24  C   UNL     1      42.194 -17.236   2.298  1.00  0.00     0.013 A 
HETATM   25  C   UNL     1      41.239 -16.277   2.650  1.00  0.00    -0.059 A 
HETATM   26  C   UNL     1      41.244 -15.752   3.949  1.00  0.00     0.036 A 
HETATM   27  C   UNL     1      40.212 -15.842   1.644  1.00  0.00     0.048 C 
ENDBRANCH  17  20
ENDBRANCH  15  16
ENDBRANCH   1  15
TORSDOF 3
ENDMDL
MODEL 8
REMARK VINA RESULT:      -7.5      2.296      6.565
REMARK  3 active torsions:
REMARK  status: ('A' for Active; 'I' for Inactive)
REMARK    1  A    between atoms: C_4  and  N_5 
REMARK       I    between atoms: N_5  and  C_6 
REMARK    2  A    between atoms: C_6  and  C_7 
REMARK    3  A    between atoms: C_7  and  C_8 
ROOT
HETATM    1  C   UNL     1      43.171 -16.272   5.590  1.00  0.00     0.286 C 
HETATM    2  N   UNL     1      43.667 -16.802   4.224  1.00  0.00    -0.056 N 
HETATM    3  H   UNL     1      43.290 -16.224   3.462  1.00  0.00     0.278 HD
HETATM    4  H   UNL     1      44.689 -16.684   4.203  1.00  0.00     0.278 HD
HETATM    5  C   UNL     1      43.328 -18.260   4.026  1.00  0.00     0.209 C 
HETATM    6  C   UNL     1      43.958 -19.077   5.174  1.00  0.00     0.115 C 
HETATM    7  N   UNL     1      43.578 -18.567   6.483  1.00  0.00    -0.353 N 
HETATM    8  C   UNL     1      43.582 -17.214   6.747  1.00  0.00     0.249 C 
HETATM    9  O   UNL     1      43.905 -16.788   7.850  1.00  0.00    -0.271 OA
HETATM   10  C   UNL     1      43.840 -18.733   2.670  1.00  0.00     0.035 C 
HETATM   11  C   UNL     1      43.535 -20.219   2.483  1.00  0.00     0.002 C 
HETATM   12  C   UNL     1      44.067 -21.072   3.637  1.00  0.00     0.002 C 
HETATM   13  C   UNL     1      43.613 -20.557   5.006  1.00  0.00     0.027 C 
HETATM   14  H   UNL     1      43.870 -19.102   7.300  1.00  0.00     0.163 HD
ENDROOT
BRANCH   1  15
HETATM   15  C   UNL     1      41.685 -15.920   5.467  1.00  0.00     0.146 C 
BRANCH  15  16
HETATM   16  C   UNL     1      41.369 -15.167   4.196  1.00  0.00     0.224 C 
HETATM   17  N   UNL     1      41.278 -13.810   4.188  1.00  0.00    -0.327 N 
HETATM   18  H   UNL     1      40.802 -13.456   3.363  1.00  0.00     0.169 HD
HETATM   19  O   UNL     1      41.132 -15.798   3.166  1.00  0.00    -0.273 OA
BRANCH  17  20
HETATM   20  C   UNL     1      41.870 -12.829   5.006  1.00  0.00     0.035 A 
HETATM   21  C   UNL     1      43.252 -12.666   5.145  1.00  0.00     0.036 A 
HETATM   22  C   UNL     1      43.776 -11.651   5.958  1.00  0.00    -0.059 A 
HETATM   23  C   UNL     1      45.259 -11.454   6.090  1.00  0.00     0.048 C 
HETATM   24  C   UNL     1      42.901 -10.769   6.601  1.00  0.00     0.013 A 
HETATM   25  C   UNL     1      41.518 -10.887   6.435  1.00  0.00    -0.059 A 
HETATM   26  C   UNL     1      41.012 -11.916   5.628  1.00  0.00     0.036 A 
HETATM   27  C   UNL     1      40.600  -9.902   7.099  1.00  0.00     0.048 C 
ENDBRANCH  17  20
ENDBRANCH  15  16
ENDBRANCH   1  15
TORSDOF 3
ENDMDL
MODEL 9
REMARK VINA RESULT:      -7.4      4.464      5.985
REMARK  3 active torsions:
REMARK  status: ('A' for Active; 'I' for Inactive)
REMARK    1  A    between atoms: C_4  and  N_5 
REMARK       I    between atoms: N_5  and  C_6 
REMARK    2  A    between atoms: C_6  and  C_7 
REMARK    3  A    between atoms: C_7  and  C_8 
ROOT
HETATM    1  C   UNL     1      40.975 -13.691   0.352  1.00  0.00     0.286 C 
HETATM    2  N   UNL     1      41.324 -12.589  -0.675  1.00  0.00    -0.056 N 
HETATM    3  H   UNL     1      42.082 -11.994  -0.313  1.00  0.00     0.278 HD
HETATM    4  H   UNL     1      41.696 -13.057  -1.513  1.00  0.00     0.278 HD
HETATM    5  C   UNL     1      40.117 -11.767  -1.057  1.00  0.00     0.209 C 
HETATM    6  C   UNL     1      39.037 -12.709  -1.633  1.00  0.00     0.115 C 
HETATM    7  N   UNL     1      38.729 -13.808  -0.729  1.00  0.00    -0.353 N 
HETATM    8  C   UNL     1      39.731 -14.501  -0.086  1.00  0.00     0.249 C 
HETATM    9  O   UNL     1      39.633 -15.706   0.119  1.00  0.00    -0.271 OA
HETATM   10  C   UNL     1      40.513 -10.700  -2.070  1.00  0.00     0.035 C 
HETATM   11  C   UNL     1      39.283  -9.893  -2.490  1.00  0.00     0.002 C 
HETATM   12  C   UNL     1      38.147 -10.785  -2.995  1.00  0.00     0.002 C 
HETATM   13  C   UNL     1      37.794 -11.902  -2.010  1.00  0.00     0.027 C 
HETATM   14  H   UNL     1      37.959 -14.426  -0.985  1.00  0.00     0.163 HD
ENDROOT
BRANCH   1  15
HETATM   15  C   UNL     1      40.947 -13.065   1.750  1.00  0.00     0.146 C 
BRANCH  15  16
HETATM   16  C   UNL     1      39.898 -13.682   2.644  1.00  0.00     0.224 C 
HETATM   17  N   UNL     1      40.097 -14.895   3.226  1.00  0.00    -0.327 N 
HETATM   18  H   UNL     1      39.233 -15.311   3.566  1.00  0.00     0.169 HD
HETATM   19  O   UNL     1      38.824 -13.102   2.800  1.00  0.00    -0.273 OA
BRANCH  17  20
HETATM   20  C   UNL     1      41.274 -15.575   3.593  1.00  0.00     0.035 A 
HETATM   21  C   UNL     1      42.013 -15.279   4.742  1.00  0.00     0.036 A 
HETATM   22  C   UNL     1      43.165 -16.012   5.061  1.00  0.00    -0.059 A 
HETATM   23  C   UNL     1      43.949 -15.716   6.308  1.00  0.00     0.048 C 
HETATM   24  C   UNL     1      43.548 -17.077   4.240  1.00  0.00     0.013 A 
HETATM   25  C   UNL     1      42.793 -17.418   3.113  1.00  0.00    -0.059 A 
HETATM   26  C   UNL     1      41.652 -16.665   2.802  1.00  0.00     0.036 A 
HETATM   27  C   UNL     1      43.199 -18.593   2.271  1.00  0.00     0.048 C 
ENDBRANCH  17  20
ENDBRANCH  15  16
ENDBRANCH   1  15
TORSDOF 3
ENDMDL
MODEL 10
REMARK VINA RESULT:      -7.3      2.808      4.100
REMARK  3 active torsions:
REMARK  status: ('A' for Active; 'I' for Inactive)
REMARK    1  A    between atoms: C_4  and  N_5 
REMARK       I    between atoms: N_5  and  C_6 
REMARK    2  A    between atoms: C_6  and  C_7 
REMARK    3  A    between atoms: C_7  and  C_8 
ROOT
HETATM    1  C   UNL     1      40.664 -14.111   4.308  1.00  0.00     0.286 C 
HETATM    2  N   UNL     1      39.680 -13.206   3.530  1.00  0.00    -0.056 N 
HETATM    3  H   UNL     1      39.923 -13.196   2.531  1.00  0.00     0.278 HD
HETATM    4  H   UNL     1      38.748 -13.637   3.599  1.00  0.00     0.278 HD
HETATM    5  C   UNL     1      39.628 -11.808   4.096  1.00  0.00     0.209 C 
HETATM    6  C   UNL     1      39.215 -11.888   5.582  1.00  0.00     0.115 C 
HETATM    7  N   UNL     1      40.070 -12.790   6.341  1.00  0.00    -0.353 N 
HETATM    8  C   UNL     1      40.430 -14.020   5.835  1.00  0.00     0.249 C 
HETATM    9  O   UNL     1      40.552 -14.993   6.572  1.00  0.00    -0.271 OA
HETATM   10  C   UNL     1      38.645 -10.960   3.298  1.00  0.00     0.035 C 
HETATM   11  C   UNL     1      38.559  -9.554   3.894  1.00  0.00     0.002 C 
HETATM   12  C   UNL     1      38.231  -9.576   5.389  1.00  0.00     0.002 C 
HETATM   13  C   UNL     1      39.174 -10.484   6.184  1.00  0.00     0.027 C 
HETATM   14  H   UNL     1      39.931 -12.832   7.350  1.00  0.00     0.163 HD
ENDROOT
BRANCH   1  15
HETATM   15  C   UNL     1      42.083 -13.841   3.799  1.00  0.00     0.146 C 
BRANCH  15  16
HETATM   16  C   UNL     1      42.282 -14.284   2.368  1.00  0.00     0.224 C 
HETATM   17  N   UNL     1      43.015 -15.391   2.072  1.00  0.00    -0.327 N 
HETATM   18  H   UNL     1      43.297 -15.421   1.095  1.00  0.00     0.169 HD
HETATM   19  O   UNL     1      41.821 -13.598   1.456  1.00  0.00    -0.273 OA
BRANCH  17  20
HETATM   20  C   UNL     1      43.290 -16.556   2.812  1.00  0.00     0.035 A 
HETATM   21  C   UNL     1      43.435 -16.576   4.202  1.00  0.00     0.036 A 
HETATM   22  C   UNL     1      43.685 -17.777   4.880  1.00  0.00    -0.059 A 
HETATM   23  C   UNL     1      43.815 -17.809   6.376  1.00  0.00     0.048 C 
HETATM   24  C   UNL     1      43.746 -18.972   4.155  1.00  0.00     0.013 A 
HETATM   25  C   UNL     1      43.556 -18.978   2.770  1.00  0.00    -0.059 A 
HETATM   26  C   UNL     1      43.320 -17.765   2.107  1.00  0.00     0.036 A 
HETATM   27  C   UNL     1      43.583 -20.278   2.018  1.00  0.00     0.048 C 
ENDBRANCH  17  20
ENDBRANCH  15  16
ENDBRANCH   1  15
TORSDOF 3
ENDMDL
