MODEL 1
REMARK VINA RESULT:      -7.7      0.000      0.000
REMARK  3 active torsions:
REMARK  status: ('A' for Active; 'I' for Inactive)
REMARK    1  A    between atoms: C_7  and  C_8 
REMARK       I    between atoms: C_8  and  N_9 
REMARK    2  A    between atoms: C_19  and  C_20 
REMARK    3  A    between atoms: C_22  and  O_23 
ROOT
HETATM    1  C   UNL     1      43.732 -10.813   8.477  1.00  0.00     0.258 C 
HETATM    2  N   UNL     1      43.507 -11.301   7.189  1.00  0.00    -0.340 N 
HETATM    3  C   UNL     1      43.155 -10.547   5.991  1.00  0.00     0.123 C 
HETATM    4  C   UNL     1      43.206 -11.590   4.837  1.00  0.00     0.221 C 
HETATM    5  N   UNL     1      41.877 -11.568   4.071  1.00  0.00    -0.064 N 
HETATM    6  H   UNL     1      41.909 -12.265   3.315  1.00  0.00     0.280 HD
HETATM    7  C   UNL     1      40.632 -11.845   4.902  1.00  0.00     0.236 C 
HETATM    8  C   UNL     1      40.664 -10.954   6.135  1.00  0.00     0.034 C 
HETATM    9  C   UNL     1      41.758  -9.882   5.989  1.00  0.00     0.014 C 
HETATM   10  C   UNL     1      41.561  -9.181   4.623  1.00  0.00     0.034 C 
HETATM   11  C   UNL     1      41.706 -10.178   3.463  1.00  0.00     0.236 C 
HETATM   12  C   UNL     1      43.686 -12.937   5.449  1.00  0.00     0.070 C 
HETATM   13  C   UNL     1      44.214 -12.519   6.828  1.00  0.00     0.138 C 
HETATM   14  O   UNL     1      43.933 -11.572   9.419  1.00  0.00    -0.267 OA
ENDROOT
BRANCH   1  15
HETATM   15  C   UNL     1      43.857  -9.388   8.624  1.00  0.00     0.089 C 
HETATM   16  C   UNL     1      45.026  -8.606   8.424  1.00  0.00     0.076 C 
HETATM   17  C   UNL     1      46.387  -9.071   8.064  1.00  0.00     0.074 C 
HETATM   18  N   UNL     1      44.778  -7.307   8.620  1.00  0.00    -0.132 NA
HETATM   19  O   UNL     1      43.472  -7.240   9.071  1.00  0.00    -0.217 OA
HETATM   20  C   UNL     1      42.937  -8.490   9.111  1.00  0.00     0.092 C 
HETATM   21  C   UNL     1      41.561  -8.579   9.633  1.00  0.00     0.080 C 
ENDBRANCH   1  15
BRANCH  12  22
HETATM   22  C   UNL     1      42.748 -14.125   5.448  1.00  0.00    -0.048 A 
HETATM   23  C   UNL     1      42.461 -14.872   4.290  1.00  0.00     0.044 A 
HETATM   24  C   UNL     1      41.592 -15.959   4.356  1.00  0.00     0.066 A 
HETATM   25  C   UNL     1      40.997 -16.326   5.554  1.00  0.00     0.036 A 
HETATM   26  C   UNL     1      41.253 -15.584   6.704  1.00  0.00     0.003 A 
HETATM   27  C   UNL     1      42.117 -14.489   6.653  1.00  0.00     0.008 A 
BRANCH  24  28
HETATM   28  O   UNL     1      41.310 -16.705   3.253  1.00  0.00    -0.361 OA
HETATM   29  H   UNL     1      42.115 -17.152   2.942  1.00  0.00     0.217 HD
ENDBRANCH  24  28
ENDBRANCH  12  22
TORSDOF 3
ENDMDL
MODEL 2
REMARK VINA RESULT:      -7.7      5.163      8.237
REMARK  3 active torsions:
REMARK  status: ('A' for Active; 'I' for Inactive)
REMARK    1  A    between atoms: C_7  and  C_8 
REMARK       I    between atoms: C_8  and  N_9 
REMARK    2  A    between atoms: C_19  and  C_20 
REMARK    3  A    between atoms: C_22  and  O_23 
ROOT
HETATM    1  C   UNL     1      40.156 -13.238  -1.456  1.00  0.00     0.258 C 
HETATM    2  N   UNL     1      40.023 -13.568  -0.107  1.00  0.00    -0.340 N 
HETATM    3  C   UNL     1      39.490 -12.742   0.972  1.00  0.00     0.123 C 
HETATM    4  C   UNL     1      39.432 -13.691   2.205  1.00  0.00     0.221 C 
HETATM    5  N   UNL     1      40.177 -13.046   3.379  1.00  0.00    -0.064 N 
HETATM    6  H   UNL     1      40.146 -13.679   4.190  1.00  0.00     0.280 HD
HETATM    7  C   UNL     1      41.637 -12.697   3.123  1.00  0.00     0.236 C 
HETATM    8  C   UNL     1      41.727 -11.921   1.816  1.00  0.00     0.034 C 
HETATM    9  C   UNL     1      40.324 -11.495   1.352  1.00  0.00     0.014 C 
HETATM   10  C   UNL     1      39.621 -10.791   2.538  1.00  0.00     0.034 C 
HETATM   11  C   UNL     1      39.464 -11.743   3.733  1.00  0.00     0.236 C 
HETATM   12  C   UNL     1      39.879 -15.102   1.727  1.00  0.00     0.070 C 
HETATM   13  C   UNL     1      39.836 -14.977   0.198  1.00  0.00     0.138 C 
HETATM   14  O   UNL     1      40.707 -13.998  -2.245  1.00  0.00    -0.267 OA
ENDROOT
BRANCH   1  15
HETATM   15  C   UNL     1      39.497 -12.042  -1.905  1.00  0.00     0.089 C 
HETATM   16  C   UNL     1      38.168 -11.927  -2.393  1.00  0.00     0.076 C 
HETATM   17  C   UNL     1      37.170 -13.006  -2.593  1.00  0.00     0.074 C 
HETATM   18  N   UNL     1      37.871 -10.660  -2.697  1.00  0.00    -0.132 NA
HETATM   19  O   UNL     1      39.046  -9.950  -2.527  1.00  0.00    -0.217 OA
HETATM   20  C   UNL     1      40.027 -10.787  -2.092  1.00  0.00     0.092 C 
HETATM   21  C   UNL     1      41.359 -10.177  -1.925  1.00  0.00     0.080 C 
ENDBRANCH   1  15
BRANCH  12  22
HETATM   22  C   UNL     1      41.148 -15.704   2.292  1.00  0.00    -0.048 A 
HETATM   23  C   UNL     1      41.238 -16.210   3.602  1.00  0.00     0.044 A 
HETATM   24  C   UNL     1      42.433 -16.757   4.061  1.00  0.00     0.066 A 
HETATM   25  C   UNL     1      43.552 -16.816   3.242  1.00  0.00     0.036 A 
HETATM   26  C   UNL     1      43.488 -16.300   1.952  1.00  0.00     0.003 A 
HETATM   27  C   UNL     1      42.297 -15.743   1.479  1.00  0.00     0.008 A 
BRANCH  24  28
HETATM   28  O   UNL     1      42.540 -17.266   5.319  1.00  0.00    -0.361 OA
HETATM   29  H   UNL     1      42.682 -16.545   5.955  1.00  0.00     0.217 HD
ENDBRANCH  24  28
ENDBRANCH  12  22
TORSDOF 3
ENDMDL
MODEL 3
REMARK VINA RESULT:      -7.6     18.839     20.948
REMARK  3 active torsions:
REMARK  status: ('A' for Active; 'I' for Inactive)
REMARK    1  A    between atoms: C_7  and  C_8 
REMARK       I    between atoms: C_8  and  N_9 
REMARK    2  A    between atoms: C_19  and  C_20 
REMARK    3  A    between atoms: C_22  and  O_23 
ROOT
HETATM    1  C   UNL     1      44.545 -29.596  -1.375  1.00  0.00     0.258 C 
HETATM    2  N   UNL     1      45.811 -29.398  -0.822  1.00  0.00    -0.340 N 
HETATM    3  C   UNL     1      47.110 -29.634  -1.443  1.00  0.00     0.123 C 
HETATM    4  C   UNL     1      48.144 -29.076  -0.421  1.00  0.00     0.221 C 
HETATM    5  N   UNL     1      49.180 -30.161  -0.102  1.00  0.00    -0.064 N 
HETATM    6  H   UNL     1      49.857 -29.794   0.581  1.00  0.00     0.280 HD
HETATM    7  C   UNL     1      48.621 -31.462   0.458  1.00  0.00     0.236 C 
HETATM    8  C   UNL     1      47.480 -31.924  -0.439  1.00  0.00     0.034 C 
HETATM    9  C   UNL     1      47.466 -31.110  -1.744  1.00  0.00     0.014 C 
HETATM   10  C   UNL     1      48.890 -31.148  -2.348  1.00  0.00     0.034 C 
HETATM   11  C   UNL     1      49.912 -30.510  -1.395  1.00  0.00     0.236 C 
HETATM   12  C   UNL     1      47.343 -28.446   0.753  1.00  0.00     0.070 C 
HETATM   13  C   UNL     1      45.917 -28.361   0.192  1.00  0.00     0.138 C 
HETATM   14  O   UNL     1      43.528 -29.443  -0.708  1.00  0.00    -0.267 OA
ENDROOT
BRANCH   1  15
HETATM   15  C   UNL     1      44.482 -29.846  -2.790  1.00  0.00     0.089 C 
HETATM   16  C   UNL     1      44.263 -31.095  -3.430  1.00  0.00     0.076 C 
HETATM   17  C   UNL     1      44.091 -32.428  -2.802  1.00  0.00     0.074 C 
HETATM   18  N   UNL     1      44.237 -30.960  -4.759  1.00  0.00    -0.132 NA
HETATM   19  O   UNL     1      44.563 -29.639  -5.007  1.00  0.00    -0.217 OA
HETATM   20  C   UNL     1      44.748 -28.985  -3.828  1.00  0.00     0.092 C 
HETATM   21  C   UNL     1      45.162 -27.574  -3.939  1.00  0.00     0.080 C 
ENDBRANCH   1  15
BRANCH  12  22
HETATM   22  C   UNL     1      47.459 -29.053   2.135  1.00  0.00    -0.048 A 
HETATM   23  C   UNL     1      46.434 -29.817   2.724  1.00  0.00     0.044 A 
HETATM   24  C   UNL     1      46.605 -30.355   3.997  1.00  0.00     0.066 A 
HETATM   25  C   UNL     1      47.780 -30.152   4.706  1.00  0.00     0.036 A 
HETATM   26  C   UNL     1      48.795 -29.380   4.148  1.00  0.00     0.003 A 
HETATM   27  C   UNL     1      48.636 -28.830   2.875  1.00  0.00     0.008 A 
BRANCH  24  28
HETATM   28  O   UNL     1      45.634 -31.109   4.581  1.00  0.00    -0.361 OA
HETATM   29  H   UNL     1      45.863 -32.051   4.515  1.00  0.00     0.217 HD
ENDBRANCH  24  28
ENDBRANCH  12  22
TORSDOF 3
ENDMDL
MODEL 4
REMARK VINA RESULT:      -7.5      3.478      5.435
REMARK  3 active torsions:
REMARK  status: ('A' for Active; 'I' for Inactive)
REMARK    1  A    between atoms: C_7  and  C_8 
REMARK       I    between atoms: C_8  and  N_9 
REMARK    2  A    between atoms: C_19  and  C_20 
REMARK    3  A    between atoms: C_22  and  O_23 
ROOT
HETATM    1  C   UNL     1      42.747  -9.921  12.314  1.00  0.00     0.258 C 
HETATM    2  N   UNL     1      43.237  -9.418  11.108  1.00  0.00    -0.340 N 
HETATM    3  C   UNL     1      42.877  -8.172  10.441  1.00  0.00     0.123 C 
HETATM    4  C   UNL     1      43.863  -8.065   9.241  1.00  0.00     0.221 C 
HETATM    5  N   UNL     1      43.068  -7.864   7.945  1.00  0.00    -0.064 N 
HETATM    6  H   UNL     1      43.722  -7.804   7.152  1.00  0.00     0.280 HD
HETATM    7  C   UNL     1      42.049  -8.947   7.621  1.00  0.00     0.236 C 
HETATM    8  C   UNL     1      41.191  -9.189   8.856  1.00  0.00     0.034 C 
HETATM    9  C   UNL     1      41.431  -8.082   9.896  1.00  0.00     0.014 C 
HETATM   10  C   UNL     1      41.268  -6.716   9.187  1.00  0.00     0.034 C 
HETATM   11  C   UNL     1      42.300  -6.550   8.062  1.00  0.00     0.236 C 
HETATM   12  C   UNL     1      44.839  -9.273   9.333  1.00  0.00     0.070 C 
HETATM   13  C   UNL     1      44.592  -9.809  10.750  1.00  0.00     0.138 C 
HETATM   14  O   UNL     1      43.070 -11.032  12.718  1.00  0.00    -0.267 OA
ENDROOT
BRANCH   1  15
HETATM   15  C   UNL     1      41.963  -9.028  13.123  1.00  0.00     0.089 C 
HETATM   16  C   UNL     1      40.557  -9.066  13.325  1.00  0.00     0.076 C 
HETATM   17  C   UNL     1      39.571  -9.996  12.724  1.00  0.00     0.074 C 
HETATM   18  N   UNL     1      40.162  -8.101  14.162  1.00  0.00    -0.132 NA
HETATM   19  O   UNL     1      41.291  -7.345  14.419  1.00  0.00    -0.217 OA
HETATM   20  C   UNL     1      42.358  -7.878  13.765  1.00  0.00     0.092 C 
HETATM   21  C   UNL     1      43.625  -7.136  13.898  1.00  0.00     0.080 C 
ENDBRANCH   1  15
BRANCH  12  22
HETATM   22  C   UNL     1      44.826 -10.316   8.236  1.00  0.00    -0.048 A 
HETATM   23  C   UNL     1      45.617 -10.216   7.075  1.00  0.00     0.044 A 
HETATM   24  C   UNL     1      45.565 -11.214   6.105  1.00  0.00     0.066 A 
HETATM   25  C   UNL     1      44.741 -12.319   6.260  1.00  0.00     0.036 A 
HETATM   26  C   UNL     1      43.936 -12.423   7.390  1.00  0.00     0.003 A 
HETATM   27  C   UNL     1      43.973 -11.428   8.370  1.00  0.00     0.008 A 
BRANCH  24  28
HETATM   28  O   UNL     1      46.331 -11.146   4.981  1.00  0.00    -0.361 OA
HETATM   29  H   UNL     1      45.760 -11.084   4.197  1.00  0.00     0.217 HD
ENDBRANCH  24  28
ENDBRANCH  12  22
TORSDOF 3
ENDMDL
MODEL 5
REMARK VINA RESULT:      -7.5      4.320      7.067
REMARK  3 active torsions:
REMARK  status: ('A' for Active; 'I' for Inactive)
REMARK    1  A    between atoms: C_7  and  C_8 
REMARK       I    between atoms: C_8  and  N_9 
REMARK    2  A    between atoms: C_19  and  C_20 
REMARK    3  A    between atoms: C_22  and  O_23 
ROOT
HETATM    1  C   UNL     1      39.821 -13.648   0.185  1.00  0.00     0.258 C 
HETATM    2  N   UNL     1      40.196 -13.883   1.508  1.00  0.00    -0.340 N 
HETATM    3  C   UNL     1      40.451 -12.903   2.559  1.00  0.00     0.123 C 
HETATM    4  C   UNL     1      40.659 -13.750   3.849  1.00  0.00     0.221 C 
HETATM    5  N   UNL     1      41.992 -13.364   4.501  1.00  0.00    -0.064 N 
HETATM    6  H   UNL     1      42.132 -13.931   5.348  1.00  0.00     0.280 HD
HETATM    7  C   UNL     1      43.227 -13.528   3.626  1.00  0.00     0.236 C 
HETATM    8  C   UNL     1      42.963 -12.857   2.286  1.00  0.00     0.034 C 
HETATM    9  C   UNL     1      41.690 -11.997   2.362  1.00  0.00     0.014 C 
HETATM   10  C   UNL     1      41.810 -11.072   3.597  1.00  0.00     0.034 C 
HETATM   11  C   UNL     1      41.916 -11.890   4.893  1.00  0.00     0.236 C 
HETATM   12  C   UNL     1      40.422 -15.239   3.470  1.00  0.00     0.070 C 
HETATM   13  C   UNL     1      39.758 -15.142   2.089  1.00  0.00     0.138 C 
HETATM   14  O   UNL     1      39.727 -14.565  -0.623  1.00  0.00    -0.267 OA
ENDROOT
BRANCH   1  15
HETATM   15  C   UNL     1      39.413 -12.310  -0.150  1.00  0.00     0.089 C 
HETATM   16  C   UNL     1      40.083 -11.401  -1.012  1.00  0.00     0.076 C 
HETATM   17  C   UNL     1      41.367 -11.596  -1.728  1.00  0.00     0.074 C 
HETATM   18  N   UNL     1      39.410 -10.252  -1.121  1.00  0.00    -0.132 NA
HETATM   19  O   UNL     1      38.355 -10.351  -0.233  1.00  0.00    -0.217 OA
HETATM   20  C   UNL     1      38.382 -11.568   0.376  1.00  0.00     0.092 C 
HETATM   21  C   UNL     1      37.346 -11.794   1.399  1.00  0.00     0.080 C 
ENDBRANCH   1  15
BRANCH  12  22
HETATM   22  C   UNL     1      41.573 -16.217   3.567  1.00  0.00    -0.048 A 
HETATM   23  C   UNL     1      42.116 -16.640   4.795  1.00  0.00     0.044 A 
HETATM   24  C   UNL     1      43.172 -17.548   4.818  1.00  0.00     0.066 A 
HETATM   25  C   UNL     1      43.707 -18.051   3.640  1.00  0.00     0.036 A 
HETATM   26  C   UNL     1      43.197 -17.626   2.417  1.00  0.00     0.003 A 
HETATM   27  C   UNL     1      42.142 -16.712   2.378  1.00  0.00     0.008 A 
BRANCH  24  28
HETATM   28  O   UNL     1      43.704 -17.983   5.993  1.00  0.00    -0.361 OA
HETATM   29  H   UNL     1      44.214 -18.796   5.843  1.00  0.00     0.217 HD
ENDBRANCH  24  28
ENDBRANCH  12  22
TORSDOF 3
ENDMDL
MODEL 6
REMARK VINA RESULT:      -7.4      2.585      4.405
REMARK  3 active torsions:
REMARK  status: ('A' for Active; 'I' for Inactive)
REMARK    1  A    between atoms: C_7  and  C_8 
REMARK       I    between atoms: C_8  and  N_9 
REMARK    2  A    between atoms: C_19  and  C_20 
REMARK    3  A    between atoms: C_22  and  O_23 
ROOT
HETATM    1  C   UNL     1      42.606 -10.811   5.366  1.00  0.00     0.258 C 
HETATM    2  N   UNL     1      41.819 -11.954   5.221  1.00  0.00    -0.340 N 
HETATM    3  C   UNL     1      41.706 -13.090   6.130  1.00  0.00     0.123 C 
HETATM    4  C   UNL     1      40.563 -13.963   5.534  1.00  0.00     0.221 C 
HETATM    5  N   UNL     1      41.066 -15.399   5.344  1.00  0.00    -0.064 N 
HETATM    6  H   UNL     1      40.312 -15.972   4.941  1.00  0.00     0.280 HD
HETATM    7  C   UNL     1      42.292 -15.557   4.455  1.00  0.00     0.236 C 
HETATM    8  C   UNL     1      43.356 -14.572   4.919  1.00  0.00     0.034 C 
HETATM    9  C   UNL     1      42.969 -13.972   6.281  1.00  0.00     0.014 C 
HETATM   10  C   UNL     1      42.629 -15.138   7.239  1.00  0.00     0.034 C 
HETATM   11  C   UNL     1      41.437 -15.954   6.717  1.00  0.00     0.236 C 
HETATM   12  C   UNL     1      39.997 -13.206   4.299  1.00  0.00     0.070 C 
HETATM   13  C   UNL     1      40.594 -11.800   4.452  1.00  0.00     0.138 C 
HETATM   14  O   UNL     1      42.676  -9.969   4.478  1.00  0.00    -0.267 OA
ENDROOT
BRANCH   1  15
HETATM   15  C   UNL     1      43.215 -10.596   6.651  1.00  0.00     0.089 C 
HETATM   16  C   UNL     1      42.639  -9.945   7.774  1.00  0.00     0.076 C 
HETATM   17  C   UNL     1      41.306  -9.303   7.875  1.00  0.00     0.074 C 
HETATM   18  N   UNL     1      43.475  -9.946   8.816  1.00  0.00    -0.132 NA
HETATM   19  O   UNL     1      44.657 -10.490   8.346  1.00  0.00    -0.217 OA
HETATM   20  C   UNL     1      44.511 -10.840   7.040  1.00  0.00     0.092 C 
HETATM   21  C   UNL     1      45.716 -11.381   6.386  1.00  0.00     0.080 C 
ENDBRANCH   1  15
BRANCH  12  22
HETATM   22  C   UNL     1      40.142 -13.824   2.925  1.00  0.00    -0.048 A 
HETATM   23  C   UNL     1      40.715 -13.141   1.835  1.00  0.00     0.044 A 
HETATM   24  C   UNL     1      40.826 -13.768   0.597  1.00  0.00     0.066 A 
HETATM   25  C   UNL     1      40.379 -15.068   0.411  1.00  0.00     0.036 A 
HETATM   26  C   UNL     1      39.790 -15.750   1.472  1.00  0.00     0.003 A 
HETATM   27  C   UNL     1      39.667 -15.133   2.719  1.00  0.00     0.008 A 
BRANCH  24  28
HETATM   28  O   UNL     1      41.389 -13.133  -0.468  1.00  0.00    -0.361 OA
HETATM   29  H   UNL     1      42.287 -12.840  -0.240  1.00  0.00     0.217 HD
ENDBRANCH  24  28
ENDBRANCH  12  22
TORSDOF 3
ENDMDL
MODEL 7
REMARK VINA RESULT:      -7.3      3.379      5.361
REMARK  3 active torsions:
REMARK  status: ('A' for Active; 'I' for Inactive)
REMARK    1  A    between atoms: C_7  and  C_8 
REMARK       I    between atoms: C_8  and  N_9 
REMARK    2  A    between atoms: C_19  and  C_20 
REMARK    3  A    between atoms: C_22  and  O_23 
ROOT
HETATM    1  C   UNL     1      42.479  -9.524  12.319  1.00  0.00     0.258 C 
HETATM    2  N   UNL     1      43.031  -9.090  11.113  1.00  0.00    -0.340 N 
HETATM    3  C   UNL     1      42.681  -7.904  10.339  1.00  0.00     0.123 C 
HETATM    4  C   UNL     1      43.737  -7.851   9.197  1.00  0.00     0.221 C 
HETATM    5  N   UNL     1      43.021  -7.763   7.844  1.00  0.00    -0.064 N 
HETATM    6  H   UNL     1      43.721  -7.738   7.090  1.00  0.00     0.280 HD
HETATM    7  C   UNL     1      42.051  -8.896   7.536  1.00  0.00     0.236 C 
HETATM    8  C   UNL     1      41.125  -9.078   8.730  1.00  0.00     0.034 C 
HETATM    9  C   UNL     1      41.270  -7.895   9.702  1.00  0.00     0.014 C 
HETATM   10  C   UNL     1      41.117  -6.587   8.891  1.00  0.00     0.034 C 
HETATM   11  C   UNL     1      42.213  -6.468   7.821  1.00  0.00     0.236 C 
HETATM   12  C   UNL     1      44.736  -9.020   9.433  1.00  0.00     0.070 C 
HETATM   13  C   UNL     1      44.414  -9.464  10.866  1.00  0.00     0.138 C 
HETATM   14  O   UNL     1      42.805 -10.594  12.820  1.00  0.00    -0.267 OA
ENDROOT
BRANCH   1  15
HETATM   15  C   UNL     1      41.623  -8.601  13.015  1.00  0.00     0.089 C 
HETATM   16  C   UNL     1      42.023  -7.512  13.833  1.00  0.00     0.076 C 
HETATM   17  C   UNL     1      43.400  -7.097  14.195  1.00  0.00     0.074 C 
HETATM   18  N   UNL     1      40.965  -6.844  14.302  1.00  0.00    -0.132 NA
HETATM   19  O   UNL     1      39.857  -7.566  13.895  1.00  0.00    -0.217 OA
HETATM   20  C   UNL     1      40.255  -8.638  13.159  1.00  0.00     0.092 C 
HETATM   21  C   UNL     1      39.179  -9.537  12.706  1.00  0.00     0.080 C 
ENDBRANCH   1  15
BRANCH  12  22
HETATM   22  C   UNL     1      44.819 -10.136   8.413  1.00  0.00    -0.048 A 
HETATM   23  C   UNL     1      43.932 -11.229   8.401  1.00  0.00     0.044 A 
HETATM   24  C   UNL     1      44.057 -12.221   7.432  1.00  0.00     0.066 A 
HETATM   25  C   UNL     1      45.050 -12.154   6.464  1.00  0.00     0.036 A 
HETATM   26  C   UNL     1      45.949 -11.091   6.475  1.00  0.00     0.003 A 
HETATM   27  C   UNL     1      45.840 -10.092   7.444  1.00  0.00     0.008 A 
BRANCH  24  28
HETATM   28  O   UNL     1      43.203 -13.280   7.392  1.00  0.00    -0.361 OA
HETATM   29  H   UNL     1      42.645 -13.285   8.187  1.00  0.00     0.217 HD
ENDBRANCH  24  28
ENDBRANCH  12  22
TORSDOF 3
ENDMDL
MODEL 8
REMARK VINA RESULT:      -7.0     18.883     20.765
REMARK  3 active torsions:
REMARK  status: ('A' for Active; 'I' for Inactive)
REMARK    1  A    between atoms: C_7  and  C_8 
REMARK       I    between atoms: C_8  and  N_9 
REMARK    2  A    between atoms: C_19  and  C_20 
REMARK    3  A    between atoms: C_22  and  O_23 
ROOT
HETATM    1  C   UNL     1      45.927 -29.765   2.453  1.00  0.00     0.258 C 
HETATM    2  N   UNL     1      45.966 -30.403   1.213  1.00  0.00    -0.340 N 
HETATM    3  C   UNL     1      46.862 -31.469   0.777  1.00  0.00     0.123 C 
HETATM    4  C   UNL     1      46.325 -31.892  -0.621  1.00  0.00     0.221 C 
HETATM    5  N   UNL     1      47.466 -31.831  -1.644  1.00  0.00    -0.064 N 
HETATM    6  H   UNL     1      47.106 -32.101  -2.570  1.00  0.00     0.280 HD
HETATM    7  C   UNL     1      48.148 -30.478  -1.792  1.00  0.00     0.236 C 
HETATM    8  C   UNL     1      48.516 -29.968  -0.405  1.00  0.00     0.034 C 
HETATM    9  C   UNL     1      48.356 -31.090   0.635  1.00  0.00     0.014 C 
HETATM   10  C   UNL     1      49.120 -32.333   0.120  1.00  0.00     0.034 C 
HETATM   11  C   UNL     1      48.540 -32.826  -1.214  1.00  0.00     0.236 C 
HETATM   12  C   UNL     1      45.038 -31.063  -0.895  1.00  0.00     0.070 C 
HETATM   13  C   UNL     1      44.710 -30.471   0.483  1.00  0.00     0.138 C 
HETATM   14  O   UNL     1      45.179 -28.816   2.657  1.00  0.00    -0.267 OA
ENDROOT
BRANCH   1  15
HETATM   15  C   UNL     1      46.696 -30.354   3.515  1.00  0.00     0.089 C 
HETATM   16  C   UNL     1      46.295 -31.406   4.382  1.00  0.00     0.076 C 
HETATM   17  C   UNL     1      44.989 -32.109   4.424  1.00  0.00     0.074 C 
HETATM   18  N   UNL     1      47.269 -31.727   5.238  1.00  0.00    -0.132 NA
HETATM   19  O   UNL     1      48.275 -30.803   5.022  1.00  0.00    -0.217 OA
HETATM   20  C   UNL     1      47.913 -29.958   4.019  1.00  0.00     0.092 C 
HETATM   21  C   UNL     1      48.869 -28.877   3.718  1.00  0.00     0.080 C 
ENDBRANCH   1  15
BRANCH  12  22
HETATM   22  C   UNL     1      45.027 -30.075  -2.042  1.00  0.00    -0.048 A 
HETATM   23  C   UNL     1      44.802 -30.457  -3.378  1.00  0.00     0.044 A 
HETATM   24  C   UNL     1      44.798 -29.498  -4.388  1.00  0.00     0.066 A 
HETATM   25  C   UNL     1      45.012 -28.157  -4.102  1.00  0.00     0.036 A 
HETATM   26  C   UNL     1      45.257 -27.766  -2.789  1.00  0.00     0.003 A 
HETATM   27  C   UNL     1      45.270 -28.716  -1.766  1.00  0.00     0.008 A 
BRANCH  24  28
HETATM   28  O   UNL     1      44.570 -29.841  -5.686  1.00  0.00    -0.361 OA
HETATM   29  H   UNL     1      44.881 -29.133  -6.274  1.00  0.00     0.217 HD
ENDBRANCH  24  28
ENDBRANCH  12  22
TORSDOF 3
ENDMDL
MODEL 9
REMARK VINA RESULT:      -6.9     18.916     20.529
REMARK  3 active torsions:
REMARK  status: ('A' for Active; 'I' for Inactive)
REMARK    1  A    between atoms: C_7  and  C_8 
REMARK       I    between atoms: C_8  and  N_9 
REMARK    2  A    between atoms: C_19  and  C_20 
REMARK    3  A    between atoms: C_22  and  O_23 
ROOT
HETATM    1  C   UNL     1      48.718 -30.910   1.259  1.00  0.00     0.258 C 
HETATM    2  N   UNL     1      47.643 -30.114   0.862  1.00  0.00    -0.340 N 
HETATM    3  C   UNL     1      46.440 -29.784   1.619  1.00  0.00     0.123 C 
HETATM    4  C   UNL     1      45.695 -28.735   0.743  1.00  0.00     0.221 C 
HETATM    5  N   UNL     1      44.253 -29.200   0.508  1.00  0.00    -0.064 N 
HETATM    6  H   UNL     1      43.766 -28.510  -0.080  1.00  0.00     0.280 HD
HETATM    7  C   UNL     1      44.099 -30.562  -0.157  1.00  0.00     0.236 C 
HETATM    8  C   UNL     1      44.972 -31.564   0.586  1.00  0.00     0.034 C 
HETATM    9  C   UNL     1      45.472 -30.957   1.908  1.00  0.00     0.014 C 
HETATM   10  C   UNL     1      44.249 -30.394   2.670  1.00  0.00     0.034 C 
HETATM   11  C   UNL     1      43.557 -29.285   1.863  1.00  0.00     0.236 C 
HETATM   12  C   UNL     1      46.592 -28.442  -0.493  1.00  0.00     0.070 C 
HETATM   13  C   UNL     1      47.939 -29.061  -0.097  1.00  0.00     0.138 C 
HETATM   14  O   UNL     1      49.629 -31.181   0.485  1.00  0.00    -0.267 OA
ENDROOT
BRANCH   1  15
HETATM   15  C   UNL     1      48.781 -31.279   2.647  1.00  0.00     0.089 C 
HETATM   16  C   UNL     1      48.482 -32.548   3.212  1.00  0.00     0.076 C 
HETATM   17  C   UNL     1      48.001 -33.767   2.517  1.00  0.00     0.074 C 
HETATM   18  N   UNL     1      48.673 -32.547   4.534  1.00  0.00    -0.132 NA
HETATM   19  O   UNL     1      48.981 -31.240   4.866  1.00  0.00    -0.217 OA
HETATM   20  C   UNL     1      49.004 -30.475   3.741  1.00  0.00     0.092 C 
HETATM   21  C   UNL     1      49.261 -29.039   3.950  1.00  0.00     0.080 C 
ENDBRANCH   1  15
BRANCH  12  22
HETATM   22  C   UNL     1      46.090 -28.813  -1.872  1.00  0.00    -0.048 A 
HETATM   23  C   UNL     1      46.453 -30.007  -2.523  1.00  0.00     0.044 A 
HETATM   24  C   UNL     1      45.952 -30.294  -3.790  1.00  0.00     0.066 A 
HETATM   25  C   UNL     1      45.091 -29.416  -4.433  1.00  0.00     0.036 A 
HETATM   26  C   UNL     1      44.740 -28.220  -3.814  1.00  0.00     0.003 A 
HETATM   27  C   UNL     1      45.238 -27.916  -2.545  1.00  0.00     0.008 A 
BRANCH  24  28
HETATM   28  O   UNL     1      46.277 -31.448  -4.434  1.00  0.00    -0.361 OA
HETATM   29  H   UNL     1      45.947 -31.421  -5.347  1.00  0.00     0.217 HD
ENDBRANCH  24  28
ENDBRANCH  12  22
TORSDOF 3
ENDMDL
MODEL 10
REMARK VINA RESULT:      -6.8      2.732      6.699
REMARK  3 active torsions:
REMARK  status: ('A' for Active; 'I' for Inactive)
REMARK    1  A    between atoms: C_7  and  C_8 
REMARK       I    between atoms: C_8  and  N_9 
REMARK    2  A    between atoms: C_19  and  C_20 
REMARK    3  A    between atoms: C_22  and  O_23 
ROOT
HETATM    1  C   UNL     1      40.498 -14.797   5.905  1.00  0.00     0.258 C 
HETATM    2  N   UNL     1      40.476 -13.496   5.400  1.00  0.00    -0.340 N 
HETATM    3  C   UNL     1      41.335 -12.915   4.375  1.00  0.00     0.123 C 
HETATM    4  C   UNL     1      40.736 -11.503   4.109  1.00  0.00     0.221 C 
HETATM    5  N   UNL     1      41.836 -10.446   4.262  1.00  0.00    -0.064 N 
HETATM    6  H   UNL     1      41.435  -9.512   4.095  1.00  0.00     0.280 HD
HETATM    7  C   UNL     1      42.535 -10.412   5.614  1.00  0.00     0.236 C 
HETATM    8  C   UNL     1      42.967 -11.828   5.970  1.00  0.00     0.034 C 
HETATM    9  C   UNL     1      42.828 -12.751   4.747  1.00  0.00     0.014 C 
HETATM   10  C   UNL     1      43.550 -12.078   3.555  1.00  0.00     0.034 C 
HETATM   11  C   UNL     1      42.908 -10.725   3.212  1.00  0.00     0.236 C 
HETATM   12  C   UNL     1      39.453 -11.372   4.979  1.00  0.00     0.070 C 
HETATM   13  C   UNL     1      39.191 -12.816   5.426  1.00  0.00     0.138 C 
HETATM   14  O   UNL     1      39.775 -15.130   6.837  1.00  0.00    -0.267 OA
ENDROOT
BRANCH   1  15
HETATM   15  C   UNL     1      41.298 -15.759   5.197  1.00  0.00     0.089 C 
HETATM   16  C   UNL     1      42.515 -16.348   5.632  1.00  0.00     0.076 C 
HETATM   17  C   UNL     1      43.263 -16.084   6.886  1.00  0.00     0.074 C 
HETATM   18  N   UNL     1      42.977 -17.224   4.735  1.00  0.00    -0.132 NA
HETATM   19  O   UNL     1      42.130 -17.125   3.646  1.00  0.00    -0.217 OA
HETATM   20  C   UNL     1      41.151 -16.219   3.909  1.00  0.00     0.092 C 
HETATM   21  C   UNL     1      40.204 -15.964   2.809  1.00  0.00     0.080 C 
ENDBRANCH   1  15
BRANCH  12  22
HETATM   22  C   UNL     1      39.414 -10.336   6.082  1.00  0.00    -0.048 A 
HETATM   23  C   UNL     1      39.559 -10.662   7.444  1.00  0.00     0.044 A 
HETATM   24  C   UNL     1      39.520  -9.661   8.411  1.00  0.00     0.066 A 
HETATM   25  C   UNL     1      39.339  -8.331   8.056  1.00  0.00     0.036 A 
HETATM   26  C   UNL     1      39.172  -7.994   6.717  1.00  0.00     0.003 A 
HETATM   27  C   UNL     1      39.203  -8.987   5.736  1.00  0.00     0.008 A 
BRANCH  24  28
HETATM   28  O   UNL     1      39.672  -9.950   9.732  1.00  0.00    -0.361 OA
HETATM   29  H   UNL     1      40.513  -9.586  10.055  1.00  0.00     0.217 HD
ENDBRANCH  24  28
ENDBRANCH  12  22
TORSDOF 3
ENDMDL
