MODEL 1
REMARK VINA RESULT:      -8.4      0.000      0.000
REMARK  12 active torsions:
REMARK  status: ('A' for Active; 'I' for Inactive)
REMARK    1  A    between atoms: C_2  and  O_3 
REMARK    2  A    between atoms: O_3  and  C_4 
REMARK    3  A    between atoms: C_5  and  N_6 
REMARK    4  A    between atoms: C_7  and  S_8 
REMARK    5  A    between atoms: S_8  and  C_9 
REMARK    6  A    between atoms: C_9  and  C_10 
REMARK       I    between atoms: C_10  and  N_11 
REMARK    7  A    between atoms: N_11  and  C_12 
REMARK    8  A    between atoms: C_12  and  C_13 
REMARK    9  A    between atoms: C_13  and  C_14 
REMARK   10  A    between atoms: C_17  and  S_18 
REMARK   11  A    between atoms: S_18  and  N_19 
REMARK   12  A    between atoms: C_28  and  N_29 
ROOT
HETATM    1  N   UNL     1      41.279 -13.300   3.251  1.00  0.00    -0.273 N 
HETATM    2  C   UNL     1      41.896 -12.442   4.109  1.00  0.00     0.177 A 
HETATM    3  N   UNL     1      41.478 -11.188   4.396  1.00  0.00    -0.204 NA
HETATM    4  C   UNL     1      40.354 -10.882   3.747  1.00  0.00     0.162 A 
HETATM    5  C   UNL     1      39.644 -11.696   2.889  1.00  0.00     0.081 A 
HETATM    6  C   UNL     1      40.105 -12.997   2.631  1.00  0.00     0.124 A 
HETATM    7  N   UNL     1      39.682  -9.696   3.816  1.00  0.00    -0.260 N 
HETATM    8  H   UNL     1      39.925  -8.874   4.360  1.00  0.00     0.191 HD
HETATM    9  N   UNL     1      38.579  -9.670   3.056  1.00  0.00    -0.177 NA
HETATM   10  C   UNL     1      38.549 -10.877   2.477  1.00  0.00     0.068 A 
HETATM   11  C   UNL     1      37.455 -11.197   1.523  1.00  0.00     0.073 C 
ENDROOT
BRANCH   2  12
HETATM   12  S   UNL     1      43.379 -12.921   5.016  1.00  0.00    -0.082 SA
BRANCH  12  13
HETATM   13  C   UNL     1      43.152 -11.928   6.528  1.00  0.00     0.185 C 
BRANCH  13  14
HETATM   14  C   UNL     1      44.377 -11.098   6.909  1.00  0.00     0.227 C 
HETATM   15  N   UNL     1      44.049  -9.980   7.649  1.00  0.00    -0.360 N 
HETATM   16  H   UNL     1      43.074  -9.769   7.832  1.00  0.00     0.162 HD
HETATM   17  O   UNL     1      45.533 -11.406   6.625  1.00  0.00    -0.273 OA
BRANCH  15  18
HETATM   18  C   UNL     1      45.033  -9.143   8.316  1.00  0.00     0.127 C 
BRANCH  18  19
HETATM   19  C   UNL     1      45.432  -9.637   9.710  1.00  0.00     0.058 C 
BRANCH  19  20
HETATM   20  C   UNL     1      44.274  -9.537  10.678  1.00  0.00    -0.057 A 
HETATM   21  C   UNL     1      43.814 -10.671  11.366  1.00  0.00     0.009 A 
HETATM   22  C   UNL     1      42.699 -10.589  12.204  1.00  0.00     0.025 A 
HETATM   23  C   UNL     1      42.051  -9.364  12.373  1.00  0.00     0.074 A 
HETATM   24  C   UNL     1      42.504  -8.223  11.706  1.00  0.00     0.025 A 
HETATM   25  C   UNL     1      43.614  -8.312  10.865  1.00  0.00     0.009 A 
BRANCH  23  26
HETATM   26  S   UNL     1      40.587  -9.280  13.365  1.00  0.00     0.239 S 
HETATM   27  O   UNL     1      40.956  -8.982  14.728  1.00  0.00    -0.206 OA
HETATM   28  O   UNL     1      39.582  -8.530  12.651  1.00  0.00    -0.206 OA
BRANCH  26  29
HETATM   29  N   UNL     1      40.068 -10.876  13.364  1.00  0.00    -0.225 NA
HETATM   30  H   UNL     1      40.738 -11.455  13.873  1.00  0.00     0.136 HD
HETATM   31  H   UNL     1      39.120 -10.929  13.740  1.00  0.00     0.136 HD
ENDBRANCH  26  29
ENDBRANCH  23  26
ENDBRANCH  19  20
ENDBRANCH  18  19
ENDBRANCH  15  18
ENDBRANCH  13  14
ENDBRANCH  12  13
ENDBRANCH   2  12
BRANCH   1  32
HETATM   32  C   UNL     1      41.942 -14.518   2.880  1.00  0.00     0.076 A 
HETATM   33  C   UNL     1      41.591 -15.697   3.554  1.00  0.00     0.096 A 
HETATM   34  C   UNL     1      42.217 -16.886   3.188  1.00  0.00     0.039 A 
HETATM   35  C   UNL     1      43.211 -16.871   2.202  1.00  0.00     0.003 A 
HETATM   36  C   UNL     1      43.578 -15.676   1.572  1.00  0.00     0.002 A 
HETATM   37  C   UNL     1      42.944 -14.483   1.910  1.00  0.00     0.033 A 
BRANCH  33  38
HETATM   38  O   UNL     1      40.587 -15.638   4.483  1.00  0.00    -0.349 OA
BRANCH  38  39
HETATM   39  C   UNL     1      40.806 -16.436   5.656  1.00  0.00     0.171 C 
HETATM   40  C   UNL     1      41.435 -15.581   6.739  1.00  0.00     0.034 C 
ENDBRANCH  38  39
ENDBRANCH  33  38
ENDBRANCH   1  32
BRANCH   6  41
HETATM   41  N   UNL     1      39.431 -13.892   1.799  1.00  0.00    -0.384 N 
HETATM   42  H   UNL     1      38.888 -13.501   1.037  1.00  0.00     0.157 HD
HETATM   43  H   UNL     1      39.042 -14.743   2.187  1.00  0.00     0.157 HD
ENDBRANCH   6  41
TORSDOF 12
ENDMDL
MODEL 2
REMARK VINA RESULT:      -8.3      1.740      2.067
REMARK  12 active torsions:
REMARK  status: ('A' for Active; 'I' for Inactive)
REMARK    1  A    between atoms: C_2  and  O_3 
REMARK    2  A    between atoms: O_3  and  C_4 
REMARK    3  A    between atoms: C_5  and  N_6 
REMARK    4  A    between atoms: C_7  and  S_8 
REMARK    5  A    between atoms: S_8  and  C_9 
REMARK    6  A    between atoms: C_9  and  C_10 
REMARK       I    between atoms: C_10  and  N_11 
REMARK    7  A    between atoms: N_11  and  C_12 
REMARK    8  A    between atoms: C_12  and  C_13 
REMARK    9  A    between atoms: C_13  and  C_14 
REMARK   10  A    between atoms: C_17  and  S_18 
REMARK   11  A    between atoms: S_18  and  N_19 
REMARK   12  A    between atoms: C_28  and  N_29 
ROOT
HETATM    1  N   UNL     1      41.631 -13.148   2.111  1.00  0.00    -0.273 N 
HETATM    2  C   UNL     1      42.457 -12.131   2.478  1.00  0.00     0.177 A 
HETATM    3  N   UNL     1      42.328 -10.841   2.092  1.00  0.00    -0.204 NA
HETATM    4  C   UNL     1      41.262 -10.664   1.311  1.00  0.00     0.162 A 
HETATM    5  C   UNL     1      40.354 -11.625   0.917  1.00  0.00     0.081 A 
HETATM    6  C   UNL     1      40.517 -12.950   1.353  1.00  0.00     0.124 A 
HETATM    7  N   UNL     1      40.859  -9.486   0.753  1.00  0.00    -0.260 N 
HETATM    8  H   UNL     1      41.296  -8.574   0.841  1.00  0.00     0.191 HD
HETATM    9  N   UNL     1      39.749  -9.605   0.012  1.00  0.00    -0.177 NA
HETATM   10  C   UNL     1      39.436 -10.905   0.093  1.00  0.00     0.068 A 
HETATM   11  C   UNL     1      38.253 -11.414  -0.648  1.00  0.00     0.073 C 
ENDROOT
BRANCH   2  12
HETATM   12  S   UNL     1      43.849 -12.403   3.590  1.00  0.00    -0.082 SA
BRANCH  12  13
HETATM   13  C   UNL     1      43.482 -11.148   4.861  1.00  0.00     0.185 C 
BRANCH  13  14
HETATM   14  C   UNL     1      44.213 -11.376   6.183  1.00  0.00     0.227 C 
HETATM   15  N   UNL     1      45.496 -10.869   6.173  1.00  0.00    -0.360 N 
HETATM   16  H   UNL     1      45.863 -10.453   5.323  1.00  0.00     0.162 HD
HETATM   17  O   UNL     1      43.707 -11.916   7.165  1.00  0.00    -0.273 OA
BRANCH  15  18
HETATM   18  C   UNL     1      46.325 -10.763   7.362  1.00  0.00     0.127 C 
BRANCH  18  19
HETATM   19  C   UNL     1      46.271  -9.391   8.042  1.00  0.00     0.058 C 
BRANCH  19  20
HETATM   20  C   UNL     1      45.144  -9.325   9.049  1.00  0.00    -0.057 A 
HETATM   21  C   UNL     1      44.037  -8.490   8.833  1.00  0.00     0.009 A 
HETATM   22  C   UNL     1      43.033  -8.378   9.799  1.00  0.00     0.025 A 
HETATM   23  C   UNL     1      43.124  -9.118  10.979  1.00  0.00     0.074 A 
HETATM   24  C   UNL     1      44.214  -9.963  11.204  1.00  0.00     0.025 A 
HETATM   25  C   UNL     1      45.217 -10.067  10.238  1.00  0.00     0.009 A 
BRANCH  23  26
HETATM   26  S   UNL     1      41.898  -8.908  12.239  1.00  0.00     0.239 S 
HETATM   27  O   UNL     1      42.465  -9.273  13.515  1.00  0.00    -0.206 OA
HETATM   28  O   UNL     1      41.216  -7.655  12.022  1.00  0.00    -0.206 OA
BRANCH  26  29
HETATM   29  N   UNL     1      40.793 -10.114  11.861  1.00  0.00    -0.225 NA
HETATM   30  H   UNL     1      40.482 -10.576  12.717  1.00  0.00     0.136 HD
HETATM   31  H   UNL     1      40.028  -9.720  11.313  1.00  0.00     0.136 HD
ENDBRANCH  26  29
ENDBRANCH  23  26
ENDBRANCH  19  20
ENDBRANCH  18  19
ENDBRANCH  15  18
ENDBRANCH  13  14
ENDBRANCH  12  13
ENDBRANCH   2  12
BRANCH   1  32
HETATM   32  C   UNL     1      42.003 -14.500   2.421  1.00  0.00     0.076 A 
HETATM   33  C   UNL     1      41.437 -15.102   3.555  1.00  0.00     0.096 A 
HETATM   34  C   UNL     1      41.781 -16.418   3.852  1.00  0.00     0.039 A 
HETATM   35  C   UNL     1      42.713 -17.089   3.052  1.00  0.00     0.003 A 
HETATM   36  C   UNL     1      43.299 -16.457   1.949  1.00  0.00     0.002 A 
HETATM   37  C   UNL     1      42.949 -15.148   1.625  1.00  0.00     0.033 A 
BRANCH  33  38
HETATM   38  O   UNL     1      40.509 -14.393   4.269  1.00  0.00    -0.349 OA
BRANCH  38  39
HETATM   39  C   UNL     1      40.917 -14.037   5.598  1.00  0.00     0.171 C 
HETATM   40  C   UNL     1      40.187 -12.781   6.032  1.00  0.00     0.034 C 
ENDBRANCH  38  39
ENDBRANCH  33  38
ENDBRANCH   1  32
BRANCH   6  41
HETATM   41  N   UNL     1      39.629 -13.974   1.023  1.00  0.00    -0.384 N 
HETATM   42  H   UNL     1      40.013 -14.907   0.909  1.00  0.00     0.157 HD
HETATM   43  H   UNL     1      38.839 -13.779   0.418  1.00  0.00     0.157 HD
ENDBRANCH   6  41
TORSDOF 12
ENDMDL
MODEL 3
REMARK VINA RESULT:      -8.1      3.688      8.299
REMARK  12 active torsions:
REMARK  status: ('A' for Active; 'I' for Inactive)
REMARK    1  A    between atoms: C_2  and  O_3 
REMARK    2  A    between atoms: O_3  and  C_4 
REMARK    3  A    between atoms: C_5  and  N_6 
REMARK    4  A    between atoms: C_7  and  S_8 
REMARK    5  A    between atoms: S_8  and  C_9 
REMARK    6  A    between atoms: C_9  and  C_10 
REMARK       I    between atoms: C_10  and  N_11 
REMARK    7  A    between atoms: N_11  and  C_12 
REMARK    8  A    between atoms: C_12  and  C_13 
REMARK    9  A    between atoms: C_13  and  C_14 
REMARK   10  A    between atoms: C_17  and  S_18 
REMARK   11  A    between atoms: S_18  and  N_19 
REMARK   12  A    between atoms: C_28  and  N_29 
ROOT
HETATM    1  N   UNL     1      42.786 -11.270   6.208  1.00  0.00    -0.273 N 
HETATM    2  C   UNL     1      43.763 -11.764   5.399  1.00  0.00     0.177 A 
HETATM    3  N   UNL     1      45.090 -11.552   5.557  1.00  0.00    -0.204 NA
HETATM    4  C   UNL     1      45.346 -10.806   6.632  1.00  0.00     0.162 A 
HETATM    5  C   UNL     1      44.427 -10.294   7.524  1.00  0.00     0.081 A 
HETATM    6  C   UNL     1      43.059 -10.550   7.331  1.00  0.00     0.124 A 
HETATM    7  N   UNL     1      46.579 -10.411   7.063  1.00  0.00    -0.260 N 
HETATM    8  H   UNL     1      47.480 -10.616   6.643  1.00  0.00     0.191 HD
HETATM    9  N   UNL     1      46.535  -9.666   8.176  1.00  0.00    -0.177 NA
HETATM   10  C   UNL     1      45.230  -9.577   8.462  1.00  0.00     0.068 A 
HETATM   11  C   UNL     1      44.799  -8.781   9.640  1.00  0.00     0.073 C 
ENDROOT
BRANCH   2  12
HETATM   12  S   UNL     1      43.376 -12.824   3.993  1.00  0.00    -0.082 SA
BRANCH  12  13
HETATM   13  C   UNL     1      42.827 -11.562   2.796  1.00  0.00     0.185 C 
BRANCH  13  14
HETATM   14  C   UNL     1      41.567 -11.951   2.024  1.00  0.00     0.227 C 
HETATM   15  N   UNL     1      41.457 -13.314   1.843  1.00  0.00    -0.360 N 
HETATM   16  H   UNL     1      42.200 -13.924   2.166  1.00  0.00     0.162 HD
HETATM   17  O   UNL     1      40.721 -11.147   1.638  1.00  0.00    -0.273 OA
BRANCH  15  18
HETATM   18  C   UNL     1      40.258 -13.961   1.333  1.00  0.00     0.127 C 
BRANCH  18  19
HETATM   19  C   UNL     1      40.312 -15.492   1.364  1.00  0.00     0.058 C 
BRANCH  19  20
HETATM   20  C   UNL     1      41.069 -15.988   2.577  1.00  0.00    -0.057 A 
HETATM   21  C   UNL     1      40.534 -15.842   3.866  1.00  0.00     0.009 A 
HETATM   22  C   UNL     1      41.266 -16.237   4.988  1.00  0.00     0.025 A 
HETATM   23  C   UNL     1      42.534 -16.799   4.822  1.00  0.00     0.074 A 
HETATM   24  C   UNL     1      43.076 -16.963   3.545  1.00  0.00     0.025 A 
HETATM   25  C   UNL     1      42.341 -16.561   2.428  1.00  0.00     0.009 A 
BRANCH  23  26
HETATM   26  S   UNL     1      43.497 -17.217   6.248  1.00  0.00     0.239 S 
HETATM   27  O   UNL     1      43.386 -18.635   6.494  1.00  0.00    -0.206 OA
HETATM   28  O   UNL     1      44.769 -16.541   6.166  1.00  0.00    -0.206 OA
BRANCH  26  29
HETATM   29  N   UNL     1      42.645 -16.464   7.483  1.00  0.00    -0.225 NA
HETATM   30  H   UNL     1      41.750 -16.937   7.621  1.00  0.00     0.136 HD
HETATM   31  H   UNL     1      43.219 -16.432   8.326  1.00  0.00     0.136 HD
ENDBRANCH  26  29
ENDBRANCH  23  26
ENDBRANCH  19  20
ENDBRANCH  18  19
ENDBRANCH  15  18
ENDBRANCH  13  14
ENDBRANCH  12  13
ENDBRANCH   2  12
BRANCH   1  32
HETATM   32  C   UNL     1      41.414 -11.397   5.806  1.00  0.00     0.076 A 
HETATM   33  C   UNL     1      40.767 -10.268   5.282  1.00  0.00     0.096 A 
HETATM   34  C   UNL     1      39.441 -10.388   4.875  1.00  0.00     0.039 A 
HETATM   35  C   UNL     1      38.771 -11.605   5.044  1.00  0.00     0.003 A 
HETATM   36  C   UNL     1      39.421 -12.709   5.609  1.00  0.00     0.002 A 
HETATM   37  C   UNL     1      40.754 -12.612   6.000  1.00  0.00     0.033 A 
BRANCH  33  38
HETATM   38  O   UNL     1      41.498  -9.122   5.117  1.00  0.00    -0.349 OA
BRANCH  38  39
HETATM   39  C   UNL     1      40.798  -7.911   5.442  1.00  0.00     0.171 C 
HETATM   40  C   UNL     1      41.694  -7.017   6.277  1.00  0.00     0.034 C 
ENDBRANCH  38  39
ENDBRANCH  33  38
ENDBRANCH   1  32
BRANCH   6  41
HETATM   41  N   UNL     1      42.069 -10.093   8.200  1.00  0.00    -0.384 N 
HETATM   42  H   UNL     1      41.613 -10.779   8.791  1.00  0.00     0.157 HD
HETATM   43  H   UNL     1      41.466  -9.328   7.917  1.00  0.00     0.157 HD
ENDBRANCH   6  41
TORSDOF 12
ENDMDL
MODEL 4
REMARK VINA RESULT:      -7.9      1.706      3.700
REMARK  12 active torsions:
REMARK  status: ('A' for Active; 'I' for Inactive)
REMARK    1  A    between atoms: C_2  and  O_3 
REMARK    2  A    between atoms: O_3  and  C_4 
REMARK    3  A    between atoms: C_5  and  N_6 
REMARK    4  A    between atoms: C_7  and  S_8 
REMARK    5  A    between atoms: S_8  and  C_9 
REMARK    6  A    between atoms: C_9  and  C_10 
REMARK       I    between atoms: C_10  and  N_11 
REMARK    7  A    between atoms: N_11  and  C_12 
REMARK    8  A    between atoms: C_12  and  C_13 
REMARK    9  A    between atoms: C_13  and  C_14 
REMARK   10  A    between atoms: C_17  and  S_18 
REMARK   11  A    between atoms: S_18  and  N_19 
REMARK   12  A    between atoms: C_28  and  N_29 
ROOT
HETATM    1  N   UNL     1      40.982 -12.476   3.567  1.00  0.00    -0.273 N 
HETATM    2  C   UNL     1      42.314 -12.204   3.514  1.00  0.00     0.177 A 
HETATM    3  N   UNL     1      43.240 -12.949   2.868  1.00  0.00    -0.204 NA
HETATM    4  C   UNL     1      42.688 -13.995   2.251  1.00  0.00     0.162 A 
HETATM    5  C   UNL     1      41.350 -14.328   2.221  1.00  0.00     0.081 A 
HETATM    6  C   UNL     1      40.420 -13.518   2.894  1.00  0.00     0.124 A 
HETATM    7  N   UNL     1      43.348 -14.938   1.519  1.00  0.00    -0.260 N 
HETATM    8  H   UNL     1      44.344 -14.996   1.331  1.00  0.00     0.191 HD
HETATM    9  N   UNL     1      42.536 -15.877   1.013  1.00  0.00    -0.177 NA
HETATM   10  C   UNL     1      41.318 -15.524   1.441  1.00  0.00     0.068 A 
HETATM   11  C   UNL     1      40.151 -16.374   1.088  1.00  0.00     0.073 C 
ENDROOT
BRANCH   2  12
HETATM   12  S   UNL     1      43.009 -10.742   4.309  1.00  0.00    -0.082 SA
BRANCH  12  13
HETATM   13  C   UNL     1      43.792 -11.520   5.760  1.00  0.00     0.185 C 
BRANCH  13  14
HETATM   14  C   UNL     1      43.768 -10.649   7.015  1.00  0.00     0.227 C 
HETATM   15  N   UNL     1      45.026 -10.221   7.387  1.00  0.00    -0.360 N 
HETATM   16  H   UNL     1      45.836 -10.538   6.866  1.00  0.00     0.162 HD
HETATM   17  O   UNL     1      42.741 -10.330   7.611  1.00  0.00    -0.273 OA
BRANCH  15  18
HETATM   18  C   UNL     1      45.261  -9.216   8.410  1.00  0.00     0.127 C 
BRANCH  18  19
HETATM   19  C   UNL     1      45.553  -9.792   9.799  1.00  0.00     0.058 C 
BRANCH  19  20
HETATM   20  C   UNL     1      44.356  -9.651  10.713  1.00  0.00    -0.057 A 
HETATM   21  C   UNL     1      43.955 -10.713  11.538  1.00  0.00     0.009 A 
HETATM   22  C   UNL     1      42.807 -10.603  12.328  1.00  0.00     0.025 A 
HETATM   23  C   UNL     1      42.066  -9.420  12.309  1.00  0.00     0.074 A 
HETATM   24  C   UNL     1      42.459  -8.349  11.502  1.00  0.00     0.025 A 
HETATM   25  C   UNL     1      43.603  -8.466  10.711  1.00  0.00     0.009 A 
BRANCH  23  26
HETATM   26  S   UNL     1      40.565  -9.314  13.241  1.00  0.00     0.239 S 
HETATM   27  O   UNL     1      40.882  -8.995  14.613  1.00  0.00    -0.206 OA
HETATM   28  O   UNL     1      39.592  -8.573  12.476  1.00  0.00    -0.206 OA
BRANCH  26  29
HETATM   29  N   UNL     1      40.039 -10.908  13.246  1.00  0.00    -0.225 NA
HETATM   30  H   UNL     1      39.021 -10.935  13.168  1.00  0.00     0.136 HD
HETATM   31  H   UNL     1      40.516 -11.429  12.509  1.00  0.00     0.136 HD
ENDBRANCH  26  29
ENDBRANCH  23  26
ENDBRANCH  19  20
ENDBRANCH  18  19
ENDBRANCH  15  18
ENDBRANCH  13  14
ENDBRANCH  12  13
ENDBRANCH   2  12
BRANCH   1  32
HETATM   32  C   UNL     1      40.147 -11.722   4.459  1.00  0.00     0.076 A 
HETATM   33  C   UNL     1      40.070 -12.128   5.799  1.00  0.00     0.096 A 
HETATM   34  C   UNL     1      39.275 -11.392   6.674  1.00  0.00     0.039 A 
HETATM   35  C   UNL     1      38.537 -10.305   6.193  1.00  0.00     0.003 A 
HETATM   36  C   UNL     1      38.594  -9.941   4.842  1.00  0.00     0.002 A 
HETATM   37  C   UNL     1      39.402 -10.653   3.959  1.00  0.00     0.033 A 
BRANCH  33  38
HETATM   38  O   UNL     1      40.846 -13.181   6.203  1.00  0.00    -0.349 OA
BRANCH  38  39
HETATM   39  C   UNL     1      40.148 -14.429   6.329  1.00  0.00     0.171 C 
HETATM   40  C   UNL     1      41.136 -15.531   6.658  1.00  0.00     0.034 C 
ENDBRANCH  38  39
ENDBRANCH  33  38
ENDBRANCH   1  32
BRANCH   6  41
HETATM   41  N   UNL     1      39.048 -13.769   2.889  1.00  0.00    -0.384 N 
HETATM   42  H   UNL     1      38.455 -13.116   2.388  1.00  0.00     0.157 HD
HETATM   43  H   UNL     1      38.610 -14.178   3.707  1.00  0.00     0.157 HD
ENDBRANCH   6  41
TORSDOF 12
ENDMDL
MODEL 5
REMARK VINA RESULT:      -7.9      3.744      8.088
REMARK  12 active torsions:
REMARK  status: ('A' for Active; 'I' for Inactive)
REMARK    1  A    between atoms: C_2  and  O_3 
REMARK    2  A    between atoms: O_3  and  C_4 
REMARK    3  A    between atoms: C_5  and  N_6 
REMARK    4  A    between atoms: C_7  and  S_8 
REMARK    5  A    between atoms: S_8  and  C_9 
REMARK    6  A    between atoms: C_9  and  C_10 
REMARK       I    between atoms: C_10  and  N_11 
REMARK    7  A    between atoms: N_11  and  C_12 
REMARK    8  A    between atoms: C_12  and  C_13 
REMARK    9  A    between atoms: C_13  and  C_14 
REMARK   10  A    between atoms: C_17  and  S_18 
REMARK   11  A    between atoms: S_18  and  N_19 
REMARK   12  A    between atoms: C_28  and  N_29 
ROOT
HETATM    1  N   UNL     1      42.066 -10.474   5.656  1.00  0.00    -0.273 N 
HETATM    2  C   UNL     1      42.024 -10.155   4.333  1.00  0.00     0.177 A 
HETATM    3  N   UNL     1      41.471  -9.033   3.817  1.00  0.00    -0.204 NA
HETATM    4  C   UNL     1      40.979  -8.242   4.772  1.00  0.00     0.162 A 
HETATM    5  C   UNL     1      41.007  -8.467   6.132  1.00  0.00     0.081 A 
HETATM    6  C   UNL     1      41.605  -9.638   6.626  1.00  0.00     0.124 A 
HETATM    7  N   UNL     1      40.354  -7.043   4.580  1.00  0.00    -0.260 N 
HETATM    8  H   UNL     1      40.167  -6.572   3.701  1.00  0.00     0.191 HD
HETATM    9  N   UNL     1      39.962  -6.465   5.724  1.00  0.00    -0.177 NA
HETATM   10  C   UNL     1      40.343  -7.326   6.677  1.00  0.00     0.068 A 
HETATM   11  C   UNL     1      40.037  -7.017   8.098  1.00  0.00     0.073 C 
ENDROOT
BRANCH   2  12
HETATM   12  S   UNL     1      42.760 -11.223   3.082  1.00  0.00    -0.082 SA
BRANCH  12  13
HETATM   13  C   UNL     1      41.795 -10.705   1.625  1.00  0.00     0.185 C 
BRANCH  13  14
HETATM   14  C   UNL     1      40.852 -11.784   1.094  1.00  0.00     0.227 C 
HETATM   15  N   UNL     1      40.749 -12.863   1.947  1.00  0.00    -0.360 N 
HETATM   16  H   UNL     1      41.312 -12.891   2.790  1.00  0.00     0.162 HD
HETATM   17  O   UNL     1      40.221 -11.689   0.043  1.00  0.00    -0.273 OA
BRANCH  15  18
HETATM   18  C   UNL     1      39.764 -13.921   1.786  1.00  0.00     0.127 C 
BRANCH  18  19
HETATM   19  C   UNL     1      40.317 -15.199   1.149  1.00  0.00     0.058 C 
BRANCH  19  20
HETATM   20  C   UNL     1      41.231 -15.935   2.104  1.00  0.00    -0.057 A 
HETATM   21  C   UNL     1      40.832 -16.192   3.425  1.00  0.00     0.009 A 
HETATM   22  C   UNL     1      41.707 -16.808   4.323  1.00  0.00     0.025 A 
HETATM   23  C   UNL     1      42.981 -17.189   3.896  1.00  0.00     0.074 A 
HETATM   24  C   UNL     1      43.388 -16.952   2.581  1.00  0.00     0.025 A 
HETATM   25  C   UNL     1      42.512 -16.331   1.690  1.00  0.00     0.009 A 
BRANCH  23  26
HETATM   26  S   UNL     1      44.119 -17.889   5.058  1.00  0.00     0.239 S 
HETATM   27  O   UNL     1      44.565 -19.171   4.568  1.00  0.00    -0.206 OA
HETATM   28  O   UNL     1      45.034 -16.861   5.491  1.00  0.00    -0.206 OA
BRANCH  26  29
HETATM   29  N   UNL     1      43.126 -18.215   6.372  1.00  0.00    -0.225 NA
HETATM   30  H   UNL     1      42.219 -17.764   6.238  1.00  0.00     0.136 HD
HETATM   31  H   UNL     1      43.059 -19.224   6.509  1.00  0.00     0.136 HD
ENDBRANCH  26  29
ENDBRANCH  23  26
ENDBRANCH  19  20
ENDBRANCH  18  19
ENDBRANCH  15  18
ENDBRANCH  13  14
ENDBRANCH  12  13
ENDBRANCH   2  12
BRANCH   1  32
HETATM   32  C   UNL     1      42.492 -11.788   6.046  1.00  0.00     0.076 A 
HETATM   33  C   UNL     1      43.825 -11.963   6.445  1.00  0.00     0.096 A 
HETATM   34  C   UNL     1      44.242 -13.231   6.841  1.00  0.00     0.039 A 
HETATM   35  C   UNL     1      43.346 -14.305   6.784  1.00  0.00     0.003 A 
HETATM   36  C   UNL     1      42.032 -14.119   6.341  1.00  0.00     0.002 A 
HETATM   37  C   UNL     1      41.593 -12.852   5.964  1.00  0.00     0.033 A 
BRANCH  33  38
HETATM   38  O   UNL     1      44.633 -10.859   6.507  1.00  0.00    -0.349 OA
BRANCH  38  39
HETATM   39  C   UNL     1      45.595 -10.878   7.573  1.00  0.00     0.171 C 
HETATM   40  C   UNL     1      45.623  -9.523   8.254  1.00  0.00     0.034 C 
ENDBRANCH  38  39
ENDBRANCH  33  38
ENDBRANCH   1  32
BRANCH   6  41
HETATM   41  N   UNL     1      41.699  -9.927   7.988  1.00  0.00    -0.384 N 
HETATM   42  H   UNL     1      40.900 -10.371   8.428  1.00  0.00     0.157 HD
HETATM   43  H   UNL     1      42.210  -9.301   8.600  1.00  0.00     0.157 HD
ENDBRANCH   6  41
TORSDOF 12
ENDMDL
MODEL 6
REMARK VINA RESULT:      -7.8     18.835     19.998
REMARK  12 active torsions:
REMARK  status: ('A' for Active; 'I' for Inactive)
REMARK    1  A    between atoms: C_2  and  O_3 
REMARK    2  A    between atoms: O_3  and  C_4 
REMARK    3  A    between atoms: C_5  and  N_6 
REMARK    4  A    between atoms: C_7  and  S_8 
REMARK    5  A    between atoms: S_8  and  C_9 
REMARK    6  A    between atoms: C_9  and  C_10 
REMARK       I    between atoms: C_10  and  N_11 
REMARK    7  A    between atoms: N_11  and  C_12 
REMARK    8  A    between atoms: C_12  and  C_13 
REMARK    9  A    between atoms: C_13  and  C_14 
REMARK   10  A    between atoms: C_17  and  S_18 
REMARK   11  A    between atoms: S_18  and  N_19 
REMARK   12  A    between atoms: C_28  and  N_29 
ROOT
HETATM    1  N   UNL     1      45.901 -29.273   0.520  1.00  0.00    -0.273 N 
HETATM    2  C   UNL     1      44.803 -29.618   1.247  1.00  0.00     0.177 A 
HETATM    3  N   UNL     1      44.811 -29.978   2.551  1.00  0.00    -0.204 NA
HETATM    4  C   UNL     1      46.040 -29.934   3.068  1.00  0.00     0.162 A 
HETATM    5  C   UNL     1      47.200 -29.565   2.418  1.00  0.00     0.081 A 
HETATM    6  C   UNL     1      47.144 -29.184   1.068  1.00  0.00     0.124 A 
HETATM    7  N   UNL     1      46.385 -30.243   4.351  1.00  0.00    -0.260 N 
HETATM    8  H   UNL     1      45.776 -30.549   5.103  1.00  0.00     0.191 HD
HETATM    9  N   UNL     1      47.697 -30.109   4.592  1.00  0.00    -0.177 NA
HETATM   10  C   UNL     1      48.207 -29.707   3.421  1.00  0.00     0.068 A 
HETATM   11  C   UNL     1      49.672 -29.484   3.306  1.00  0.00     0.073 C 
ENDROOT
BRANCH   2  12
HETATM   12  S   UNL     1      43.151 -29.600   0.526  1.00  0.00    -0.082 SA
BRANCH  12  13
HETATM   13  C   UNL     1      42.578 -31.258   1.022  1.00  0.00     0.185 C 
BRANCH  13  14
HETATM   14  C   UNL     1      41.376 -31.238   1.965  1.00  0.00     0.227 C 
HETATM   15  N   UNL     1      41.738 -31.040   3.281  1.00  0.00    -0.360 N 
HETATM   16  H   UNL     1      42.720 -30.978   3.526  1.00  0.00     0.162 HD
HETATM   17  O   UNL     1      40.208 -31.348   1.594  1.00  0.00    -0.273 OA
BRANCH  15  18
HETATM   18  C   UNL     1      40.783 -30.768   4.343  1.00  0.00     0.127 C 
BRANCH  18  19
HETATM   19  C   UNL     1      40.356 -32.009   5.133  1.00  0.00     0.058 C 
BRANCH  19  20
HETATM   20  C   UNL     1      40.920 -31.985   6.537  1.00  0.00    -0.057 A 
HETATM   21  C   UNL     1      40.125 -32.347   7.636  1.00  0.00     0.009 A 
HETATM   22  C   UNL     1      40.628 -32.256   8.936  1.00  0.00     0.025 A 
HETATM   23  C   UNL     1      41.939 -31.819   9.141  1.00  0.00     0.074 A 
HETATM   24  C   UNL     1      42.746 -31.467   8.057  1.00  0.00     0.025 A 
HETATM   25  C   UNL     1      42.237 -31.555   6.760  1.00  0.00     0.009 A 
BRANCH  23  26
HETATM   26  S   UNL     1      42.545 -31.619  10.792  1.00  0.00     0.239 S 
HETATM   27  O   UNL     1      41.519 -32.021  11.724  1.00  0.00    -0.206 OA
HETATM   28  O   UNL     1      43.895 -32.125  10.858  1.00  0.00    -0.206 OA
BRANCH  26  29
HETATM   29  N   UNL     1      42.664 -29.950  10.925  1.00  0.00    -0.225 NA
HETATM   30  H   UNL     1      42.344 -29.513  10.059  1.00  0.00     0.136 HD
HETATM   31  H   UNL     1      42.154 -29.634  11.750  1.00  0.00     0.136 HD
ENDBRANCH  26  29
ENDBRANCH  23  26
ENDBRANCH  19  20
ENDBRANCH  18  19
ENDBRANCH  15  18
ENDBRANCH  13  14
ENDBRANCH  12  13
ENDBRANCH   2  12
BRANCH   1  32
HETATM   32  C   UNL     1      45.779 -29.118  -0.902  1.00  0.00     0.076 A 
HETATM   33  C   UNL     1      46.181 -30.180  -1.724  1.00  0.00     0.096 A 
HETATM   34  C   UNL     1      46.050 -30.043  -3.103  1.00  0.00     0.039 A 
HETATM   35  C   UNL     1      45.573 -28.841  -3.638  1.00  0.00     0.003 A 
HETATM   36  C   UNL     1      45.217 -27.776  -2.803  1.00  0.00     0.002 A 
HETATM   37  C   UNL     1      45.320 -27.905  -1.420  1.00  0.00     0.033 A 
BRANCH  33  38
HETATM   38  O   UNL     1      46.606 -31.336  -1.126  1.00  0.00    -0.349 OA
BRANCH  38  39
HETATM   39  C   UNL     1      45.637 -32.396  -1.110  1.00  0.00     0.171 C 
HETATM   40  C   UNL     1      45.713 -33.131   0.214  1.00  0.00     0.034 C 
ENDBRANCH  38  39
ENDBRANCH  33  38
ENDBRANCH   1  32
BRANCH   6  41
HETATM   41  N   UNL     1      48.265 -28.771   0.347  1.00  0.00    -0.384 N 
HETATM   42  H   UNL     1      48.907 -28.134   0.807  1.00  0.00     0.157 HD
HETATM   43  H   UNL     1      48.195 -28.633  -0.655  1.00  0.00     0.157 HD
ENDBRANCH   6  41
TORSDOF 12
ENDMDL
MODEL 7
REMARK VINA RESULT:      -7.6      6.365     10.660
REMARK  12 active torsions:
REMARK  status: ('A' for Active; 'I' for Inactive)
REMARK    1  A    between atoms: C_2  and  O_3 
REMARK    2  A    between atoms: O_3  and  C_4 
REMARK    3  A    between atoms: C_5  and  N_6 
REMARK    4  A    between atoms: C_7  and  S_8 
REMARK    5  A    between atoms: S_8  and  C_9 
REMARK    6  A    between atoms: C_9  and  C_10 
REMARK       I    between atoms: C_10  and  N_11 
REMARK    7  A    between atoms: N_11  and  C_12 
REMARK    8  A    between atoms: C_12  and  C_13 
REMARK    9  A    between atoms: C_13  and  C_14 
REMARK   10  A    between atoms: C_17  and  S_18 
REMARK   11  A    between atoms: S_18  and  N_19 
REMARK   12  A    between atoms: C_28  and  N_29 
ROOT
HETATM    1  N   UNL     1      38.547  -5.614  11.768  1.00  0.00    -0.273 N 
HETATM    2  C   UNL     1      38.312  -6.065  13.030  1.00  0.00     0.177 A 
HETATM    3  N   UNL     1      38.471  -7.342  13.447  1.00  0.00    -0.204 NA
HETATM    4  C   UNL     1      38.918  -8.128  12.466  1.00  0.00     0.162 A 
HETATM    5  C   UNL     1      39.214  -7.753  11.173  1.00  0.00     0.081 A 
HETATM    6  C   UNL     1      39.049  -6.413  10.786  1.00  0.00     0.124 A 
HETATM    7  N   UNL     1      39.175  -9.465  12.561  1.00  0.00    -0.260 N 
HETATM    8  H   UNL     1      39.069 -10.063  13.374  1.00  0.00     0.191 HD
HETATM    9  N   UNL     1      39.616 -10.000  11.413  1.00  0.00    -0.177 NA
HETATM   10  C   UNL     1      39.635  -8.971  10.557  1.00  0.00     0.068 A 
HETATM   11  C   UNL     1      40.051  -9.207   9.150  1.00  0.00     0.073 C 
ENDROOT
BRANCH   2  12
HETATM   12  S   UNL     1      37.771  -4.953  14.342  1.00  0.00    -0.082 SA
BRANCH  12  13
HETATM   13  C   UNL     1      38.840  -5.534  15.701  1.00  0.00     0.185 C 
BRANCH  13  14
HETATM   14  C   UNL     1      40.319  -5.617  15.330  1.00  0.00     0.227 C 
HETATM   15  N   UNL     1      40.837  -6.885  15.498  1.00  0.00    -0.360 N 
HETATM   16  H   UNL     1      40.251  -7.618  15.883  1.00  0.00     0.162 HD
HETATM   17  O   UNL     1      40.973  -4.672  14.892  1.00  0.00    -0.273 OA
BRANCH  15  18
HETATM   18  C   UNL     1      42.150  -7.285  15.020  1.00  0.00     0.127 C 
BRANCH  18  19
HETATM   19  C   UNL     1      42.174  -8.648  14.322  1.00  0.00     0.058 C 
BRANCH  19  20
HETATM   20  C   UNL     1      42.668  -8.525  12.897  1.00  0.00    -0.057 A 
HETATM   21  C   UNL     1      42.568  -7.308  12.205  1.00  0.00     0.009 A 
HETATM   22  C   UNL     1      42.960  -7.217  10.868  1.00  0.00     0.025 A 
HETATM   23  C   UNL     1      43.473  -8.342  10.221  1.00  0.00     0.074 A 
HETATM   24  C   UNL     1      43.591  -9.558  10.898  1.00  0.00     0.025 A 
HETATM   25  C   UNL     1      43.193  -9.645  12.233  1.00  0.00     0.009 A 
BRANCH  23  26
HETATM   26  S   UNL     1      43.887  -8.249   8.501  1.00  0.00     0.239 S 
HETATM   27  O   UNL     1      45.269  -7.854   8.369  1.00  0.00    -0.206 OA
HETATM   28  O   UNL     1      43.340  -9.402   7.827  1.00  0.00    -0.206 OA
BRANCH  26  29
HETATM   29  N   UNL     1      42.978  -6.933   7.991  1.00  0.00    -0.225 NA
HETATM   30  H   UNL     1      42.450  -6.554   8.779  1.00  0.00     0.136 HD
HETATM   31  H   UNL     1      43.588  -6.247   7.545  1.00  0.00     0.136 HD
ENDBRANCH  26  29
ENDBRANCH  23  26
ENDBRANCH  19  20
ENDBRANCH  18  19
ENDBRANCH  15  18
ENDBRANCH  13  14
ENDBRANCH  12  13
ENDBRANCH   2  12
BRANCH   1  32
HETATM   32  C   UNL     1      38.138  -4.285  11.411  1.00  0.00     0.076 A 
HETATM   33  C   UNL     1      39.099  -3.264  11.437  1.00  0.00     0.096 A 
HETATM   34  C   UNL     1      38.713  -1.976  11.075  1.00  0.00     0.039 A 
HETATM   35  C   UNL     1      37.377  -1.718  10.748  1.00  0.00     0.003 A 
HETATM   36  C   UNL     1      36.423  -2.742  10.769  1.00  0.00     0.002 A 
HETATM   37  C   UNL     1      36.798  -4.041  11.106  1.00  0.00     0.033 A 
BRANCH  33  38
HETATM   38  O   UNL     1      40.392  -3.600  11.736  1.00  0.00    -0.349 OA
BRANCH  38  39
HETATM   39  C   UNL     1      41.368  -3.132  10.792  1.00  0.00     0.171 C 
HETATM   40  C   UNL     1      42.752  -3.553  11.244  1.00  0.00     0.034 C 
ENDBRANCH  38  39
ENDBRANCH  33  38
ENDBRANCH   1  32
BRANCH   6  41
HETATM   41  N   UNL     1      39.353  -5.947   9.507  1.00  0.00    -0.384 N 
HETATM   42  H   UNL     1      40.275  -5.551   9.361  1.00  0.00     0.157 HD
HETATM   43  H   UNL     1      38.627  -5.518   8.943  1.00  0.00     0.157 HD
ENDBRANCH   6  41
TORSDOF 12
ENDMDL
MODEL 8
REMARK VINA RESULT:      -7.6      5.388      9.468
REMARK  12 active torsions:
REMARK  status: ('A' for Active; 'I' for Inactive)
REMARK    1  A    between atoms: C_2  and  O_3 
REMARK    2  A    between atoms: O_3  and  C_4 
REMARK    3  A    between atoms: C_5  and  N_6 
REMARK    4  A    between atoms: C_7  and  S_8 
REMARK    5  A    between atoms: S_8  and  C_9 
REMARK    6  A    between atoms: C_9  and  C_10 
REMARK       I    between atoms: C_10  and  N_11 
REMARK    7  A    between atoms: N_11  and  C_12 
REMARK    8  A    between atoms: C_12  and  C_13 
REMARK    9  A    between atoms: C_13  and  C_14 
REMARK   10  A    between atoms: C_17  and  S_18 
REMARK   11  A    between atoms: S_18  and  N_19 
REMARK   12  A    between atoms: C_28  and  N_29 
ROOT
HETATM    1  N   UNL     1      41.578  -8.026  10.913  1.00  0.00    -0.273 N 
HETATM    2  C   UNL     1      41.020  -6.909  10.370  1.00  0.00     0.177 A 
HETATM    3  N   UNL     1      40.912  -6.653   9.046  1.00  0.00    -0.204 NA
HETATM    4  C   UNL     1      41.404  -7.650   8.310  1.00  0.00     0.162 A 
HETATM    5  C   UNL     1      41.955  -8.828   8.770  1.00  0.00     0.081 A 
HETATM    6  C   UNL     1      42.033  -9.060  10.153  1.00  0.00     0.124 A 
HETATM    7  N   UNL     1      41.450  -7.697   6.947  1.00  0.00    -0.260 N 
HETATM    8  H   UNL     1      41.125  -6.996   6.289  1.00  0.00     0.191 HD
HETATM    9  N   UNL     1      42.000  -8.825   6.476  1.00  0.00    -0.177 NA
HETATM   10  C   UNL     1      42.322  -9.518   7.575  1.00  0.00     0.068 A 
HETATM   11  C   UNL     1      42.995 -10.836   7.431  1.00  0.00     0.073 C 
ENDROOT
BRANCH   2  12
HETATM   12  S   UNL     1      40.307  -5.615  11.403  1.00  0.00    -0.082 SA
BRANCH  12  13
HETATM   13  C   UNL     1      38.640  -6.308  11.663  1.00  0.00     0.185 C 
BRANCH  13  14
HETATM   14  C   UNL     1      38.287  -6.533  13.132  1.00  0.00     0.227 C 
HETATM   15  N   UNL     1      39.131  -5.857  13.989  1.00  0.00    -0.360 N 
HETATM   16  H   UNL     1      39.913  -5.333  13.611  1.00  0.00     0.162 HD
HETATM   17  O   UNL     1      37.334  -7.209  13.515  1.00  0.00    -0.273 OA
BRANCH  15  18
HETATM   18  C   UNL     1      38.889  -5.729  15.417  1.00  0.00     0.127 C 
BRANCH  18  19
HETATM   19  C   UNL     1      40.145  -5.423  16.239  1.00  0.00     0.058 C 
BRANCH  19  20
HETATM   20  C   UNL     1      40.183  -6.248  17.507  1.00  0.00    -0.057 A 
HETATM   21  C   UNL     1      39.543  -7.495  17.571  1.00  0.00     0.009 A 
HETATM   22  C   UNL     1      39.520  -8.221  18.765  1.00  0.00     0.025 A 
HETATM   23  C   UNL     1      40.155  -7.708  19.897  1.00  0.00     0.074 A 
HETATM   24  C   UNL     1      40.806  -6.473  19.847  1.00  0.00     0.025 A 
HETATM   25  C   UNL     1      40.822  -5.750  18.653  1.00  0.00     0.009 A 
BRANCH  23  26
HETATM   26  S   UNL     1      40.048  -8.585  21.431  1.00  0.00     0.239 S 
HETATM   27  O   UNL     1      41.319  -8.503  22.112  1.00  0.00    -0.206 OA
HETATM   28  O   UNL     1      38.800  -8.252  22.074  1.00  0.00    -0.206 OA
BRANCH  26  29
HETATM   29  N   UNL     1      39.900 -10.177  20.918  1.00  0.00    -0.225 NA
HETATM   30  H   UNL     1      39.162 -10.642  21.450  1.00  0.00     0.136 HD
HETATM   31  H   UNL     1      39.748 -10.199  19.909  1.00  0.00     0.136 HD
ENDBRANCH  26  29
ENDBRANCH  23  26
ENDBRANCH  19  20
ENDBRANCH  18  19
ENDBRANCH  15  18
ENDBRANCH  13  14
ENDBRANCH  12  13
ENDBRANCH   2  12
BRANCH   1  32
HETATM   32  C   UNL     1      41.816  -8.073  12.328  1.00  0.00     0.076 A 
HETATM   33  C   UNL     1      40.937  -8.821  13.125  1.00  0.00     0.096 A 
HETATM   34  C   UNL     1      41.171  -8.886  14.496  1.00  0.00     0.039 A 
HETATM   35  C   UNL     1      42.237  -8.169  15.052  1.00  0.00     0.003 A 
HETATM   36  C   UNL     1      43.078  -7.393  14.245  1.00  0.00     0.002 A 
HETATM   37  C   UNL     1      42.871  -7.337  12.869  1.00  0.00     0.033 A 
BRANCH  33  38
HETATM   38  O   UNL     1      39.938  -9.522  12.505  1.00  0.00    -0.349 OA
BRANCH  38  39
HETATM   39  C   UNL     1      39.603 -10.771  13.129  1.00  0.00     0.171 C 
HETATM   40  C   UNL     1      38.626 -11.529  12.252  1.00  0.00     0.034 C 
ENDBRANCH  38  39
ENDBRANCH  33  38
ENDBRANCH   1  32
BRANCH   6  41
HETATM   41  N   UNL     1      42.550 -10.235  10.699  1.00  0.00    -0.384 N 
HETATM   42  H   UNL     1      43.559 -10.320  10.755  1.00  0.00     0.157 HD
HETATM   43  H   UNL     1      42.071 -11.115  10.541  1.00  0.00     0.157 HD
ENDBRANCH   6  41
TORSDOF 12
ENDMDL
MODEL 9
REMARK VINA RESULT:      -7.5      6.140     12.049
REMARK  12 active torsions:
REMARK  status: ('A' for Active; 'I' for Inactive)
REMARK    1  A    between atoms: C_2  and  O_3 
REMARK    2  A    between atoms: O_3  and  C_4 
REMARK    3  A    between atoms: C_5  and  N_6 
REMARK    4  A    between atoms: C_7  and  S_8 
REMARK    5  A    between atoms: S_8  and  C_9 
REMARK    6  A    between atoms: C_9  and  C_10 
REMARK       I    between atoms: C_10  and  N_11 
REMARK    7  A    between atoms: N_11  and  C_12 
REMARK    8  A    between atoms: C_12  and  C_13 
REMARK    9  A    between atoms: C_13  and  C_14 
REMARK   10  A    between atoms: C_17  and  S_18 
REMARK   11  A    between atoms: S_18  and  N_19 
REMARK   12  A    between atoms: C_28  and  N_29 
ROOT
HETATM    1  N   UNL     1      39.917  -5.533  15.082  1.00  0.00    -0.273 N 
HETATM    2  C   UNL     1      38.607  -5.580  14.718  1.00  0.00     0.177 A 
HETATM    3  N   UNL     1      37.608  -4.880  15.302  1.00  0.00    -0.204 NA
HETATM    4  C   UNL     1      38.061  -4.098  16.283  1.00  0.00     0.162 A 
HETATM    5  C   UNL     1      39.370  -3.961  16.696  1.00  0.00     0.081 A 
HETATM    6  C   UNL     1      40.379  -4.696  16.052  1.00  0.00     0.124 A 
HETATM    7  N   UNL     1      37.309  -3.274  17.068  1.00  0.00    -0.260 N 
HETATM    8  H   UNL     1      36.305  -3.126  17.033  1.00  0.00     0.191 HD
HETATM    9  N   UNL     1      38.033  -2.605  17.976  1.00  0.00    -0.177 NA
HETATM   10  C   UNL     1      39.288  -3.021  17.769  1.00  0.00     0.068 A 
HETATM   11  C   UNL     1      40.378  -2.500  18.634  1.00  0.00     0.073 C 
ENDROOT
BRANCH   2  12
HETATM   12  S   UNL     1      38.047  -6.601  13.342  1.00  0.00    -0.082 SA
BRANCH  12  13
HETATM   13  C   UNL     1      37.307  -5.315  12.282  1.00  0.00     0.185 C 
BRANCH  13  14
HETATM   14  C   UNL     1      38.009  -5.146  10.936  1.00  0.00     0.227 C 
HETATM   15  N   UNL     1      38.948  -6.129  10.701  1.00  0.00    -0.360 N 
HETATM   16  H   UNL     1      39.135  -6.823  11.416  1.00  0.00     0.162 HD
HETATM   17  O   UNL     1      37.744  -4.256  10.129  1.00  0.00    -0.273 OA
BRANCH  15  18
HETATM   18  C   UNL     1      39.600  -6.324   9.416  1.00  0.00     0.127 C 
BRANCH  18  19
HETATM   19  C   UNL     1      41.051  -5.835   9.371  1.00  0.00     0.058 C 
BRANCH  19  20
HETATM   20  C   UNL     1      42.010  -6.988   9.173  1.00  0.00    -0.057 A 
HETATM   21  C   UNL     1      41.541  -8.310   9.111  1.00  0.00     0.009 A 
HETATM   22  C   UNL     1      42.437  -9.376   9.000  1.00  0.00     0.025 A 
HETATM   23  C   UNL     1      43.808  -9.123   8.931  1.00  0.00     0.074 A 
HETATM   24  C   UNL     1      44.291  -7.813   8.980  1.00  0.00     0.025 A 
HETATM   25  C   UNL     1      43.392  -6.751   9.096  1.00  0.00     0.009 A 
BRANCH  23  26
HETATM   26  S   UNL     1      44.946 -10.479   8.880  1.00  0.00     0.239 S 
HETATM   27  O   UNL     1      45.864 -10.283   7.784  1.00  0.00    -0.206 OA
HETATM   28  O   UNL     1      45.389 -10.767  10.223  1.00  0.00    -0.206 OA
BRANCH  26  29
HETATM   29  N   UNL     1      43.953 -11.755   8.430  1.00  0.00    -0.225 NA
HETATM   30  H   UNL     1      44.177 -12.579   8.992  1.00  0.00     0.136 HD
HETATM   31  H   UNL     1      42.975 -11.472   8.500  1.00  0.00     0.136 HD
ENDBRANCH  26  29
ENDBRANCH  23  26
ENDBRANCH  19  20
ENDBRANCH  18  19
ENDBRANCH  15  18
ENDBRANCH  13  14
ENDBRANCH  12  13
ENDBRANCH   2  12
BRANCH   1  32
HETATM   32  C   UNL     1      40.836  -6.482  14.519  1.00  0.00     0.076 A 
HETATM   33  C   UNL     1      41.471  -6.156  13.312  1.00  0.00     0.096 A 
HETATM   34  C   UNL     1      42.376  -7.064  12.768  1.00  0.00     0.039 A 
HETATM   35  C   UNL     1      42.591  -8.293  13.403  1.00  0.00     0.003 A 
HETATM   36  C   UNL     1      41.915  -8.618  14.585  1.00  0.00     0.002 A 
HETATM   37  C   UNL     1      41.024  -7.710  15.153  1.00  0.00     0.033 A 
BRANCH  33  38
HETATM   38  O   UNL     1      41.235  -4.922  12.768  1.00  0.00    -0.349 OA
BRANCH  38  39
HETATM   39  C   UNL     1      42.325  -3.994  12.887  1.00  0.00     0.171 C 
HETATM   40  C   UNL     1      42.783  -3.572  11.505  1.00  0.00     0.034 C 
ENDBRANCH  38  39
ENDBRANCH  33  38
ENDBRANCH   1  32
BRANCH   6  41
HETATM   41  N   UNL     1      41.728  -4.594  16.390  1.00  0.00    -0.384 N 
HETATM   42  H   UNL     1      42.358  -5.295  16.015  1.00  0.00     0.157 HD
HETATM   43  H   UNL     1      41.992  -4.253  17.307  1.00  0.00     0.157 HD
ENDBRANCH   6  41
TORSDOF 12
ENDMDL
MODEL 10
REMARK VINA RESULT:      -7.5      2.439      4.495
REMARK  12 active torsions:
REMARK  status: ('A' for Active; 'I' for Inactive)
REMARK    1  A    between atoms: C_2  and  O_3 
REMARK    2  A    between atoms: O_3  and  C_4 
REMARK    3  A    between atoms: C_5  and  N_6 
REMARK    4  A    between atoms: C_7  and  S_8 
REMARK    5  A    between atoms: S_8  and  C_9 
REMARK    6  A    between atoms: C_9  and  C_10 
REMARK       I    between atoms: C_10  and  N_11 
REMARK    7  A    between atoms: N_11  and  C_12 
REMARK    8  A    between atoms: C_12  and  C_13 
REMARK    9  A    between atoms: C_13  and  C_14 
REMARK   10  A    between atoms: C_17  and  S_18 
REMARK   11  A    between atoms: S_18  and  N_19 
REMARK   12  A    between atoms: C_28  and  N_29 
ROOT
HETATM    1  N   UNL     1      43.011 -14.859   3.787  1.00  0.00    -0.273 N 
HETATM    2  C   UNL     1      42.975 -14.876   5.147  1.00  0.00     0.177 A 
HETATM    3  N   UNL     1      43.194 -15.964   5.921  1.00  0.00    -0.204 NA
HETATM    4  C   UNL     1      43.479 -17.041   5.189  1.00  0.00     0.162 A 
HETATM    5  C   UNL     1      43.571 -17.109   3.815  1.00  0.00     0.081 A 
HETATM    6  C   UNL     1      43.350 -15.952   3.049  1.00  0.00     0.124 A 
HETATM    7  N   UNL     1      43.745 -18.291   5.667  1.00  0.00    -0.260 N 
HETATM    8  H   UNL     1      43.766 -18.596   6.635  1.00  0.00     0.191 HD
HETATM    9  N   UNL     1      43.999 -19.183   4.699  1.00  0.00    -0.177 NA
HETATM   10  C   UNL     1      43.886 -18.480   3.565  1.00  0.00     0.068 A 
HETATM   11  C   UNL     1      44.076 -19.169   2.262  1.00  0.00     0.073 C 
ENDROOT
BRANCH   2  12
HETATM   12  S   UNL     1      42.650 -13.380   6.099  1.00  0.00    -0.082 SA
BRANCH  12  13
HETATM   13  C   UNL     1      44.312 -13.085   6.789  1.00  0.00     0.185 C 
BRANCH  13  14
HETATM   14  C   UNL     1      44.746 -11.620   6.747  1.00  0.00     0.227 C 
HETATM   15  N   UNL     1      44.837 -11.058   8.003  1.00  0.00    -0.360 N 
HETATM   16  H   UNL     1      44.575 -11.605   8.816  1.00  0.00     0.162 HD
HETATM   17  O   UNL     1      45.022 -11.014   5.713  1.00  0.00    -0.273 OA
BRANCH  15  18
HETATM   18  C   UNL     1      45.429  -9.755   8.258  1.00  0.00     0.127 C 
BRANCH  18  19
HETATM   19  C   UNL     1      45.405  -9.333   9.730  1.00  0.00     0.058 C 
BRANCH  19  20
HETATM   20  C   UNL     1      44.031  -9.532  10.333  1.00  0.00    -0.057 A 
HETATM   21  C   UNL     1      42.918  -8.846   9.823  1.00  0.00     0.009 A 
HETATM   22  C   UNL     1      41.665  -8.978  10.427  1.00  0.00     0.025 A 
HETATM   23  C   UNL     1      41.517  -9.815  11.535  1.00  0.00     0.074 A 
HETATM   24  C   UNL     1      42.612 -10.514  12.048  1.00  0.00     0.025 A 
HETATM   25  C   UNL     1      43.863 -10.374  11.443  1.00  0.00     0.009 A 
BRANCH  23  26
HETATM   26  S   UNL     1      39.950  -9.912  12.353  1.00  0.00     0.239 S 
HETATM   27  O   UNL     1      40.091 -10.705  13.551  1.00  0.00    -0.206 OA
HETATM   28  O   UNL     1      39.342  -8.603  12.355  1.00  0.00    -0.206 OA
BRANCH  26  29
HETATM   29  N   UNL     1      39.051 -10.843  11.284  1.00  0.00    -0.225 NA
HETATM   30  H   UNL     1      38.563 -11.580  11.797  1.00  0.00     0.136 HD
HETATM   31  H   UNL     1      38.425 -10.242  10.748  1.00  0.00     0.136 HD
ENDBRANCH  26  29
ENDBRANCH  23  26
ENDBRANCH  19  20
ENDBRANCH  18  19
ENDBRANCH  15  18
ENDBRANCH  13  14
ENDBRANCH  12  13
ENDBRANCH   2  12
BRANCH   1  32
HETATM   32  C   UNL     1      42.554 -13.691   3.088  1.00  0.00     0.076 A 
HETATM   33  C   UNL     1      41.459 -13.821   2.221  1.00  0.00     0.096 A 
HETATM   34  C   UNL     1      41.000 -12.689   1.553  1.00  0.00     0.039 A 
HETATM   35  C   UNL     1      41.666 -11.468   1.718  1.00  0.00     0.003 A 
HETATM   36  C   UNL     1      42.783 -11.369   2.554  1.00  0.00     0.002 A 
HETATM   37  C   UNL     1      43.241 -12.487   3.248  1.00  0.00     0.033 A 
BRANCH  33  38
HETATM   38  O   UNL     1      40.840 -15.039   2.137  1.00  0.00    -0.349 OA
BRANCH  38  39
HETATM   39  C   UNL     1      39.631 -15.152   2.903  1.00  0.00     0.171 C 
HETATM   40  C   UNL     1      39.844 -16.127   4.045  1.00  0.00     0.034 C 
ENDBRANCH  38  39
ENDBRANCH  33  38
ENDBRANCH   1  32
BRANCH   6  41
HETATM   41  N   UNL     1      43.451 -15.930   1.658  1.00  0.00    -0.384 N 
HETATM   42  H   UNL     1      42.643 -15.607   1.136  1.00  0.00     0.157 HD
HETATM   43  H   UNL     1      43.987 -16.647   1.182  1.00  0.00     0.157 HD
ENDBRANCH   6  41
TORSDOF 12
ENDMDL
