MODEL 1
REMARK VINA RESULT:      -8.4      0.000      0.000
REMARK  6 active torsions:
REMARK  status: ('A' for Active; 'I' for Inactive)
REMARK    1  A    between atoms: C_4  and  C_5 
REMARK    2  A    between atoms: C_5  and  N_6 
REMARK    3  A    between atoms: N_6  and  N_7 
REMARK    4  A    between atoms: N_6  and  C_21 
REMARK       I    between atoms: N_7  and  C_8 
REMARK    5  A    between atoms: C_8  and  C_9 
REMARK    6  A    between atoms: C_9  and  C_10 
ROOT
HETATM    1  N   UNL     1      42.877 -16.503   4.939  1.00  0.00    -0.267 N 
HETATM    2  C   UNL     1      43.495 -16.018   6.088  1.00  0.00     0.240 C 
HETATM    3  O   UNL     1      44.711 -16.025   6.267  1.00  0.00    -0.272 OA
HETATM    4  H   UNL     1      41.873 -16.516   4.801  1.00  0.00     0.190 HD
ENDROOT
BRANCH   1   5
HETATM    5  N   UNL     1      43.650 -16.980   3.855  1.00  0.00    -0.286 N 
BRANCH   5   6
HETATM    6  C   UNL     1      43.590 -16.148   2.636  1.00  0.00     0.187 C 
BRANCH   6   7
HETATM    7  C   UNL     1      42.248 -15.458   2.476  1.00  0.00    -0.038 A 
HETATM    8  C   UNL     1      42.191 -14.078   2.232  1.00  0.00     0.009 A 
HETATM    9  C   UNL     1      40.964 -13.441   2.034  1.00  0.00     0.001 A 
HETATM   10  C   UNL     1      39.782 -14.177   2.068  1.00  0.00     0.000 A 
HETATM   11  C   UNL     1      39.823 -15.550   2.295  1.00  0.00     0.001 A 
HETATM   12  C   UNL     1      41.049 -16.188   2.494  1.00  0.00     0.009 A 
ENDBRANCH   6   7
ENDBRANCH   5   6
BRANCH   5  13
HETATM   13  C   UNL     1      43.755 -18.386   3.796  1.00  0.00     0.051 A 
HETATM   14  C   UNL     1      43.523 -19.074   2.588  1.00  0.00     0.031 A 
HETATM   15  C   UNL     1      43.615 -20.468   2.496  1.00  0.00     0.002 A 
HETATM   16  C   UNL     1      43.939 -21.218   3.619  1.00  0.00     0.000 A 
HETATM   17  C   UNL     1      44.158 -20.573   4.830  1.00  0.00     0.002 A 
HETATM   18  C   UNL     1      44.058 -19.177   4.915  1.00  0.00     0.031 A 
ENDBRANCH   5  13
ENDBRANCH   1   5
BRANCH   2  19
HETATM   19  C   UNL     1      42.488 -15.451   7.079  1.00  0.00     0.145 C 
BRANCH  19  20
HETATM   20  C   UNL     1      41.549 -14.458   6.473  1.00  0.00    -0.021 A 
HETATM   21  C   UNL     1      41.897 -13.186   5.913  1.00  0.00    -0.001 A 
HETATM   22  C   UNL     1      40.724 -12.600   5.440  1.00  0.00     0.042 A 
HETATM   23  C   UNL     1      43.108 -12.475   5.772  1.00  0.00     0.014 A 
HETATM   24  C   UNL     1      40.699 -11.343   4.823  1.00  0.00     0.030 A 
HETATM   25  N   UNL     1      39.698 -13.474   5.710  1.00  0.00    -0.365 N 
HETATM   26  C   UNL     1      41.914 -10.663   4.690  1.00  0.00     0.002 A 
HETATM   27  C   UNL     1      43.102 -11.218   5.159  1.00  0.00     0.001 A 
HETATM   28  H   UNL     1      38.728 -13.303   5.487  1.00  0.00     0.165 HD
HETATM   29  C   UNL     1      40.183 -14.599   6.323  1.00  0.00     0.097 A 
ENDBRANCH  19  20
ENDBRANCH   2  19
TORSDOF 6
ENDMDL
MODEL 2
REMARK VINA RESULT:      -8.2      2.961      7.046
REMARK  6 active torsions:
REMARK  status: ('A' for Active; 'I' for Inactive)
REMARK    1  A    between atoms: C_4  and  C_5 
REMARK    2  A    between atoms: C_5  and  N_6 
REMARK    3  A    between atoms: N_6  and  N_7 
REMARK    4  A    between atoms: N_6  and  C_21 
REMARK       I    between atoms: N_7  and  C_8 
REMARK    5  A    between atoms: C_8  and  C_9 
REMARK    6  A    between atoms: C_9  and  C_10 
ROOT
HETATM    1  N   UNL     1      42.015 -14.005   1.125  1.00  0.00    -0.267 N 
HETATM    2  C   UNL     1      41.713 -15.347   1.345  1.00  0.00     0.240 C 
HETATM    3  O   UNL     1      40.571 -15.779   1.484  1.00  0.00    -0.272 OA
HETATM    4  H   UNL     1      42.958 -13.648   1.031  1.00  0.00     0.190 HD
ENDROOT
BRANCH   1   5
HETATM    5  N   UNL     1      40.981 -13.053   0.977  1.00  0.00    -0.286 N 
BRANCH   5   6
HETATM    6  C   UNL     1      40.915 -12.408  -0.351  1.00  0.00     0.187 C 
BRANCH   6   7
HETATM    7  C   UNL     1      39.826 -13.001  -1.224  1.00  0.00    -0.038 A 
HETATM    8  C   UNL     1      38.551 -12.415  -1.255  1.00  0.00     0.009 A 
HETATM    9  C   UNL     1      37.555 -12.922  -2.093  1.00  0.00     0.001 A 
HETATM   10  C   UNL     1      37.825 -14.012  -2.917  1.00  0.00     0.000 A 
HETATM   11  C   UNL     1      39.090 -14.595  -2.908  1.00  0.00     0.001 A 
HETATM   12  C   UNL     1      40.085 -14.090  -2.071  1.00  0.00     0.009 A 
ENDBRANCH   6   7
ENDBRANCH   5   6
BRANCH   5  13
HETATM   13  C   UNL     1      40.664 -12.355   2.162  1.00  0.00     0.051 A 
HETATM   14  C   UNL     1      41.650 -12.111   3.139  1.00  0.00     0.031 A 
HETATM   15  C   UNL     1      41.367 -11.426   4.327  1.00  0.00     0.002 A 
HETATM   16  C   UNL     1      40.080 -10.968   4.575  1.00  0.00     0.000 A 
HETATM   17  C   UNL     1      39.080 -11.206   3.640  1.00  0.00     0.002 A 
HETATM   18  C   UNL     1      39.369 -11.897   2.455  1.00  0.00     0.031 A 
ENDBRANCH   5  13
ENDBRANCH   1   5
BRANCH   2  19
HETATM   19  C   UNL     1      42.963 -16.215   1.361  1.00  0.00     0.145 C 
BRANCH  19  20
HETATM   20  C   UNL     1      43.269 -16.795   2.705  1.00  0.00    -0.021 A 
HETATM   21  C   UNL     1      43.478 -18.180   3.009  1.00  0.00    -0.001 A 
HETATM   22  C   UNL     1      43.760 -18.272   4.371  1.00  0.00     0.042 A 
HETATM   23  C   UNL     1      43.448 -19.366   2.247  1.00  0.00     0.014 A 
HETATM   24  C   UNL     1      44.022 -19.491   5.010  1.00  0.00     0.030 A 
HETATM   25  N   UNL     1      43.711 -16.996   4.882  1.00  0.00    -0.365 N 
HETATM   26  C   UNL     1      43.992 -20.650   4.231  1.00  0.00     0.002 A 
HETATM   27  C   UNL     1      43.708 -20.592   2.868  1.00  0.00     0.001 A 
HETATM   28  H   UNL     1      43.864 -16.764   5.852  1.00  0.00     0.165 HD
HETATM   29  C   UNL     1      43.426 -16.099   3.888  1.00  0.00     0.097 A 
ENDBRANCH  19  20
ENDBRANCH   2  19
TORSDOF 6
ENDMDL
MODEL 3
REMARK VINA RESULT:      -8.2      2.599      6.681
REMARK  6 active torsions:
REMARK  status: ('A' for Active; 'I' for Inactive)
REMARK    1  A    between atoms: C_4  and  C_5 
REMARK    2  A    between atoms: C_5  and  N_6 
REMARK    3  A    between atoms: N_6  and  N_7 
REMARK    4  A    between atoms: N_6  and  C_21 
REMARK       I    between atoms: N_7  and  C_8 
REMARK    5  A    between atoms: C_8  and  C_9 
REMARK    6  A    between atoms: C_9  and  C_10 
ROOT
HETATM    1  N   UNL     1      42.835 -11.951   5.619  1.00  0.00    -0.267 N 
HETATM    2  C   UNL     1      43.342 -11.587   4.374  1.00  0.00     0.240 C 
HETATM    3  O   UNL     1      44.537 -11.413   4.146  1.00  0.00    -0.272 OA
HETATM    4  H   UNL     1      41.848 -12.074   5.811  1.00  0.00     0.190 HD
ENDROOT
BRANCH   1   5
HETATM    5  N   UNL     1      43.707 -12.215   6.700  1.00  0.00    -0.286 N 
BRANCH   5   6
HETATM    6  C   UNL     1      43.338 -13.383   7.525  1.00  0.00     0.187 C 
BRANCH   6   7
HETATM    7  C   UNL     1      43.094 -14.624   6.688  1.00  0.00    -0.038 A 
HETATM    8  C   UNL     1      44.175 -15.311   6.115  1.00  0.00     0.009 A 
HETATM    9  C   UNL     1      43.967 -16.483   5.383  1.00  0.00     0.001 A 
HETATM   10  C   UNL     1      42.677 -16.987   5.226  1.00  0.00     0.000 A 
HETATM   11  C   UNL     1      41.596 -16.324   5.801  1.00  0.00     0.001 A 
HETATM   12  C   UNL     1      41.803 -15.153   6.532  1.00  0.00     0.009 A 
ENDBRANCH   6   7
ENDBRANCH   5   6
BRANCH   5  13
HETATM   13  C   UNL     1      44.298 -11.062   7.260  1.00  0.00     0.051 A 
HETATM   14  C   UNL     1      45.699 -10.946   7.354  1.00  0.00     0.031 A 
HETATM   15  C   UNL     1      46.317  -9.818   7.908  1.00  0.00     0.002 A 
HETATM   16  C   UNL     1      45.544  -8.770   8.392  1.00  0.00     0.000 A 
HETATM   17  C   UNL     1      44.158  -8.860   8.330  1.00  0.00     0.002 A 
HETATM   18  C   UNL     1      43.547  -9.995   7.779  1.00  0.00     0.031 A 
ENDBRANCH   5  13
ENDBRANCH   1   5
BRANCH   2  19
HETATM   19  C   UNL     1      42.244 -11.462   3.327  1.00  0.00     0.145 C 
BRANCH  19  20
HETATM   20  C   UNL     1      41.474 -12.727   3.117  1.00  0.00    -0.021 A 
HETATM   21  C   UNL     1      41.990 -13.966   2.615  1.00  0.00    -0.001 A 
HETATM   22  C   UNL     1      40.941 -14.884   2.605  1.00  0.00     0.042 A 
HETATM   23  C   UNL     1      43.257 -14.389   2.162  1.00  0.00     0.014 A 
HETATM   24  C   UNL     1      41.095 -16.207   2.173  1.00  0.00     0.030 A 
HETATM   25  N   UNL     1      39.825 -14.228   3.070  1.00  0.00    -0.365 N 
HETATM   26  C   UNL     1      42.362 -16.602   1.735  1.00  0.00     0.002 A 
HETATM   27  C   UNL     1      43.429 -15.707   1.727  1.00  0.00     0.001 A 
HETATM   28  H   UNL     1      38.912 -14.649   3.159  1.00  0.00     0.165 HD
HETATM   29  C   UNL     1      40.136 -12.933   3.390  1.00  0.00     0.097 A 
ENDBRANCH  19  20
ENDBRANCH   2  19
TORSDOF 6
ENDMDL
MODEL 4
REMARK VINA RESULT:      -8.0      2.359      6.874
REMARK  6 active torsions:
REMARK  status: ('A' for Active; 'I' for Inactive)
REMARK    1  A    between atoms: C_4  and  C_5 
REMARK    2  A    between atoms: C_5  and  N_6 
REMARK    3  A    between atoms: N_6  and  N_7 
REMARK    4  A    between atoms: N_6  and  C_21 
REMARK       I    between atoms: N_7  and  C_8 
REMARK    5  A    between atoms: C_8  and  C_9 
REMARK    6  A    between atoms: C_9  and  C_10 
ROOT
HETATM    1  N   UNL     1      41.265 -15.290   1.498  1.00  0.00    -0.267 N 
HETATM    2  C   UNL     1      42.644 -15.173   1.645  1.00  0.00     0.240 C 
HETATM    3  O   UNL     1      43.234 -14.099   1.753  1.00  0.00    -0.272 OA
HETATM    4  H   UNL     1      40.782 -16.174   1.388  1.00  0.00     0.190 HD
ENDROOT
BRANCH   1   5
HETATM    5  N   UNL     1      40.439 -14.143   1.539  1.00  0.00    -0.286 N 
BRANCH   5   6
HETATM    6  C   UNL     1      39.661 -13.980   2.783  1.00  0.00     0.187 C 
BRANCH   6   7
HETATM    7  C   UNL     1      40.516 -13.482   3.934  1.00  0.00    -0.038 A 
HETATM    8  C   UNL     1      40.669 -14.266   5.088  1.00  0.00     0.009 A 
HETATM    9  C   UNL     1      41.493 -13.840   6.132  1.00  0.00     0.001 A 
HETATM   10  C   UNL     1      42.181 -12.633   6.031  1.00  0.00     0.000 A 
HETATM   11  C   UNL     1      42.050 -11.851   4.886  1.00  0.00     0.001 A 
HETATM   12  C   UNL     1      41.226 -12.275   3.842  1.00  0.00     0.009 A 
ENDBRANCH   6   7
ENDBRANCH   5   6
BRANCH   5  13
HETATM   13  C   UNL     1      39.926 -13.756   0.282  1.00  0.00     0.051 A 
HETATM   14  C   UNL     1      39.589 -12.411   0.026  1.00  0.00     0.031 A 
HETATM   15  C   UNL     1      39.073 -11.995  -1.208  1.00  0.00     0.002 A 
HETATM   16  C   UNL     1      38.874 -12.920  -2.225  1.00  0.00     0.000 A 
HETATM   17  C   UNL     1      39.180 -14.257  -2.000  1.00  0.00     0.002 A 
HETATM   18  C   UNL     1      39.691 -14.667  -0.760  1.00  0.00     0.031 A 
ENDBRANCH   5  13
ENDBRANCH   1   5
BRANCH   2  19
HETATM   19  C   UNL     1      43.329 -16.532   1.686  1.00  0.00     0.145 C 
BRANCH  19  20
HETATM   20  C   UNL     1      43.480 -17.081   3.068  1.00  0.00    -0.021 A 
HETATM   21  C   UNL     1      43.640 -18.460   3.425  1.00  0.00    -0.001 A 
HETATM   22  C   UNL     1      43.770 -18.523   4.811  1.00  0.00     0.042 A 
HETATM   23  C   UNL     1      43.680 -19.664   2.691  1.00  0.00     0.014 A 
HETATM   24  C   UNL     1      43.948 -19.727   5.503  1.00  0.00     0.030 A 
HETATM   25  N   UNL     1      43.681 -17.234   5.284  1.00  0.00    -0.365 N 
HETATM   26  C   UNL     1      43.991 -20.905   4.752  1.00  0.00     0.002 A 
HETATM   27  C   UNL     1      43.857 -20.877   3.366  1.00  0.00     0.001 A 
HETATM   28  H   UNL     1      43.730 -16.980   6.260  1.00  0.00     0.165 HD
HETATM   29  C   UNL     1      43.515 -16.358   4.245  1.00  0.00     0.097 A 
ENDBRANCH  19  20
ENDBRANCH   2  19
TORSDOF 6
ENDMDL
MODEL 5
REMARK VINA RESULT:      -8.0      1.574      2.344
REMARK  6 active torsions:
REMARK  status: ('A' for Active; 'I' for Inactive)
REMARK    1  A    between atoms: C_4  and  C_5 
REMARK    2  A    between atoms: C_5  and  N_6 
REMARK    3  A    between atoms: N_6  and  N_7 
REMARK    4  A    between atoms: N_6  and  C_21 
REMARK       I    between atoms: N_7  and  C_8 
REMARK    5  A    between atoms: C_8  and  C_9 
REMARK    6  A    between atoms: C_9  and  C_10 
ROOT
HETATM    1  N   UNL     1      42.832 -15.920   4.386  1.00  0.00    -0.267 N 
HETATM    2  C   UNL     1      41.501 -16.042   4.776  1.00  0.00     0.240 C 
HETATM    3  O   UNL     1      40.629 -16.566   4.084  1.00  0.00    -0.272 OA
HETATM    4  H   UNL     1      43.545 -15.470   4.948  1.00  0.00     0.190 HD
ENDROOT
BRANCH   1   5
HETATM    5  N   UNL     1      43.275 -16.474   3.163  1.00  0.00    -0.286 N 
BRANCH   5   6
HETATM    6  C   UNL     1      42.819 -15.757   1.954  1.00  0.00     0.187 C 
BRANCH   6   7
HETATM    7  C   UNL     1      42.586 -14.281   2.216  1.00  0.00    -0.038 A 
HETATM    8  C   UNL     1      41.308 -13.728   2.039  1.00  0.00     0.009 A 
HETATM    9  C   UNL     1      41.071 -12.381   2.325  1.00  0.00     0.001 A 
HETATM   10  C   UNL     1      42.103 -11.576   2.801  1.00  0.00     0.000 A 
HETATM   11  C   UNL     1      43.372 -12.114   2.995  1.00  0.00     0.001 A 
HETATM   12  C   UNL     1      43.611 -13.459   2.709  1.00  0.00     0.009 A 
ENDBRANCH   6   7
ENDBRANCH   5   6
BRANCH   5  13
HETATM   13  C   UNL     1      43.426 -17.877   3.185  1.00  0.00     0.051 A 
HETATM   14  C   UNL     1      44.042 -18.517   4.280  1.00  0.00     0.031 A 
HETATM   15  C   UNL     1      44.211 -19.906   4.331  1.00  0.00     0.002 A 
HETATM   16  C   UNL     1      43.771 -20.698   3.279  1.00  0.00     0.000 A 
HETATM   17  C   UNL     1      43.175 -20.099   2.176  1.00  0.00     0.002 A 
HETATM   18  C   UNL     1      43.014 -18.707   2.130  1.00  0.00     0.031 A 
ENDBRANCH   5  13
ENDBRANCH   1   5
BRANCH   2  19
HETATM   19  C   UNL     1      41.263 -15.480   6.170  1.00  0.00     0.145 C 
BRANCH  19  20
HETATM   20  C   UNL     1      41.269 -13.985   6.218  1.00  0.00    -0.021 A 
HETATM   21  C   UNL     1      42.415 -13.142   6.386  1.00  0.00    -0.001 A 
HETATM   22  C   UNL     1      41.973 -11.820   6.348  1.00  0.00     0.042 A 
HETATM   23  C   UNL     1      43.792 -13.385   6.573  1.00  0.00     0.014 A 
HETATM   24  C   UNL     1      42.839 -10.727   6.478  1.00  0.00     0.030 A 
HETATM   25  N   UNL     1      40.609 -11.855   6.177  1.00  0.00    -0.365 N 
HETATM   26  C   UNL     1      44.199 -10.996   6.655  1.00  0.00     0.002 A 
HETATM   27  C   UNL     1      44.671 -12.305   6.704  1.00  0.00     0.001 A 
HETATM   28  H   UNL     1      40.020 -11.037   6.126  1.00  0.00     0.165 HD
HETATM   29  C   UNL     1      40.175 -13.151   6.088  1.00  0.00     0.097 A 
ENDBRANCH  19  20
ENDBRANCH   2  19
TORSDOF 6
ENDMDL
MODEL 6
REMARK VINA RESULT:      -7.8      1.690      4.719
REMARK  6 active torsions:
REMARK  status: ('A' for Active; 'I' for Inactive)
REMARK    1  A    between atoms: C_4  and  C_5 
REMARK    2  A    between atoms: C_5  and  N_6 
REMARK    3  A    between atoms: N_6  and  N_7 
REMARK    4  A    between atoms: N_6  and  C_21 
REMARK       I    between atoms: N_7  and  C_8 
REMARK    5  A    between atoms: C_8  and  C_9 
REMARK    6  A    between atoms: C_9  and  C_10 
ROOT
HETATM    1  N   UNL     1      42.266 -15.463   3.939  1.00  0.00    -0.267 N 
HETATM    2  C   UNL     1      41.252 -15.831   4.819  1.00  0.00     0.240 C 
HETATM    3  O   UNL     1      40.294 -16.535   4.505  1.00  0.00    -0.272 OA
HETATM    4  H   UNL     1      43.044 -14.866   4.194  1.00  0.00     0.190 HD
ENDROOT
BRANCH   1   5
HETATM    5  N   UNL     1      42.281 -15.956   2.615  1.00  0.00    -0.286 N 
BRANCH   5   6
HETATM    6  C   UNL     1      43.522 -16.657   2.226  1.00  0.00     0.187 C 
BRANCH   6   7
HETATM    7  C   UNL     1      43.603 -18.052   2.816  1.00  0.00    -0.038 A 
HETATM    8  C   UNL     1      43.206 -19.163   2.056  1.00  0.00     0.009 A 
HETATM    9  C   UNL     1      43.323 -20.456   2.571  1.00  0.00     0.001 A 
HETATM   10  C   UNL     1      43.848 -20.654   3.846  1.00  0.00     0.000 A 
HETATM   11  C   UNL     1      44.259 -19.563   4.607  1.00  0.00     0.001 A 
HETATM   12  C   UNL     1      44.142 -18.270   4.094  1.00  0.00     0.009 A 
ENDBRANCH   6   7
ENDBRANCH   5   6
BRANCH   5  13
HETATM   13  C   UNL     1      41.548 -15.172   1.698  1.00  0.00     0.051 A 
HETATM   14  C   UNL     1      40.467 -15.725   0.982  1.00  0.00     0.031 A 
HETATM   15  C   UNL     1      39.723 -14.976   0.062  1.00  0.00     0.002 A 
HETATM   16  C   UNL     1      40.045 -13.645  -0.173  1.00  0.00     0.000 A 
HETATM   17  C   UNL     1      41.116 -13.074   0.504  1.00  0.00     0.002 A 
HETATM   18  C   UNL     1      41.860 -13.832   1.419  1.00  0.00     0.031 A 
ENDBRANCH   5  13
ENDBRANCH   1   5
BRANCH   2  19
HETATM   19  C   UNL     1      41.487 -15.283   6.219  1.00  0.00     0.145 C 
BRANCH  19  20
HETATM   20  C   UNL     1      41.503 -13.789   6.280  1.00  0.00    -0.021 A 
HETATM   21  C   UNL     1      42.656 -12.954   6.444  1.00  0.00    -0.001 A 
HETATM   22  C   UNL     1      42.222 -11.629   6.422  1.00  0.00     0.042 A 
HETATM   23  C   UNL     1      44.033 -13.207   6.616  1.00  0.00     0.014 A 
HETATM   24  C   UNL     1      43.095 -10.542   6.552  1.00  0.00     0.030 A 
HETATM   25  N   UNL     1      40.856 -11.655   6.263  1.00  0.00    -0.365 N 
HETATM   26  C   UNL     1      44.455 -10.821   6.714  1.00  0.00     0.002 A 
HETATM   27  C   UNL     1      44.920 -12.133   6.748  1.00  0.00     0.001 A 
HETATM   28  H   UNL     1      40.271 -10.832   6.225  1.00  0.00     0.165 HD
HETATM   29  C   UNL     1      40.413 -12.947   6.168  1.00  0.00     0.097 A 
ENDBRANCH  19  20
ENDBRANCH   2  19
TORSDOF 6
ENDMDL
MODEL 7
REMARK VINA RESULT:      -7.8      2.129      6.008
REMARK  6 active torsions:
REMARK  status: ('A' for Active; 'I' for Inactive)
REMARK    1  A    between atoms: C_4  and  C_5 
REMARK    2  A    between atoms: C_5  and  N_6 
REMARK    3  A    between atoms: N_6  and  N_7 
REMARK    4  A    between atoms: N_6  and  C_21 
REMARK       I    between atoms: N_7  and  C_8 
REMARK    5  A    between atoms: C_8  and  C_9 
REMARK    6  A    between atoms: C_9  and  C_10 
ROOT
HETATM    1  N   UNL     1      41.881 -13.358   5.890  1.00  0.00    -0.267 N 
HETATM    2  C   UNL     1      40.584 -13.692   6.270  1.00  0.00     0.240 C 
HETATM    3  O   UNL     1      39.698 -12.867   6.484  1.00  0.00    -0.272 OA
HETATM    4  H   UNL     1      42.615 -14.038   5.734  1.00  0.00     0.190 HD
ENDROOT
BRANCH   1   5
HETATM    5  N   UNL     1      42.234 -12.009   5.657  1.00  0.00    -0.286 N 
BRANCH   5   6
HETATM    6  C   UNL     1      41.912 -11.506   4.306  1.00  0.00     0.187 C 
BRANCH   6   7
HETATM    7  C   UNL     1      41.960 -12.603   3.259  1.00  0.00    -0.038 A 
HETATM    8  C   UNL     1      40.785 -13.000   2.601  1.00  0.00     0.009 A 
HETATM    9  C   UNL     1      40.825 -13.974   1.600  1.00  0.00     0.001 A 
HETATM   10  C   UNL     1      42.040 -14.553   1.238  1.00  0.00     0.000 A 
HETATM   11  C   UNL     1      43.215 -14.159   1.872  1.00  0.00     0.001 A 
HETATM   12  C   UNL     1      43.177 -13.187   2.872  1.00  0.00     0.009 A 
ENDBRANCH   6   7
ENDBRANCH   5   6
BRANCH   5  13
HETATM   13  C   UNL     1      43.384 -11.584   6.356  1.00  0.00     0.051 A 
HETATM   14  C   UNL     1      44.663 -11.699   5.775  1.00  0.00     0.031 A 
HETATM   15  C   UNL     1      45.824 -11.291   6.444  1.00  0.00     0.002 A 
HETATM   16  C   UNL     1      45.737 -10.759   7.724  1.00  0.00     0.000 A 
HETATM   17  C   UNL     1      44.493 -10.647   8.333  1.00  0.00     0.002 A 
HETATM   18  C   UNL     1      43.336 -11.063   7.659  1.00  0.00     0.031 A 
ENDBRANCH   5  13
ENDBRANCH   1   5
BRANCH   2  19
HETATM   19  C   UNL     1      40.388 -15.199   6.357  1.00  0.00     0.145 C 
BRANCH  19  20
HETATM   20  C   UNL     1      41.670 -15.968   6.351  1.00  0.00    -0.021 A 
HETATM   21  C   UNL     1      42.252 -16.649   5.232  1.00  0.00    -0.001 A 
HETATM   22  C   UNL     1      43.454 -17.210   5.660  1.00  0.00     0.042 A 
HETATM   23  C   UNL     1      41.860 -16.842   3.891  1.00  0.00     0.014 A 
HETATM   24  C   UNL     1      44.291 -17.948   4.814  1.00  0.00     0.030 A 
HETATM   25  N   UNL     1      43.595 -16.896   6.992  1.00  0.00    -0.365 N 
HETATM   26  C   UNL     1      43.882 -18.119   3.488  1.00  0.00     0.002 A 
HETATM   27  C   UNL     1      42.684 -17.577   3.031  1.00  0.00     0.001 A 
HETATM   28  H   UNL     1      44.373 -17.185   7.567  1.00  0.00     0.165 HD
HETATM   29  C   UNL     1      42.533 -16.143   7.416  1.00  0.00     0.097 A 
ENDBRANCH  19  20
ENDBRANCH   2  19
TORSDOF 6
ENDMDL
MODEL 8
REMARK VINA RESULT:      -7.8      2.562      6.625
REMARK  6 active torsions:
REMARK  status: ('A' for Active; 'I' for Inactive)
REMARK    1  A    between atoms: C_4  and  C_5 
REMARK    2  A    between atoms: C_5  and  N_6 
REMARK    3  A    between atoms: N_6  and  N_7 
REMARK    4  A    between atoms: N_6  and  C_21 
REMARK       I    between atoms: N_7  and  C_8 
REMARK    5  A    between atoms: C_8  and  C_9 
REMARK    6  A    between atoms: C_9  and  C_10 
ROOT
HETATM    1  N   UNL     1      43.776 -12.996   6.462  1.00  0.00    -0.267 N 
HETATM    2  C   UNL     1      42.496 -13.543   6.510  1.00  0.00     0.240 C 
HETATM    3  O   UNL     1      41.482 -12.946   6.154  1.00  0.00    -0.272 OA
HETATM    4  H   UNL     1      44.608 -13.482   6.774  1.00  0.00     0.190 HD
ENDROOT
BRANCH   1   5
HETATM    5  N   UNL     1      43.985 -11.708   5.918  1.00  0.00    -0.286 N 
BRANCH   5   6
HETATM    6  C   UNL     1      44.489 -11.694   4.530  1.00  0.00     0.187 C 
BRANCH   6   7
HETATM    7  C   UNL     1      43.382 -11.912   3.515  1.00  0.00    -0.038 A 
HETATM    8  C   UNL     1      42.501 -10.868   3.199  1.00  0.00     0.009 A 
HETATM    9  C   UNL     1      41.509 -11.042   2.230  1.00  0.00     0.001 A 
HETATM   10  C   UNL     1      41.396 -12.258   1.559  1.00  0.00     0.000 A 
HETATM   11  C   UNL     1      42.273 -13.299   1.852  1.00  0.00     0.001 A 
HETATM   12  C   UNL     1      43.263 -13.126   2.820  1.00  0.00     0.009 A 
ENDBRANCH   6   7
ENDBRANCH   5   6
BRANCH   5  13
HETATM   13  C   UNL     1      44.380 -10.739   6.865  1.00  0.00     0.051 A 
HETATM   14  C   UNL     1      43.430  -9.877   7.451  1.00  0.00     0.031 A 
HETATM   15  C   UNL     1      43.789  -8.902   8.389  1.00  0.00     0.002 A 
HETATM   16  C   UNL     1      45.118  -8.757   8.767  1.00  0.00     0.000 A 
HETATM   17  C   UNL     1      46.082  -9.579   8.196  1.00  0.00     0.002 A 
HETATM   18  C   UNL     1      45.716 -10.549   7.253  1.00  0.00     0.031 A 
ENDBRANCH   5  13
ENDBRANCH   1   5
BRANCH   2  19
HETATM   19  C   UNL     1      42.509 -14.976   7.024  1.00  0.00     0.145 C 
BRANCH  19  20
HETATM   20  C   UNL     1      43.193 -15.934   6.101  1.00  0.00    -0.021 A 
HETATM   21  C   UNL     1      42.720 -16.369   4.820  1.00  0.00    -0.001 A 
HETATM   22  C   UNL     1      43.675 -17.238   4.293  1.00  0.00     0.042 A 
HETATM   23  C   UNL     1      41.560 -16.105   4.062  1.00  0.00     0.014 A 
HETATM   24  C   UNL     1      43.534 -17.850   3.041  1.00  0.00     0.030 A 
HETATM   25  N   UNL     1      44.684 -17.340   5.221  1.00  0.00    -0.365 N 
HETATM   26  C   UNL     1      42.379 -17.566   2.308  1.00  0.00     0.002 A 
HETATM   27  C   UNL     1      41.403 -16.707   2.809  1.00  0.00     0.001 A 
HETATM   28  H   UNL     1      45.506 -17.915   5.109  1.00  0.00     0.165 HD
HETATM   29  C   UNL     1      44.410 -16.554   6.309  1.00  0.00     0.097 A 
ENDBRANCH  19  20
ENDBRANCH   2  19
TORSDOF 6
ENDMDL
MODEL 9
REMARK VINA RESULT:      -7.6      2.984      5.569
REMARK  6 active torsions:
REMARK  status: ('A' for Active; 'I' for Inactive)
REMARK    1  A    between atoms: C_4  and  C_5 
REMARK    2  A    between atoms: C_5  and  N_6 
REMARK    3  A    between atoms: N_6  and  N_7 
REMARK    4  A    between atoms: N_6  and  C_21 
REMARK       I    between atoms: N_7  and  C_8 
REMARK    5  A    between atoms: C_8  and  C_9 
REMARK    6  A    between atoms: C_9  and  C_10 
ROOT
HETATM    1  N   UNL     1      41.668 -14.630   3.200  1.00  0.00    -0.267 N 
HETATM    2  C   UNL     1      40.567 -14.326   2.404  1.00  0.00     0.240 C 
HETATM    3  O   UNL     1      39.522 -14.974   2.403  1.00  0.00    -0.272 OA
HETATM    4  H   UNL     1      42.536 -14.108   3.185  1.00  0.00     0.190 HD
ENDROOT
BRANCH   1   5
HETATM    5  N   UNL     1      41.610 -15.695   4.129  1.00  0.00    -0.286 N 
BRANCH   5   6
HETATM    6  C   UNL     1      41.339 -15.289   5.523  1.00  0.00     0.187 C 
BRANCH   6   7
HETATM    7  C   UNL     1      42.082 -14.023   5.907  1.00  0.00    -0.038 A 
HETATM    8  C   UNL     1      43.428 -14.087   6.298  1.00  0.00     0.009 A 
HETATM    9  C   UNL     1      44.135 -12.922   6.606  1.00  0.00     0.001 A 
HETATM   10  C   UNL     1      43.509 -11.681   6.516  1.00  0.00     0.000 A 
HETATM   11  C   UNL     1      42.177 -11.601   6.115  1.00  0.00     0.001 A 
HETATM   12  C   UNL     1      41.470 -12.763   5.808  1.00  0.00     0.009 A 
ENDBRANCH   6   7
ENDBRANCH   5   6
BRANCH   5  13
HETATM   13  C   UNL     1      42.458 -16.779   3.818  1.00  0.00     0.051 A 
HETATM   14  C   UNL     1      42.347 -17.448   2.582  1.00  0.00     0.031 A 
HETATM   15  C   UNL     1      43.169 -18.530   2.245  1.00  0.00     0.002 A 
HETATM   16  C   UNL     1      44.128 -18.980   3.143  1.00  0.00     0.000 A 
HETATM   17  C   UNL     1      44.253 -18.354   4.378  1.00  0.00     0.002 A 
HETATM   18  C   UNL     1      43.422 -17.274   4.710  1.00  0.00     0.031 A 
ENDBRANCH   5  13
ENDBRANCH   1   5
BRANCH   2  19
HETATM   19  C   UNL     1      40.801 -13.081   1.561  1.00  0.00     0.145 C 
BRANCH  19  20
HETATM   20  C   UNL     1      39.637 -12.720   0.695  1.00  0.00    -0.021 A 
HETATM   21  C   UNL     1      39.344 -13.251  -0.604  1.00  0.00    -0.001 A 
HETATM   22  C   UNL     1      38.158 -12.661  -1.040  1.00  0.00     0.042 A 
HETATM   23  C   UNL     1      39.984 -14.179  -1.451  1.00  0.00     0.014 A 
HETATM   24  C   UNL     1      37.574 -12.959  -2.278  1.00  0.00     0.030 A 
HETATM   25  N   UNL     1      37.751 -11.794  -0.053  1.00  0.00    -0.365 N 
HETATM   26  C   UNL     1      38.226 -13.886  -3.095  1.00  0.00     0.002 A 
HETATM   27  C   UNL     1      39.415 -14.488  -2.691  1.00  0.00     0.001 A 
HETATM   28  H   UNL     1      36.923 -11.219  -0.106  1.00  0.00     0.165 HD
HETATM   29  C   UNL     1      38.627 -11.827   0.998  1.00  0.00     0.097 A 
ENDBRANCH  19  20
ENDBRANCH   2  19
TORSDOF 6
ENDMDL
MODEL 10
REMARK VINA RESULT:      -7.6      2.013      3.946
REMARK  6 active torsions:
REMARK  status: ('A' for Active; 'I' for Inactive)
REMARK    1  A    between atoms: C_4  and  C_5 
REMARK    2  A    between atoms: C_5  and  N_6 
REMARK    3  A    between atoms: N_6  and  N_7 
REMARK    4  A    between atoms: N_6  and  C_21 
REMARK       I    between atoms: N_7  and  C_8 
REMARK    5  A    between atoms: C_8  and  C_9 
REMARK    6  A    between atoms: C_9  and  C_10 
ROOT
HETATM    1  N   UNL     1      43.177 -16.399   2.859  1.00  0.00    -0.267 N 
HETATM    2  C   UNL     1      41.949 -16.048   2.305  1.00  0.00     0.240 C 
HETATM    3  O   UNL     1      40.863 -16.358   2.792  1.00  0.00    -0.272 OA
HETATM    4  H   UNL     1      44.070 -16.160   2.446  1.00  0.00     0.190 HD
ENDROOT
BRANCH   1   5
HETATM    5  N   UNL     1      43.236 -17.093   4.090  1.00  0.00    -0.286 N 
BRANCH   5   6
HETATM    6  C   UNL     1      43.729 -16.294   5.231  1.00  0.00     0.187 C 
BRANCH   6   7
HETATM    7  C   UNL     1      42.755 -15.202   5.630  1.00  0.00    -0.038 A 
HETATM    8  C   UNL     1      43.147 -13.856   5.579  1.00  0.00     0.009 A 
HETATM    9  C   UNL     1      42.243 -12.839   5.897  1.00  0.00     0.001 A 
HETATM   10  C   UNL     1      40.935 -13.156   6.257  1.00  0.00     0.000 A 
HETATM   11  C   UNL     1      40.527 -14.486   6.299  1.00  0.00     0.001 A 
HETATM   12  C   UNL     1      41.429 -15.503   5.982  1.00  0.00     0.009 A 
ENDBRANCH   6   7
ENDBRANCH   5   6
BRANCH   5  13
HETATM   13  C   UNL     1      43.523 -18.469   3.963  1.00  0.00     0.051 A 
HETATM   14  C   UNL     1      43.931 -19.224   5.081  1.00  0.00     0.031 A 
HETATM   15  C   UNL     1      44.228 -20.590   4.989  1.00  0.00     0.002 A 
HETATM   16  C   UNL     1      44.129 -21.241   3.766  1.00  0.00     0.000 A 
HETATM   17  C   UNL     1      43.745 -20.522   2.640  1.00  0.00     0.002 A 
HETATM   18  C   UNL     1      43.456 -19.154   2.739  1.00  0.00     0.031 A 
ENDBRANCH   5  13
ENDBRANCH   1   5
BRANCH   2  19
HETATM   19  C   UNL     1      42.112 -15.211   1.045  1.00  0.00     0.145 C 
BRANCH  19  20
HETATM   20  C   UNL     1      40.920 -14.364   0.733  1.00  0.00    -0.021 A 
HETATM   21  C   UNL     1      40.495 -13.194   1.443  1.00  0.00    -0.001 A 
HETATM   22  C   UNL     1      39.358 -12.704   0.802  1.00  0.00     0.042 A 
HETATM   23  C   UNL     1      40.975 -12.509   2.579  1.00  0.00     0.014 A 
HETATM   24  C   UNL     1      38.680 -11.557   1.234  1.00  0.00     0.030 A 
HETATM   25  N   UNL     1      39.091 -13.549  -0.249  1.00  0.00    -0.365 N 
HETATM   26  C   UNL     1      39.180 -10.894   2.358  1.00  0.00     0.002 A 
HETATM   27  C   UNL     1      40.310 -11.362   3.024  1.00  0.00     0.001 A 
HETATM   28  H   UNL     1      38.312 -13.442  -0.883  1.00  0.00     0.165 HD
HETATM   29  C   UNL     1      40.028 -14.545  -0.307  1.00  0.00     0.097 A 
ENDBRANCH  19  20
ENDBRANCH   2  19
TORSDOF 6
ENDMDL
