MODEL 1
REMARK VINA RESULT:      -8.9      0.000      0.000
REMARK  9 active torsions:
REMARK  status: ('A' for Active; 'I' for Inactive)
REMARK    1  A    between atoms: C_2  and  C_3 
REMARK    2  A    between atoms: C_8  and  O_9 
REMARK    3  A    between atoms: C_10  and  C_11 
REMARK    4  A    between atoms: C_11  and  N_12 
REMARK       I    between atoms: N_12  and  C_13 
REMARK    5  A    between atoms: N_12  and  C_23 
REMARK       I    between atoms: C_13  and  N_14 
REMARK    6  A    between atoms: N_14  and  C_15 
REMARK    7  A    between atoms: C_23  and  C_24 
REMARK    8  A    between atoms: C_24  and  C_25 
REMARK    9  A    between atoms: C_25  and  N_26 
ROOT
HETATM    1  N   UNL     1      40.784 -12.559   2.793  1.00  0.00    -0.330 N 
HETATM    2  C   UNL     1      39.845 -12.999   1.870  1.00  0.00     0.323 C 
HETATM    3  N   UNL     1      40.229 -12.842   0.561  1.00  0.00    -0.309 N 
HETATM    4  O   UNL     1      38.702 -13.284   2.219  1.00  0.00    -0.247 OA
HETATM    5  H   UNL     1      41.175 -12.521   0.396  1.00  0.00     0.170 HD
ENDROOT
BRANCH   1   6
HETATM    6  C   UNL     1      40.641 -13.081   4.167  1.00  0.00     0.170 C 
BRANCH   6   7
HETATM    7  C   UNL     1      41.527 -14.248   4.499  1.00  0.00     0.013 A 
HETATM    8  C   UNL     1      42.083 -14.380   5.759  1.00  0.00     0.170 A 
HETATM    9  N   UNL     1      42.884 -15.371   6.170  1.00  0.00    -0.224 NA
HETATM   10  C   UNL     1      43.178 -16.332   5.278  1.00  0.00     0.070 A 
HETATM   11  C   UNL     1      42.696 -16.304   3.951  1.00  0.00    -0.006 A 
HETATM   12  C   UNL     1      43.984 -17.393   5.661  1.00  0.00     0.033 A 
HETATM   13  C   UNL     1      43.033 -17.334   3.055  1.00  0.00     0.021 A 
HETATM   14  C   UNL     1      41.874 -15.231   3.570  1.00  0.00     0.027 A 
HETATM   15  C   UNL     1      43.835 -18.407   3.465  1.00  0.00    -0.058 A 
HETATM   16  C   UNL     1      44.316 -18.423   4.776  1.00  0.00     0.009 A 
BRANCH   8  17
HETATM   17  O   UNL     1      41.852 -13.461   6.732  1.00  0.00    -0.344 OA
HETATM   18  H   UNL     1      42.749 -13.416   7.115  1.00  0.00     0.219 HD
ENDBRANCH   8  17
BRANCH  15  19
HETATM   19  C   UNL     1      44.196 -19.512   2.505  1.00  0.00     0.034 C 
HETATM   20  C   UNL     1      42.962 -20.173   1.910  1.00  0.00     0.010 C 
ENDBRANCH  15  19
ENDBRANCH   6   7
ENDBRANCH   1   6
BRANCH   1  21
HETATM   21  C   UNL     1      41.204 -11.157   2.706  1.00  0.00     0.129 C 
BRANCH  21  22
HETATM   22  C   UNL     1      42.517 -10.827   3.447  1.00  0.00     0.048 C 
BRANCH  22  23
HETATM   23  C   UNL     1      42.383 -10.197   4.839  1.00  0.00     0.236 C 
BRANCH  23  24
HETATM   24  N   UNL     1      43.085 -10.914   5.961  1.00  0.00    -0.067 N 
HETATM   25  H   UNL     1      42.559 -11.754   6.245  1.00  0.00     0.280 HD
HETATM   26  C   UNL     1      44.476 -11.451   5.628  1.00  0.00     0.261 C 
HETATM   27  C   UNL     1      45.088 -12.121   6.867  1.00  0.00     0.195 C 
HETATM   28  O   UNL     1      45.151 -11.202   7.966  1.00  0.00    -0.388 OA
HETATM   29  C   UNL     1      43.842 -10.773   8.353  1.00  0.00     0.195 C 
HETATM   30  C   UNL     1      43.157 -10.028   7.207  1.00  0.00     0.261 C 
ENDBRANCH  23  24
ENDBRANCH  22  23
ENDBRANCH  21  22
ENDBRANCH   1  21
BRANCH   3  31
HETATM   31  C   UNL     1      39.471 -13.196  -0.574  1.00  0.00     0.037 A 
HETATM   32  C   UNL     1      38.564 -12.254  -1.070  1.00  0.00     0.053 A 
HETATM   33  C   UNL     1      37.767 -12.568  -2.174  1.00  0.00     0.036 A 
HETATM   34 CL   UNL     1      36.604 -11.429  -2.730  1.00  0.00    -0.084 Cl
HETATM   35  C   UNL     1      37.892 -13.796  -2.817  1.00  0.00     0.024 A 
HETATM   36  C   UNL     1      38.818 -14.725  -2.347  1.00  0.00     0.004 A 
HETATM   37  C   UNL     1      39.596 -14.428  -1.225  1.00  0.00     0.029 A 
ENDBRANCH   3  31
TORSDOF 9
ENDMDL
MODEL 2
REMARK VINA RESULT:      -8.8      2.952      8.155
REMARK  9 active torsions:
REMARK  status: ('A' for Active; 'I' for Inactive)
REMARK    1  A    between atoms: C_2  and  C_3 
REMARK    2  A    between atoms: C_8  and  O_9 
REMARK    3  A    between atoms: C_10  and  C_11 
REMARK    4  A    between atoms: C_11  and  N_12 
REMARK       I    between atoms: N_12  and  C_13 
REMARK    5  A    between atoms: N_12  and  C_23 
REMARK       I    between atoms: C_13  and  N_14 
REMARK    6  A    between atoms: N_14  and  C_15 
REMARK    7  A    between atoms: C_23  and  C_24 
REMARK    8  A    between atoms: C_24  and  C_25 
REMARK    9  A    between atoms: C_25  and  N_26 
ROOT
HETATM    1  N   UNL     1      42.517 -13.471   3.250  1.00  0.00    -0.330 N 
HETATM    2  C   UNL     1      42.560 -14.733   3.826  1.00  0.00     0.323 C 
HETATM    3  N   UNL     1      43.360 -15.627   3.160  1.00  0.00    -0.309 N 
HETATM    4  O   UNL     1      41.768 -15.049   4.711  1.00  0.00    -0.247 OA
HETATM    5  H   UNL     1      43.909 -15.266   2.389  1.00  0.00     0.170 HD
ENDROOT
BRANCH   1   6
HETATM    6  C   UNL     1      42.052 -12.372   4.121  1.00  0.00     0.170 C 
BRANCH   6   7
HETATM    7  C   UNL     1      43.080 -11.838   5.076  1.00  0.00     0.013 A 
HETATM    8  C   UNL     1      44.350 -11.505   4.639  1.00  0.00     0.170 A 
HETATM    9  N   UNL     1      45.345 -11.022   5.394  1.00  0.00    -0.224 NA
HETATM   10  C   UNL     1      45.092 -10.844   6.702  1.00  0.00     0.070 A 
HETATM   11  C   UNL     1      43.846 -11.168   7.281  1.00  0.00    -0.006 A 
HETATM   12  C   UNL     1      46.082 -10.325   7.522  1.00  0.00     0.033 A 
HETATM   13  C   UNL     1      43.631 -10.962   8.656  1.00  0.00     0.021 A 
HETATM   14  C   UNL     1      42.844 -11.687   6.444  1.00  0.00     0.027 A 
HETATM   15  C   UNL     1      44.637 -10.421   9.465  1.00  0.00    -0.058 A 
HETATM   16  C   UNL     1      45.870 -10.112   8.887  1.00  0.00     0.009 A 
BRANCH   8  17
HETATM   17  O   UNL     1      44.709 -11.652   3.337  1.00  0.00    -0.344 OA
HETATM   18  H   UNL     1      44.885 -12.612   3.335  1.00  0.00     0.219 HD
ENDBRANCH   8  17
BRANCH  15  19
HETATM   19  C   UNL     1      44.407 -10.199  10.938  1.00  0.00     0.034 C 
HETATM   20  C   UNL     1      43.491  -9.013  11.198  1.00  0.00     0.010 C 
ENDBRANCH  15  19
ENDBRANCH   6   7
ENDBRANCH   1   6
BRANCH   1  21
HETATM   21  C   UNL     1      42.072 -13.383   1.856  1.00  0.00     0.129 C 
BRANCH  21  22
HETATM   22  C   UNL     1      40.607 -13.805   1.616  1.00  0.00     0.048 C 
BRANCH  22  23
HETATM   23  C   UNL     1      39.708 -12.792   0.895  1.00  0.00     0.236 C 
BRANCH  23  24
HETATM   24  N   UNL     1      39.681 -12.881  -0.608  1.00  0.00    -0.067 N 
HETATM   25  H   UNL     1      38.854 -12.398  -0.989  1.00  0.00     0.280 HD
HETATM   26  C   UNL     1      40.854 -12.216  -1.326  1.00  0.00     0.261 C 
HETATM   27  C   UNL     1      40.719 -12.416  -2.842  1.00  0.00     0.195 C 
HETATM   28  O   UNL     1      40.652 -13.810  -3.169  1.00  0.00    -0.388 OA
HETATM   29  C   UNL     1      39.498 -14.421  -2.585  1.00  0.00     0.195 C 
HETATM   30  C   UNL     1      39.557 -14.338  -1.059  1.00  0.00     0.261 C 
ENDBRANCH  23  24
ENDBRANCH  22  23
ENDBRANCH  21  22
ENDBRANCH   1  21
BRANCH   3  31
HETATM   31  C   UNL     1      43.580 -16.973   3.520  1.00  0.00     0.037 A 
HETATM   32  C   UNL     1      43.464 -17.941   2.518  1.00  0.00     0.053 A 
HETATM   33  C   UNL     1      43.641 -19.291   2.830  1.00  0.00     0.036 A 
HETATM   34 CL   UNL     1      43.425 -20.479   1.604  1.00  0.00    -0.084 Cl
HETATM   35  C   UNL     1      43.974 -19.687   4.123  1.00  0.00     0.024 A 
HETATM   36  C   UNL     1      44.123 -18.722   5.117  1.00  0.00     0.004 A 
HETATM   37  C   UNL     1      43.917 -17.373   4.818  1.00  0.00     0.029 A 
ENDBRANCH   3  31
TORSDOF 9
ENDMDL
MODEL 3
REMARK VINA RESULT:      -8.7      3.424      7.622
REMARK  9 active torsions:
REMARK  status: ('A' for Active; 'I' for Inactive)
REMARK    1  A    between atoms: C_2  and  C_3 
REMARK    2  A    between atoms: C_8  and  O_9 
REMARK    3  A    between atoms: C_10  and  C_11 
REMARK    4  A    between atoms: C_11  and  N_12 
REMARK       I    between atoms: N_12  and  C_13 
REMARK    5  A    between atoms: N_12  and  C_23 
REMARK       I    between atoms: C_13  and  N_14 
REMARK    6  A    between atoms: N_14  and  C_15 
REMARK    7  A    between atoms: C_23  and  C_24 
REMARK    8  A    between atoms: C_24  and  C_25 
REMARK    9  A    between atoms: C_25  and  N_26 
ROOT
HETATM    1  N   UNL     1      42.478 -12.461   5.140  1.00  0.00    -0.330 N 
HETATM    2  C   UNL     1      43.382 -11.633   5.789  1.00  0.00     0.323 C 
HETATM    3  N   UNL     1      43.302 -11.679   7.158  1.00  0.00    -0.309 N 
HETATM    4  O   UNL     1      44.020 -10.785   5.168  1.00  0.00    -0.247 OA
HETATM    5  H   UNL     1      42.677 -12.367   7.558  1.00  0.00     0.170 HD
ENDROOT
BRANCH   1   6
HETATM    6  C   UNL     1      42.789 -12.791   3.734  1.00  0.00     0.170 C 
BRANCH   6   7
HETATM    7  C   UNL     1      43.037 -14.247   3.461  1.00  0.00     0.013 A 
HETATM    8  C   UNL     1      43.175 -14.713   2.166  1.00  0.00     0.170 A 
HETATM    9  N   UNL     1      43.397 -15.983   1.801  1.00  0.00    -0.224 NA
HETATM   10  C   UNL     1      43.494 -16.895   2.783  1.00  0.00     0.070 A 
HETATM   11  C   UNL     1      43.347 -16.556   4.146  1.00  0.00    -0.006 A 
HETATM   12  C   UNL     1      43.747 -18.219   2.459  1.00  0.00     0.033 A 
HETATM   13  C   UNL     1      43.457 -17.548   5.137  1.00  0.00     0.021 A 
HETATM   14  C   UNL     1      43.098 -15.212   4.469  1.00  0.00     0.027 A 
HETATM   15  C   UNL     1      43.729 -18.878   4.791  1.00  0.00    -0.058 A 
HETATM   16  C   UNL     1      43.865 -19.207   3.441  1.00  0.00     0.009 A 
BRANCH   8  17
HETATM   17  O   UNL     1      43.090 -13.874   1.102  1.00  0.00    -0.344 OA
HETATM   18  H   UNL     1      43.287 -14.511   0.389  1.00  0.00     0.219 HD
ENDBRANCH   8  17
BRANCH  15  19
HETATM   19  C   UNL     1      43.849 -19.942   5.852  1.00  0.00     0.034 C 
HETATM   20  C   UNL     1      43.867 -21.341   5.255  1.00  0.00     0.010 C 
ENDBRANCH  15  19
ENDBRANCH   6   7
ENDBRANCH   1   6
BRANCH   1  21
HETATM   21  C   UNL     1      41.055 -12.254   5.423  1.00  0.00     0.129 C 
BRANCH  21  22
HETATM   22  C   UNL     1      40.162 -12.088   4.176  1.00  0.00     0.048 C 
BRANCH  22  23
HETATM   23  C   UNL     1      39.153 -13.209   3.896  1.00  0.00     0.236 C 
BRANCH  23  24
HETATM   24  N   UNL     1      39.154 -13.769   2.499  1.00  0.00    -0.067 N 
HETATM   25  H   UNL     1      38.191 -13.912   2.160  1.00  0.00     0.280 HD
HETATM   26  C   UNL     1      39.785 -12.873   1.434  1.00  0.00     0.261 C 
HETATM   27  C   UNL     1      39.754 -13.581   0.071  1.00  0.00     0.195 C 
HETATM   28  O   UNL     1      40.431 -14.843   0.135  1.00  0.00    -0.388 OA
HETATM   29  C   UNL     1      39.785 -15.727   1.055  1.00  0.00     0.195 C 
HETATM   30  C   UNL     1      39.814 -15.149   2.471  1.00  0.00     0.261 C 
ENDBRANCH  23  24
ENDBRANCH  22  23
ENDBRANCH  21  22
ENDBRANCH   1  21
BRANCH   3  31
HETATM   31  C   UNL     1      44.093 -10.939   8.062  1.00  0.00     0.037 A 
HETATM   32  C   UNL     1      43.514 -10.565   9.278  1.00  0.00     0.053 A 
HETATM   33  C   UNL     1      44.245  -9.806  10.194  1.00  0.00     0.036 A 
HETATM   34 CL   UNL     1      43.498  -9.289  11.655  1.00  0.00    -0.084 Cl
HETATM   35  C   UNL     1      45.565  -9.447   9.931  1.00  0.00     0.024 A 
HETATM   36  C   UNL     1      46.157  -9.847   8.735  1.00  0.00     0.004 A 
HETATM   37  C   UNL     1      45.420 -10.581   7.801  1.00  0.00     0.029 A 
ENDBRANCH   3  31
TORSDOF 9
ENDMDL
MODEL 4
REMARK VINA RESULT:      -8.6      2.992      8.307
REMARK  9 active torsions:
REMARK  status: ('A' for Active; 'I' for Inactive)
REMARK    1  A    between atoms: C_2  and  C_3 
REMARK    2  A    between atoms: C_8  and  O_9 
REMARK    3  A    between atoms: C_10  and  C_11 
REMARK    4  A    between atoms: C_11  and  N_12 
REMARK       I    between atoms: N_12  and  C_13 
REMARK    5  A    between atoms: N_12  and  C_23 
REMARK       I    between atoms: C_13  and  N_14 
REMARK    6  A    between atoms: N_14  and  C_15 
REMARK    7  A    between atoms: C_23  and  C_24 
REMARK    8  A    between atoms: C_24  and  C_25 
REMARK    9  A    between atoms: C_25  and  N_26 
ROOT
HETATM    1  N   UNL     1      42.135 -14.195   4.002  1.00  0.00    -0.330 N 
HETATM    2  C   UNL     1      42.094 -15.574   4.154  1.00  0.00     0.323 C 
HETATM    3  N   UNL     1      43.310 -16.192   3.999  1.00  0.00    -0.309 N 
HETATM    4  O   UNL     1      41.021 -16.173   4.194  1.00  0.00    -0.247 OA
HETATM    5  H   UNL     1      44.118 -15.593   3.891  1.00  0.00     0.170 HD
ENDROOT
BRANCH   1   6
HETATM    6  C   UNL     1      40.998 -13.443   4.571  1.00  0.00     0.170 C 
BRANCH   6   7
HETATM    7  C   UNL     1      41.373 -12.212   5.345  1.00  0.00     0.013 A 
HETATM    8  C   UNL     1      40.523 -11.122   5.400  1.00  0.00     0.170 A 
HETATM    9  N   UNL     1      40.747  -9.976   6.054  1.00  0.00    -0.224 NA
HETATM   10  C   UNL     1      41.908  -9.868   6.723  1.00  0.00     0.070 A 
HETATM   11  C   UNL     1      42.875 -10.897   6.727  1.00  0.00    -0.006 A 
HETATM   12  C   UNL     1      42.178  -8.710   7.436  1.00  0.00     0.033 A 
HETATM   13  C   UNL     1      44.075 -10.736   7.442  1.00  0.00     0.021 A 
HETATM   14  C   UNL     1      42.593 -12.071   6.009  1.00  0.00     0.027 A 
HETATM   15  C   UNL     1      44.323  -9.566   8.170  1.00  0.00    -0.058 A 
HETATM   16  C   UNL     1      43.366  -8.549   8.154  1.00  0.00     0.009 A 
BRANCH   8  17
HETATM   17  O   UNL     1      39.327 -11.127   4.755  1.00  0.00    -0.344 OA
HETATM   18  H   UNL     1      39.139 -12.085   4.790  1.00  0.00     0.219 HD
ENDBRANCH   8  17
BRANCH  15  19
HETATM   19  C   UNL     1      45.609  -9.392   8.939  1.00  0.00     0.034 C 
HETATM   20  C   UNL     1      45.440  -9.731  10.412  1.00  0.00     0.010 C 
ENDBRANCH  15  19
ENDBRANCH   6   7
ENDBRANCH   1   6
BRANCH   1  21
HETATM   21  C   UNL     1      42.643 -13.675   2.729  1.00  0.00     0.129 C 
BRANCH  21  22
HETATM   22  C   UNL     1      41.916 -14.204   1.475  1.00  0.00     0.048 C 
BRANCH  22  23
HETATM   23  C   UNL     1      41.048 -13.200   0.707  1.00  0.00     0.236 C 
BRANCH  23  24
HETATM   24  N   UNL     1      40.884 -13.456  -0.767  1.00  0.00    -0.067 N 
HETATM   25  H   UNL     1      41.623 -14.086  -1.114  1.00  0.00     0.280 HD
HETATM   26  C   UNL     1      39.588 -14.158  -1.171  1.00  0.00     0.261 C 
HETATM   27  C   UNL     1      39.537 -14.320  -2.697  1.00  0.00     0.195 C 
HETATM   28  O   UNL     1      39.647 -13.049  -3.350  1.00  0.00    -0.388 OA
HETATM   29  C   UNL     1      40.902 -12.429  -3.061  1.00  0.00     0.195 C 
HETATM   30  C   UNL     1      41.038 -12.157  -1.561  1.00  0.00     0.261 C 
ENDBRANCH  23  24
ENDBRANCH  22  23
ENDBRANCH  21  22
ENDBRANCH   1  21
BRANCH   3  31
HETATM   31  C   UNL     1      43.555 -17.578   4.094  1.00  0.00     0.037 A 
HETATM   32  C   UNL     1      43.543 -18.323   2.910  1.00  0.00     0.053 A 
HETATM   33  C   UNL     1      43.750 -19.703   2.953  1.00  0.00     0.036 A 
HETATM   34 CL   UNL     1      43.661 -20.619   1.500  1.00  0.00    -0.084 Cl
HETATM   35  C   UNL     1      44.009 -20.348   4.160  1.00  0.00     0.024 A 
HETATM   36  C   UNL     1      44.055 -19.605   5.337  1.00  0.00     0.004 A 
HETATM   37  C   UNL     1      43.819 -18.228   5.304  1.00  0.00     0.029 A 
ENDBRANCH   3  31
TORSDOF 9
ENDMDL
MODEL 5
REMARK VINA RESULT:      -8.3      1.618      2.310
REMARK  9 active torsions:
REMARK  status: ('A' for Active; 'I' for Inactive)
REMARK    1  A    between atoms: C_2  and  C_3 
REMARK    2  A    between atoms: C_8  and  O_9 
REMARK    3  A    between atoms: C_10  and  C_11 
REMARK    4  A    between atoms: C_11  and  N_12 
REMARK       I    between atoms: N_12  and  C_13 
REMARK    5  A    between atoms: N_12  and  C_23 
REMARK       I    between atoms: C_13  and  N_14 
REMARK    6  A    between atoms: N_14  and  C_15 
REMARK    7  A    between atoms: C_23  and  C_24 
REMARK    8  A    between atoms: C_24  and  C_25 
REMARK    9  A    between atoms: C_25  and  N_26 
ROOT
HETATM    1  N   UNL     1      41.432 -13.061   2.707  1.00  0.00    -0.330 N 
HETATM    2  C   UNL     1      40.324 -13.187   1.880  1.00  0.00     0.323 C 
HETATM    3  N   UNL     1      40.627 -13.243   0.543  1.00  0.00    -0.309 N 
HETATM    4  O   UNL     1      39.187 -13.028   2.319  1.00  0.00    -0.247 OA
HETATM    5  H   UNL     1      41.608 -13.288   0.296  1.00  0.00     0.170 HD
ENDROOT
BRANCH   1   6
HETATM    6  C   UNL     1      41.231 -13.429   4.124  1.00  0.00     0.170 C 
BRANCH   6   7
HETATM    7  C   UNL     1      41.880 -14.715   4.547  1.00  0.00     0.013 A 
HETATM    8  C   UNL     1      42.151 -14.969   5.879  1.00  0.00     0.170 A 
HETATM    9  N   UNL     1      42.725 -16.074   6.374  1.00  0.00    -0.224 NA
HETATM   10  C   UNL     1      43.072 -17.030   5.496  1.00  0.00     0.070 A 
HETATM   11  C   UNL     1      42.874 -16.886   4.105  1.00  0.00    -0.006 A 
HETATM   12  C   UNL     1      43.647 -18.203   5.959  1.00  0.00     0.033 A 
HETATM   13  C   UNL     1      43.255 -17.917   3.227  1.00  0.00     0.021 A 
HETATM   14  C   UNL     1      42.284 -15.699   3.641  1.00  0.00     0.027 A 
HETATM   15  C   UNL     1      43.819 -19.102   3.715  1.00  0.00    -0.058 A 
HETATM   16  C   UNL     1      44.020 -19.233   5.091  1.00  0.00     0.009 A 
BRANCH   8  17
HETATM   17  O   UNL     1      41.844 -14.065   6.846  1.00  0.00    -0.344 OA
HETATM   18  H   UNL     1      42.097 -14.590   7.630  1.00  0.00     0.219 HD
ENDBRANCH   8  17
BRANCH  15  19
HETATM   19  C   UNL     1      44.226 -20.208   2.775  1.00  0.00     0.034 C 
HETATM   20  C   UNL     1      43.253 -20.355   1.616  1.00  0.00     0.010 C 
ENDBRANCH  15  19
ENDBRANCH   6   7
ENDBRANCH   1   6
BRANCH   1  21
HETATM   21  C   UNL     1      42.307 -11.907   2.488  1.00  0.00     0.129 C 
BRANCH  21  22
HETATM   22  C   UNL     1      41.667 -10.538   2.803  1.00  0.00     0.048 C 
BRANCH  22  23
HETATM   23  C   UNL     1      41.909  -9.971   4.207  1.00  0.00     0.236 C 
BRANCH  23  24
HETATM   24  N   UNL     1      40.681  -9.729   5.045  1.00  0.00    -0.067 N 
HETATM   25  H   UNL     1      40.590  -8.730   5.281  1.00  0.00     0.280 HD
HETATM   26  C   UNL     1      39.351 -10.068   4.373  1.00  0.00     0.261 C 
HETATM   27  C   UNL     1      38.194  -9.811   5.349  1.00  0.00     0.195 C 
HETATM   28  O   UNL     1      38.360 -10.573   6.551  1.00  0.00    -0.388 OA
HETATM   29  C   UNL     1      39.552 -10.190   7.242  1.00  0.00     0.195 C 
HETATM   30  C   UNL     1      40.787 -10.465   6.383  1.00  0.00     0.261 C 
ENDBRANCH  23  24
ENDBRANCH  22  23
ENDBRANCH  21  22
ENDBRANCH   1  21
BRANCH   3  31
HETATM   31  C   UNL     1      39.700 -13.363  -0.514  1.00  0.00     0.037 A 
HETATM   32  C   UNL     1      38.906 -12.251  -0.811  1.00  0.00     0.053 A 
HETATM   33  C   UNL     1      37.951 -12.327  -1.828  1.00  0.00     0.036 A 
HETATM   34 CL   UNL     1      36.930 -10.978  -2.135  1.00  0.00    -0.084 Cl
HETATM   35  C   UNL     1      37.805 -13.488  -2.582  1.00  0.00     0.024 A 
HETATM   36  C   UNL     1      38.618 -14.587  -2.312  1.00  0.00     0.004 A 
HETATM   37  C   UNL     1      39.554 -14.526  -1.276  1.00  0.00     0.029 A 
ENDBRANCH   3  31
TORSDOF 9
ENDMDL
MODEL 6
REMARK VINA RESULT:      -8.3      3.559      7.469
REMARK  9 active torsions:
REMARK  status: ('A' for Active; 'I' for Inactive)
REMARK    1  A    between atoms: C_2  and  C_3 
REMARK    2  A    between atoms: C_8  and  O_9 
REMARK    3  A    between atoms: C_10  and  C_11 
REMARK    4  A    between atoms: C_11  and  N_12 
REMARK       I    between atoms: N_12  and  C_13 
REMARK    5  A    between atoms: N_12  and  C_23 
REMARK       I    between atoms: C_13  and  N_14 
REMARK    6  A    between atoms: N_14  and  C_15 
REMARK    7  A    between atoms: C_23  and  C_24 
REMARK    8  A    between atoms: C_24  and  C_25 
REMARK    9  A    between atoms: C_25  and  N_26 
ROOT
HETATM    1  N   UNL     1      42.608 -12.919   5.061  1.00  0.00    -0.330 N 
HETATM    2  C   UNL     1      43.411 -11.894   5.540  1.00  0.00     0.323 C 
HETATM    3  N   UNL     1      43.645 -11.949   6.891  1.00  0.00    -0.309 N 
HETATM    4  O   UNL     1      43.680 -10.922   4.838  1.00  0.00    -0.247 OA
HETATM    5  H   UNL     1      43.302 -12.765   7.383  1.00  0.00     0.170 HD
ENDROOT
BRANCH   1   6
HETATM    6  C   UNL     1      42.675 -13.173   3.607  1.00  0.00     0.170 C 
BRANCH   6   7
HETATM    7  C   UNL     1      42.850 -14.614   3.220  1.00  0.00     0.013 A 
HETATM    8  C   UNL     1      42.622 -15.032   1.921  1.00  0.00     0.170 A 
HETATM    9  N   UNL     1      42.744 -16.283   1.460  1.00  0.00    -0.224 NA
HETATM   10  C   UNL     1      43.124 -17.226   2.338  1.00  0.00     0.070 A 
HETATM   11  C   UNL     1      43.363 -16.938   3.700  1.00  0.00    -0.006 A 
HETATM   12  C   UNL     1      43.288 -18.533   1.905  1.00  0.00     0.033 A 
HETATM   13  C   UNL     1      43.759 -17.961   4.580  1.00  0.00     0.021 A 
HETATM   14  C   UNL     1      43.202 -15.611   4.131  1.00  0.00     0.027 A 
HETATM   15  C   UNL     1      43.935 -19.272   4.121  1.00  0.00    -0.058 A 
HETATM   16  C   UNL     1      43.688 -19.552   2.775  1.00  0.00     0.009 A 
BRANCH   8  17
HETATM   17  O   UNL     1      42.231 -14.158   0.957  1.00  0.00    -0.344 OA
HETATM   18  H   UNL     1      42.150 -13.354   1.504  1.00  0.00     0.219 HD
ENDBRANCH   8  17
BRANCH  15  19
HETATM   19  C   UNL     1      44.361 -20.369   5.063  1.00  0.00     0.034 C 
HETATM   20  C   UNL     1      43.586 -20.328   6.371  1.00  0.00     0.010 C 
ENDBRANCH  15  19
ENDBRANCH   6   7
ENDBRANCH   1   6
BRANCH   1  21
HETATM   21  C   UNL     1      41.274 -13.059   5.651  1.00  0.00     0.129 C 
BRANCH  21  22
HETATM   22  C   UNL     1      40.104 -12.833   4.670  1.00  0.00     0.048 C 
BRANCH  22  23
HETATM   23  C   UNL     1      39.594 -11.394   4.526  1.00  0.00     0.236 C 
BRANCH  23  24
HETATM   24  N   UNL     1      39.259 -10.946   3.128  1.00  0.00    -0.067 N 
HETATM   25  H   UNL     1      40.109 -10.649   2.625  1.00  0.00     0.280 HD
HETATM   26  C   UNL     1      38.656 -12.018   2.222  1.00  0.00     0.261 C 
HETATM   27  C   UNL     1      38.330 -11.417   0.848  1.00  0.00     0.195 C 
HETATM   28  O   UNL     1      37.437 -10.303   0.976  1.00  0.00    -0.388 OA
HETATM   29  C   UNL     1      38.034  -9.249   1.737  1.00  0.00     0.195 C 
HETATM   30  C   UNL     1      38.345  -9.719   3.159  1.00  0.00     0.261 C 
ENDBRANCH  23  24
ENDBRANCH  22  23
ENDBRANCH  21  22
ENDBRANCH   1  21
BRANCH   3  31
HETATM   31  C   UNL     1      44.417 -11.035   7.639  1.00  0.00     0.037 A 
HETATM   32  C   UNL     1      43.889 -10.575   8.849  1.00  0.00     0.053 A 
HETATM   33  C   UNL     1      44.600  -9.646   9.611  1.00  0.00     0.036 A 
HETATM   34 CL   UNL     1      43.907  -9.032  11.061  1.00  0.00    -0.084 Cl
HETATM   35  C   UNL     1      45.853  -9.198   9.202  1.00  0.00     0.024 A 
HETATM   36  C   UNL     1      46.398  -9.680   8.014  1.00  0.00     0.004 A 
HETATM   37  C   UNL     1      45.678 -10.587   7.232  1.00  0.00     0.029 A 
ENDBRANCH   3  31
TORSDOF 9
ENDMDL
MODEL 7
REMARK VINA RESULT:      -8.1      3.094      7.992
REMARK  9 active torsions:
REMARK  status: ('A' for Active; 'I' for Inactive)
REMARK    1  A    between atoms: C_2  and  C_3 
REMARK    2  A    between atoms: C_8  and  O_9 
REMARK    3  A    between atoms: C_10  and  C_11 
REMARK    4  A    between atoms: C_11  and  N_12 
REMARK       I    between atoms: N_12  and  C_13 
REMARK    5  A    between atoms: N_12  and  C_23 
REMARK       I    between atoms: C_13  and  N_14 
REMARK    6  A    between atoms: N_14  and  C_15 
REMARK    7  A    between atoms: C_23  and  C_24 
REMARK    8  A    between atoms: C_24  and  C_25 
REMARK    9  A    between atoms: C_25  and  N_26 
ROOT
HETATM    1  N   UNL     1      40.852 -13.954   2.254  1.00  0.00    -0.330 N 
HETATM    2  C   UNL     1      41.957 -14.742   2.544  1.00  0.00     0.323 C 
HETATM    3  N   UNL     1      41.648 -16.031   2.903  1.00  0.00    -0.309 N 
HETATM    4  O   UNL     1      43.072 -14.242   2.679  1.00  0.00    -0.247 OA
HETATM    5  H   UNL     1      40.677 -16.307   2.828  1.00  0.00     0.170 HD
ENDROOT
BRANCH   1   6
HETATM    6  C   UNL     1      41.112 -12.735   1.461  1.00  0.00     0.170 C 
BRANCH   6   7
HETATM    7  C   UNL     1      40.062 -12.405   0.439  1.00  0.00     0.013 A 
HETATM    8  C   UNL     1      40.013 -13.075  -0.770  1.00  0.00     0.170 A 
HETATM    9  N   UNL     1      39.128 -12.869  -1.754  1.00  0.00    -0.224 NA
HETATM   10  C   UNL     1      38.197 -11.921  -1.552  1.00  0.00     0.070 A 
HETATM   11  C   UNL     1      38.151 -11.145  -0.373  1.00  0.00    -0.006 A 
HETATM   12  C   UNL     1      37.244 -11.685  -2.530  1.00  0.00     0.033 A 
HETATM   13  C   UNL     1      37.157 -10.164  -0.210  1.00  0.00     0.021 A 
HETATM   14  C   UNL     1      39.116 -11.394   0.618  1.00  0.00     0.027 A 
HETATM   15  C   UNL     1      36.192  -9.952  -1.202  1.00  0.00    -0.058 A 
HETATM   16  C   UNL     1      36.249 -10.716  -2.370  1.00  0.00     0.009 A 
BRANCH   8  17
HETATM   17  O   UNL     1      40.911 -14.048  -1.074  1.00  0.00    -0.344 OA
HETATM   18  H   UNL     1      41.296 -14.183  -0.187  1.00  0.00     0.219 HD
ENDBRANCH   8  17
BRANCH  15  19
HETATM   19  C   UNL     1      35.124  -8.902  -1.028  1.00  0.00     0.034 C 
HETATM   20  C   UNL     1      33.832  -9.282  -1.736  1.00  0.00     0.010 C 
ENDBRANCH  15  19
ENDBRANCH   6   7
ENDBRANCH   1   6
BRANCH   1  21
HETATM   21  C   UNL     1      39.841 -13.802   3.304  1.00  0.00     0.129 C 
BRANCH  21  22
HETATM   22  C   UNL     1      40.037 -12.575   4.220  1.00  0.00     0.048 C 
BRANCH  22  23
HETATM   23  C   UNL     1      39.887 -12.811   5.729  1.00  0.00     0.236 C 
BRANCH  23  24
HETATM   24  N   UNL     1      41.137 -13.217   6.463  1.00  0.00    -0.067 N 
HETATM   25  H   UNL     1      41.100 -12.911   7.447  1.00  0.00     0.280 HD
HETATM   26  C   UNL     1      41.382 -14.723   6.558  1.00  0.00     0.261 C 
HETATM   27  C   UNL     1      42.703 -14.991   7.294  1.00  0.00     0.195 C 
HETATM   28  O   UNL     1      43.797 -14.342   6.633  1.00  0.00    -0.388 OA
HETATM   29  C   UNL     1      43.627 -12.922   6.630  1.00  0.00     0.195 C 
HETATM   30  C   UNL     1      42.365 -12.530   5.860  1.00  0.00     0.261 C 
ENDBRANCH  23  24
ENDBRANCH  22  23
ENDBRANCH  21  22
ENDBRANCH   1  21
BRANCH   3  31
HETATM   31  C   UNL     1      42.570 -17.039   3.253  1.00  0.00     0.037 A 
HETATM   32  C   UNL     1      42.740 -18.103   2.363  1.00  0.00     0.053 A 
HETATM   33  C   UNL     1      43.619 -19.142   2.678  1.00  0.00     0.036 A 
HETATM   34 CL   UNL     1      43.765 -20.482   1.609  1.00  0.00    -0.084 Cl
HETATM   35  C   UNL     1      44.363 -19.115   3.854  1.00  0.00     0.024 A 
HETATM   36  C   UNL     1      44.222 -18.039   4.728  1.00  0.00     0.004 A 
HETATM   37  C   UNL     1      43.322 -17.011   4.433  1.00  0.00     0.029 A 
ENDBRANCH   3  31
TORSDOF 9
ENDMDL
MODEL 8
REMARK VINA RESULT:      -8.0      3.628      7.429
REMARK  9 active torsions:
REMARK  status: ('A' for Active; 'I' for Inactive)
REMARK    1  A    between atoms: C_2  and  C_3 
REMARK    2  A    between atoms: C_8  and  O_9 
REMARK    3  A    between atoms: C_10  and  C_11 
REMARK    4  A    between atoms: C_11  and  N_12 
REMARK       I    between atoms: N_12  and  C_13 
REMARK    5  A    between atoms: N_12  and  C_23 
REMARK       I    between atoms: C_13  and  N_14 
REMARK    6  A    between atoms: N_14  and  C_15 
REMARK    7  A    between atoms: C_23  and  C_24 
REMARK    8  A    between atoms: C_24  and  C_25 
REMARK    9  A    between atoms: C_25  and  N_26 
ROOT
HETATM    1  N   UNL     1      41.308 -11.641   6.048  1.00  0.00    -0.330 N 
HETATM    2  C   UNL     1      41.377 -10.402   6.670  1.00  0.00     0.323 C 
HETATM    3  N   UNL     1      40.551 -10.274   7.758  1.00  0.00    -0.309 N 
HETATM    4  O   UNL     1      41.959  -9.460   6.138  1.00  0.00    -0.247 OA
HETATM    5  H   UNL     1      40.055 -11.105   8.058  1.00  0.00     0.170 HD
ENDROOT
BRANCH   1   6
HETATM    6  C   UNL     1      42.447 -11.997   5.176  1.00  0.00     0.170 C 
BRANCH   6   7
HETATM    7  C   UNL     1      42.853 -13.442   5.218  1.00  0.00     0.013 A 
HETATM    8  C   UNL     1      43.402 -13.992   6.362  1.00  0.00     0.170 A 
HETATM    9  N   UNL     1      43.800 -15.261   6.518  1.00  0.00    -0.224 NA
HETATM   10  C   UNL     1      43.656 -16.082   5.464  1.00  0.00     0.070 A 
HETATM   11  C   UNL     1      43.133 -15.642   4.228  1.00  0.00    -0.006 A 
HETATM   12  C   UNL     1      44.031 -17.412   5.581  1.00  0.00     0.033 A 
HETATM   13  C   UNL     1      43.002 -16.541   3.155  1.00  0.00     0.021 A 
HETATM   14  C   UNL     1      42.748 -14.295   4.118  1.00  0.00     0.027 A 
HETATM   15  C   UNL     1      43.372 -17.884   3.298  1.00  0.00    -0.058 A 
HETATM   16  C   UNL     1      43.896 -18.311   4.519  1.00  0.00     0.009 A 
BRANCH   8  17
HETATM   17  O   UNL     1      43.594 -13.246   7.481  1.00  0.00    -0.344 OA
HETATM   18  H   UNL     1      43.901 -13.951   8.083  1.00  0.00     0.219 HD
ENDBRANCH   8  17
BRANCH  15  19
HETATM   19  C   UNL     1      43.230 -18.850   2.148  1.00  0.00     0.034 C 
HETATM   20  C   UNL     1      43.583 -20.272   2.554  1.00  0.00     0.010 C 
ENDBRANCH  15  19
ENDBRANCH   6   7
ENDBRANCH   1   6
BRANCH   1  21
HETATM   21  C   UNL     1      39.997 -12.073   5.556  1.00  0.00     0.129 C 
BRANCH  21  22
HETATM   22  C   UNL     1      39.772 -11.869   4.043  1.00  0.00     0.048 C 
BRANCH  22  23
HETATM   23  C   UNL     1      39.452 -13.122   3.219  1.00  0.00     0.236 C 
BRANCH  23  24
HETATM   24  N   UNL     1      39.860 -13.085   1.770  1.00  0.00    -0.067 N 
HETATM   25  H   UNL     1      40.801 -12.675   1.665  1.00  0.00     0.280 HD
HETATM   26  C   UNL     1      39.978 -14.446   1.087  1.00  0.00     0.261 C 
HETATM   27  C   UNL     1      40.362 -14.258  -0.388  1.00  0.00     0.195 C 
HETATM   28  O   UNL     1      39.403 -13.435  -1.065  1.00  0.00    -0.388 OA
HETATM   29  C   UNL     1      39.360 -12.123  -0.497  1.00  0.00     0.195 C 
HETATM   30  C   UNL     1      38.921 -12.182   0.967  1.00  0.00     0.261 C 
ENDBRANCH  23  24
ENDBRANCH  22  23
ENDBRANCH  21  22
ENDBRANCH   1  21
BRANCH   3  31
HETATM   31  C   UNL     1      40.416  -9.127   8.568  1.00  0.00     0.037 A 
HETATM   32  C   UNL     1      41.424  -8.868   9.501  1.00  0.00     0.053 A 
HETATM   33  C   UNL     1      41.322  -7.762  10.348  1.00  0.00     0.036 A 
HETATM   34 CL   UNL     1      42.532  -7.494  11.541  1.00  0.00    -0.084 Cl
HETATM   35  C   UNL     1      40.245  -6.885  10.249  1.00  0.00     0.024 A 
HETATM   36  C   UNL     1      39.255  -7.121   9.298  1.00  0.00     0.004 A 
HETATM   37  C   UNL     1      39.337  -8.243   8.468  1.00  0.00     0.029 A 
ENDBRANCH   3  31
TORSDOF 9
ENDMDL
MODEL 9
REMARK VINA RESULT:      -7.8      2.573      6.192
REMARK  9 active torsions:
REMARK  status: ('A' for Active; 'I' for Inactive)
REMARK    1  A    between atoms: C_2  and  C_3 
REMARK    2  A    between atoms: C_8  and  O_9 
REMARK    3  A    between atoms: C_10  and  C_11 
REMARK    4  A    between atoms: C_11  and  N_12 
REMARK       I    between atoms: N_12  and  C_13 
REMARK    5  A    between atoms: N_12  and  C_23 
REMARK       I    between atoms: C_13  and  N_14 
REMARK    6  A    between atoms: N_14  and  C_15 
REMARK    7  A    between atoms: C_23  and  C_24 
REMARK    8  A    between atoms: C_24  and  C_25 
REMARK    9  A    between atoms: C_25  and  N_26 
ROOT
HETATM    1  N   UNL     1      41.070 -12.769   2.866  1.00  0.00    -0.330 N 
HETATM    2  C   UNL     1      40.801 -11.456   3.227  1.00  0.00     0.323 C 
HETATM    3  N   UNL     1      39.525 -11.251   3.689  1.00  0.00    -0.309 N 
HETATM    4  O   UNL     1      41.578 -10.549   2.934  1.00  0.00    -0.247 OA
HETATM    5  H   UNL     1      38.945 -12.072   3.814  1.00  0.00     0.170 HD
ENDROOT
BRANCH   1   6
HETATM    6  C   UNL     1      42.497 -13.143   2.786  1.00  0.00     0.170 C 
BRANCH   6   7
HETATM    7  C   UNL     1      42.864 -14.412   3.500  1.00  0.00     0.013 A 
HETATM    8  C   UNL     1      43.111 -14.413   4.862  1.00  0.00     0.170 A 
HETATM    9  N   UNL     1      43.445 -15.476   5.604  1.00  0.00    -0.224 NA
HETATM   10  C   UNL     1      43.551 -16.657   4.971  1.00  0.00     0.070 A 
HETATM   11  C   UNL     1      43.350 -16.790   3.580  1.00  0.00    -0.006 A 
HETATM   12  C   UNL     1      43.871 -17.793   5.699  1.00  0.00     0.033 A 
HETATM   13  C   UNL     1      43.474 -18.048   2.964  1.00  0.00     0.021 A 
HETATM   14  C   UNL     1      43.019 -15.637   2.849  1.00  0.00     0.027 A 
HETATM   15  C   UNL     1      43.782 -19.187   3.719  1.00  0.00    -0.058 A 
HETATM   16  C   UNL     1      43.988 -19.047   5.093  1.00  0.00     0.009 A 
BRANCH   8  17
HETATM   17  O   UNL     1      43.034 -13.271   5.594  1.00  0.00    -0.344 OA
HETATM   18  H   UNL     1      43.811 -12.804   5.230  1.00  0.00     0.219 HD
ENDBRANCH   8  17
BRANCH  15  19
HETATM   19  C   UNL     1      43.913 -20.537   3.061  1.00  0.00     0.034 C 
HETATM   20  C   UNL     1      43.502 -20.497   1.597  1.00  0.00     0.010 C 
ENDBRANCH  15  19
ENDBRANCH   6   7
ENDBRANCH   1   6
BRANCH   1  21
HETATM   21  C   UNL     1      40.216 -13.371   1.839  1.00  0.00     0.129 C 
BRANCH  21  22
HETATM   22  C   UNL     1      40.901 -13.594   0.474  1.00  0.00     0.048 C 
BRANCH  22  23
HETATM   23  C   UNL     1      40.759 -12.470  -0.560  1.00  0.00     0.236 C 
BRANCH  23  24
HETATM   24  N   UNL     1      39.768 -12.710  -1.667  1.00  0.00    -0.067 N 
HETATM   25  H   UNL     1      40.076 -12.255  -2.540  1.00  0.00     0.280 HD
HETATM   26  C   UNL     1      39.573 -14.172  -2.068  1.00  0.00     0.261 C 
HETATM   27  C   UNL     1      38.512 -14.273  -3.174  1.00  0.00     0.195 C 
HETATM   28  O   UNL     1      37.271 -13.696  -2.746  1.00  0.00    -0.388 OA
HETATM   29  C   UNL     1      37.421 -12.301  -2.468  1.00  0.00     0.195 C 
HETATM   30  C   UNL     1      38.415 -12.082  -1.326  1.00  0.00     0.261 C 
ENDBRANCH  23  24
ENDBRANCH  22  23
ENDBRANCH  21  22
ENDBRANCH   1  21
BRANCH   3  31
HETATM   31  C   UNL     1      38.984 -10.020   4.115  1.00  0.00     0.037 A 
HETATM   32  C   UNL     1      38.221  -9.292   3.196  1.00  0.00     0.053 A 
HETATM   33  C   UNL     1      37.689  -8.053   3.559  1.00  0.00     0.036 A 
HETATM   34 CL   UNL     1      36.815  -7.134   2.398  1.00  0.00    -0.084 Cl
HETATM   35  C   UNL     1      37.873  -7.547   4.843  1.00  0.00     0.024 A 
HETATM   36  C   UNL     1      38.603  -8.284   5.772  1.00  0.00     0.004 A 
HETATM   37  C   UNL     1      39.164  -9.511   5.405  1.00  0.00     0.029 A 
ENDBRANCH   3  31
TORSDOF 9
ENDMDL
MODEL 10
REMARK VINA RESULT:      -7.7      3.350      7.050
REMARK  9 active torsions:
REMARK  status: ('A' for Active; 'I' for Inactive)
REMARK    1  A    between atoms: C_2  and  C_3 
REMARK    2  A    between atoms: C_8  and  O_9 
REMARK    3  A    between atoms: C_10  and  C_11 
REMARK    4  A    between atoms: C_11  and  N_12 
REMARK       I    between atoms: N_12  and  C_13 
REMARK    5  A    between atoms: N_12  and  C_23 
REMARK       I    between atoms: C_13  and  N_14 
REMARK    6  A    between atoms: N_14  and  C_15 
REMARK    7  A    between atoms: C_23  and  C_24 
REMARK    8  A    between atoms: C_24  and  C_25 
REMARK    9  A    between atoms: C_25  and  N_26 
ROOT
HETATM    1  N   UNL     1      41.028 -11.948   4.270  1.00  0.00    -0.330 N 
HETATM    2  C   UNL     1      40.991 -10.737   4.948  1.00  0.00     0.323 C 
HETATM    3  N   UNL     1      39.892 -10.580   5.755  1.00  0.00    -0.309 N 
HETATM    4  O   UNL     1      41.762  -9.826   4.655  1.00  0.00    -0.247 OA
HETATM    5  H   UNL     1      39.279 -11.379   5.856  1.00  0.00     0.170 HD
ENDROOT
BRANCH   1   6
HETATM    6  C   UNL     1      42.347 -12.362   3.749  1.00  0.00     0.170 C 
BRANCH   6   7
HETATM    7  C   UNL     1      42.764 -13.759   4.109  1.00  0.00     0.013 A 
HETATM    8  C   UNL     1      43.190 -14.064   5.389  1.00  0.00     0.170 A 
HETATM    9  N   UNL     1      43.585 -15.267   5.826  1.00  0.00    -0.224 NA
HETATM   10  C   UNL     1      43.567 -16.278   4.940  1.00  0.00     0.070 A 
HETATM   11  C   UNL     1      43.178 -16.096   3.595  1.00  0.00    -0.006 A 
HETATM   12  C   UNL     1      43.943 -17.548   5.349  1.00  0.00     0.033 A 
HETATM   13  C   UNL     1      43.177 -17.186   2.706  1.00  0.00     0.021 A 
HETATM   14  C   UNL     1      42.790 -14.809   3.188  1.00  0.00     0.027 A 
HETATM   15  C   UNL     1      43.544 -18.465   3.142  1.00  0.00    -0.058 A 
HETATM   16  C   UNL     1      43.937 -18.635   4.471  1.00  0.00     0.009 A 
BRANCH   8  17
HETATM   17  O   UNL     1      43.249 -13.114   6.358  1.00  0.00    -0.344 OA
HETATM   18  H   UNL     1      44.086 -13.384   6.785  1.00  0.00     0.219 HD
ENDBRANCH   8  17
BRANCH  15  19
HETATM   19  C   UNL     1      43.542 -19.635   2.190  1.00  0.00     0.034 C 
HETATM   20  C   UNL     1      43.857 -20.944   2.898  1.00  0.00     0.010 C 
ENDBRANCH  15  19
ENDBRANCH   6   7
ENDBRANCH   1   6
BRANCH   1  21
HETATM   21  C   UNL     1      39.893 -12.264   3.398  1.00  0.00     0.129 C 
BRANCH  21  22
HETATM   22  C   UNL     1      40.229 -12.326   1.893  1.00  0.00     0.048 C 
BRANCH  22  23
HETATM   23  C   UNL     1      39.930 -13.647   1.174  1.00  0.00     0.236 C 
BRANCH  23  24
HETATM   24  N   UNL     1      39.183 -13.539  -0.129  1.00  0.00    -0.067 N 
HETATM   25  H   UNL     1      38.359 -14.158  -0.131  1.00  0.00     0.280 HD
HETATM   26  C   UNL     1      38.604 -12.159  -0.440  1.00  0.00     0.261 C 
HETATM   27  C   UNL     1      37.907 -12.183  -1.808  1.00  0.00     0.195 C 
HETATM   28  O   UNL     1      38.816 -12.592  -2.837  1.00  0.00    -0.388 OA
HETATM   29  C   UNL     1      39.284 -13.924  -2.610  1.00  0.00     0.195 C 
HETATM   30  C   UNL     1      40.059 -14.007  -1.293  1.00  0.00     0.261 C 
ENDBRANCH  23  24
ENDBRANCH  22  23
ENDBRANCH  21  22
ENDBRANCH   1  21
BRANCH   3  31
HETATM   31  C   UNL     1      39.600  -9.451   6.549  1.00  0.00     0.037 A 
HETATM   32  C   UNL     1      40.037  -9.459   7.877  1.00  0.00     0.053 A 
HETATM   33  C   UNL     1      39.747  -8.378   8.712  1.00  0.00     0.036 A 
HETATM   34 CL   UNL     1      40.227  -8.431  10.363  1.00  0.00    -0.084 Cl
HETATM   35  C   UNL     1      39.058  -7.268   8.230  1.00  0.00     0.024 A 
HETATM   36  C   UNL     1      38.649  -7.242   6.898  1.00  0.00     0.004 A 
HETATM   37  C   UNL     1      38.911  -8.334   6.065  1.00  0.00     0.029 A 
ENDBRANCH   3  31
TORSDOF 9
ENDMDL
