MODEL 1
REMARK VINA RESULT:      -7.3      0.000      0.000
REMARK  6 active torsions:
REMARK  status: ('A' for Active; 'I' for Inactive)
REMARK    1  A    between atoms: C_4  and  C_5 
REMARK    2  A    between atoms: C_5  and  C_6 
REMARK    3  A    between atoms: C_6  and  C_7 
REMARK    4  A    between atoms: C_7  and  C_8 
REMARK       I    between atoms: C_8  and  N_9 
REMARK    5  A    between atoms: N_9  and  C_10 
REMARK    6  A    between atoms: C_12  and  C_13 
ROOT
HETATM    1  C   UNL     1      43.747 -18.714   5.240  1.00  0.00     0.222 C 
HETATM    2  N   UNL     1      42.972 -17.914   6.023  1.00  0.00    -0.327 N 
HETATM    3  O   UNL     1      43.980 -19.850   5.665  1.00  0.00    -0.273 OA
HETATM    4  H   UNL     1      42.704 -18.426   6.857  1.00  0.00     0.169 HD
ENDROOT
BRANCH   2   5
HETATM    5  C   UNL     1      42.514 -16.584   5.957  1.00  0.00     0.035 A 
HETATM    6  C   UNL     1      43.307 -15.443   5.826  1.00  0.00     0.042 A 
HETATM    7  C   UNL     1      42.735 -14.156   5.806  1.00  0.00    -0.021 A 
HETATM    8  C   UNL     1      41.347 -14.021   5.913  1.00  0.00     0.012 A 
HETATM    9  C   UNL     1      40.542 -15.150   6.031  1.00  0.00     0.003 A 
HETATM   10  C   UNL     1      41.123 -16.419   6.052  1.00  0.00     0.029 A 
BRANCH   7  11
HETATM   11  C   UNL     1      43.567 -12.970   5.699  1.00  0.00     0.010 A 
HETATM   12  C   UNL     1      43.748 -12.064   4.628  1.00  0.00     0.152 A 
HETATM   13  N   UNL     1      44.620 -11.093   4.913  1.00  0.00    -0.187 NA
HETATM   14  N   UNL     1      45.004 -11.375   6.168  1.00  0.00    -0.289 N 
HETATM   15  H   UNL     1      45.684 -10.766   6.611  1.00  0.00     0.188 HD
HETATM   16  C   UNL     1      44.403 -12.488   6.684  1.00  0.00     0.123 A 
ENDBRANCH   7  11
ENDBRANCH   2   5
BRANCH   1  17
HETATM   17  C   UNL     1      44.296 -18.241   3.912  1.00  0.00     0.103 C 
BRANCH  17  18
HETATM   18  C   UNL     1      43.220 -18.046   2.839  1.00  0.00     0.014 C 
BRANCH  18  19
HETATM   19  C   UNL     1      43.416 -16.771   2.009  1.00  0.00     0.039 C 
BRANCH  19  20
HETATM   20  C   UNL     1      42.236 -15.840   2.150  1.00  0.00    -0.058 A 
HETATM   21  C   UNL     1      40.943 -16.359   2.305  1.00  0.00     0.007 A 
HETATM   22  C   UNL     1      39.845 -15.505   2.411  1.00  0.00     0.001 A 
HETATM   23  C   UNL     1      40.027 -14.125   2.364  1.00  0.00     0.000 A 
HETATM   24  C   UNL     1      41.309 -13.597   2.212  1.00  0.00     0.001 A 
HETATM   25  C   UNL     1      42.409 -14.451   2.103  1.00  0.00     0.007 A 
ENDBRANCH  19  20
ENDBRANCH  18  19
ENDBRANCH  17  18
ENDBRANCH   1  17
TORSDOF 6
ENDMDL
MODEL 2
REMARK VINA RESULT:      -7.2      2.195      4.014
REMARK  6 active torsions:
REMARK  status: ('A' for Active; 'I' for Inactive)
REMARK    1  A    between atoms: C_4  and  C_5 
REMARK    2  A    between atoms: C_5  and  C_6 
REMARK    3  A    between atoms: C_6  and  C_7 
REMARK    4  A    between atoms: C_7  and  C_8 
REMARK       I    between atoms: C_8  and  N_9 
REMARK    5  A    between atoms: N_9  and  C_10 
REMARK    6  A    between atoms: C_12  and  C_13 
ROOT
HETATM    1  C   UNL     1      40.608 -15.581   1.963  1.00  0.00     0.222 C 
HETATM    2  N   UNL     1      40.236 -15.471   3.268  1.00  0.00    -0.327 N 
HETATM    3  O   UNL     1      39.718 -15.855   1.153  1.00  0.00    -0.273 OA
HETATM    4  H   UNL     1      39.237 -15.636   3.343  1.00  0.00     0.169 HD
ENDROOT
BRANCH   2   5
HETATM    5  C   UNL     1      40.901 -15.231   4.486  1.00  0.00     0.035 A 
HETATM    6  C   UNL     1      41.615 -14.080   4.824  1.00  0.00     0.042 A 
HETATM    7  C   UNL     1      42.271 -13.967   6.065  1.00  0.00    -0.021 A 
HETATM    8  C   UNL     1      42.200 -15.025   6.977  1.00  0.00     0.012 A 
HETATM    9  C   UNL     1      41.481 -16.174   6.660  1.00  0.00     0.003 A 
HETATM   10  C   UNL     1      40.838 -16.273   5.425  1.00  0.00     0.029 A 
BRANCH   7  11
HETATM   11  C   UNL     1      43.037 -12.780   6.401  1.00  0.00     0.010 A 
HETATM   12  C   UNL     1      42.665 -11.415   6.413  1.00  0.00     0.152 A 
HETATM   13  N   UNL     1      43.669 -10.608   6.769  1.00  0.00    -0.187 NA
HETATM   14  N   UNL     1      44.689 -11.453   6.983  1.00  0.00    -0.289 N 
HETATM   15  H   UNL     1      45.584 -11.064   7.265  1.00  0.00     0.188 HD
HETATM   16  C   UNL     1      44.364 -12.763   6.778  1.00  0.00     0.123 A 
ENDBRANCH   7  11
ENDBRANCH   2   5
BRANCH   1  17
HETATM   17  C   UNL     1      42.040 -15.374   1.522  1.00  0.00     0.103 C 
BRANCH  17  18
HETATM   18  C   UNL     1      42.908 -16.631   1.647  1.00  0.00     0.014 C 
BRANCH  18  19
HETATM   19  C   UNL     1      43.587 -16.764   3.017  1.00  0.00     0.039 C 
BRANCH  19  20
HETATM   20  C   UNL     1      43.726 -18.212   3.420  1.00  0.00    -0.058 A 
HETATM   21  C   UNL     1      43.525 -19.229   2.475  1.00  0.00     0.007 A 
HETATM   22  C   UNL     1      43.627 -20.570   2.846  1.00  0.00     0.001 A 
HETATM   23  C   UNL     1      43.932 -20.908   4.162  1.00  0.00     0.000 A 
HETATM   24  C   UNL     1      44.135 -19.906   5.110  1.00  0.00     0.001 A 
HETATM   25  C   UNL     1      44.030 -18.563   4.741  1.00  0.00     0.007 A 
ENDBRANCH  19  20
ENDBRANCH  18  19
ENDBRANCH  17  18
ENDBRANCH   1  17
TORSDOF 6
ENDMDL
MODEL 3
REMARK VINA RESULT:      -7.1      3.737      6.012
REMARK  6 active torsions:
REMARK  status: ('A' for Active; 'I' for Inactive)
REMARK    1  A    between atoms: C_4  and  C_5 
REMARK    2  A    between atoms: C_5  and  C_6 
REMARK    3  A    between atoms: C_6  and  C_7 
REMARK    4  A    between atoms: C_7  and  C_8 
REMARK       I    between atoms: C_8  and  N_9 
REMARK    5  A    between atoms: N_9  and  C_10 
REMARK    6  A    between atoms: C_12  and  C_13 
ROOT
HETATM    1  C   UNL     1      39.936 -12.669   4.982  1.00  0.00     0.222 C 
HETATM    2  N   UNL     1      39.394 -13.512   4.061  1.00  0.00    -0.327 N 
HETATM    3  O   UNL     1      39.345 -12.573   6.062  1.00  0.00    -0.273 OA
HETATM    4  H   UNL     1      38.561 -13.940   4.452  1.00  0.00     0.169 HD
ENDROOT
BRANCH   2   5
HETATM    5  C   UNL     1      39.694 -13.878   2.734  1.00  0.00     0.035 A 
HETATM    6  C   UNL     1      40.023 -13.008   1.693  1.00  0.00     0.042 A 
HETATM    7  C   UNL     1      40.270 -13.489   0.392  1.00  0.00    -0.021 A 
HETATM    8  C   UNL     1      40.190 -14.863   0.142  1.00  0.00     0.012 A 
HETATM    9  C   UNL     1      39.876 -15.743   1.173  1.00  0.00     0.003 A 
HETATM   10  C   UNL     1      39.631 -15.253   2.456  1.00  0.00     0.029 A 
BRANCH   7  11
HETATM   11  C   UNL     1      40.583 -12.578  -0.695  1.00  0.00     0.010 A 
HETATM   12  C   UNL     1      41.003 -11.227  -0.674  1.00  0.00     0.152 A 
HETATM   13  N   UNL     1      41.178 -10.721  -1.898  1.00  0.00    -0.187 NA
HETATM   14  N   UNL     1      40.868 -11.745  -2.708  1.00  0.00    -0.289 N 
HETATM   15  H   UNL     1      40.921 -11.598  -3.711  1.00  0.00     0.188 HD
HETATM   16  C   UNL     1      40.506 -12.879  -2.038  1.00  0.00     0.123 A 
ENDBRANCH   7  11
ENDBRANCH   2   5
BRANCH   1  17
HETATM   17  C   UNL     1      41.201 -11.888   4.702  1.00  0.00     0.103 C 
BRANCH  17  18
HETATM   18  C   UNL     1      42.479 -12.720   4.847  1.00  0.00     0.014 C 
BRANCH  18  19
HETATM   19  C   UNL     1      43.195 -12.968   3.514  1.00  0.00     0.039 C 
BRANCH  19  20
HETATM   20  C   UNL     1      43.189 -14.434   3.153  1.00  0.00    -0.058 A 
HETATM   21  C   UNL     1      43.443 -14.837   1.834  1.00  0.00     0.007 A 
HETATM   22  C   UNL     1      43.414 -16.188   1.488  1.00  0.00     0.001 A 
HETATM   23  C   UNL     1      43.133 -17.149   2.456  1.00  0.00     0.000 A 
HETATM   24  C   UNL     1      42.881 -16.761   3.771  1.00  0.00     0.001 A 
HETATM   25  C   UNL     1      42.906 -15.408   4.119  1.00  0.00     0.007 A 
ENDBRANCH  19  20
ENDBRANCH  18  19
ENDBRANCH  17  18
ENDBRANCH   1  17
TORSDOF 6
ENDMDL
MODEL 4
REMARK VINA RESULT:      -6.9      2.307      4.865
REMARK  6 active torsions:
REMARK  status: ('A' for Active; 'I' for Inactive)
REMARK    1  A    between atoms: C_4  and  C_5 
REMARK    2  A    between atoms: C_5  and  C_6 
REMARK    3  A    between atoms: C_6  and  C_7 
REMARK    4  A    between atoms: C_7  and  C_8 
REMARK       I    between atoms: C_8  and  N_9 
REMARK    5  A    between atoms: N_9  and  C_10 
REMARK    6  A    between atoms: C_12  and  C_13 
ROOT
HETATM    1  C   UNL     1      43.978 -12.347   7.217  1.00  0.00     0.222 C 
HETATM    2  N   UNL     1      43.213 -13.455   7.413  1.00  0.00    -0.327 N 
HETATM    3  O   UNL     1      44.255 -11.678   8.217  1.00  0.00    -0.273 OA
HETATM    4  H   UNL     1      43.002 -13.541   8.403  1.00  0.00     0.169 HD
ENDROOT
BRANCH   2   5
HETATM    5  C   UNL     1      42.641 -14.441   6.587  1.00  0.00     0.035 A 
HETATM    6  C   UNL     1      43.298 -15.549   6.048  1.00  0.00     0.042 A 
HETATM    7  C   UNL     1      42.626 -16.454   5.202  1.00  0.00    -0.021 A 
HETATM    8  C   UNL     1      41.277 -16.241   4.902  1.00  0.00     0.012 A 
HETATM    9  C   UNL     1      40.606 -15.148   5.443  1.00  0.00     0.003 A 
HETATM   10  C   UNL     1      41.284 -14.259   6.277  1.00  0.00     0.029 A 
BRANCH   7  11
HETATM   11  C   UNL     1      43.321 -17.589   4.620  1.00  0.00     0.010 A 
HETATM   12  C   UNL     1      43.542 -17.941   3.267  1.00  0.00     0.152 A 
HETATM   13  N   UNL     1      44.221 -19.083   3.134  1.00  0.00    -0.187 NA
HETATM   14  N   UNL     1      44.436 -19.470   4.401  1.00  0.00    -0.289 N 
HETATM   15  H   UNL     1      44.941 -20.336   4.561  1.00  0.00     0.188 HD
HETATM   16  C   UNL     1      43.918 -18.610   5.328  1.00  0.00     0.123 A 
ENDBRANCH   7  11
ENDBRANCH   2   5
BRANCH   1  17
HETATM   17  C   UNL     1      44.472 -11.952   5.842  1.00  0.00     0.103 C 
BRANCH  17  18
HETATM   18  C   UNL     1      43.344 -11.653   4.849  1.00  0.00     0.014 C 
BRANCH  18  19
HETATM   19  C   UNL     1      43.731 -11.934   3.391  1.00  0.00     0.039 C 
BRANCH  19  20
HETATM   20  C   UNL     1      42.803 -12.946   2.765  1.00  0.00    -0.058 A 
HETATM   21  C   UNL     1      43.317 -14.129   2.215  1.00  0.00     0.007 A 
HETATM   22  C   UNL     1      42.469 -15.058   1.612  1.00  0.00     0.001 A 
HETATM   23  C   UNL     1      41.099 -14.815   1.553  1.00  0.00     0.000 A 
HETATM   24  C   UNL     1      40.575 -13.643   2.098  1.00  0.00     0.001 A 
HETATM   25  C   UNL     1      41.424 -12.711   2.699  1.00  0.00     0.007 A 
ENDBRANCH  19  20
ENDBRANCH  18  19
ENDBRANCH  17  18
ENDBRANCH   1  17
TORSDOF 6
ENDMDL
MODEL 5
REMARK VINA RESULT:      -6.8      3.118      5.549
REMARK  6 active torsions:
REMARK  status: ('A' for Active; 'I' for Inactive)
REMARK    1  A    between atoms: C_4  and  C_5 
REMARK    2  A    between atoms: C_5  and  C_6 
REMARK    3  A    between atoms: C_6  and  C_7 
REMARK    4  A    between atoms: C_7  and  C_8 
REMARK       I    between atoms: C_8  and  N_9 
REMARK    5  A    between atoms: N_9  and  C_10 
REMARK    6  A    between atoms: C_12  and  C_13 
ROOT
HETATM    1  C   UNL     1      40.710 -15.209   5.383  1.00  0.00     0.222 C 
HETATM    2  N   UNL     1      40.149 -14.462   4.393  1.00  0.00    -0.327 N 
HETATM    3  O   UNL     1      40.431 -14.892   6.544  1.00  0.00    -0.273 OA
HETATM    4  H   UNL     1      39.565 -13.744   4.810  1.00  0.00     0.169 HD
ENDROOT
BRANCH   2   5
HETATM    5  C   UNL     1      40.226 -14.436   2.987  1.00  0.00     0.035 A 
HETATM    6  C   UNL     1      40.569 -13.336   2.199  1.00  0.00     0.042 A 
HETATM    7  C   UNL     1      40.579 -13.421   0.793  1.00  0.00    -0.021 A 
HETATM    8  C   UNL     1      40.245 -14.631   0.177  1.00  0.00     0.012 A 
HETATM    9  C   UNL     1      39.914 -15.740   0.950  1.00  0.00     0.003 A 
HETATM   10  C   UNL     1      39.906 -15.641   2.341  1.00  0.00     0.029 A 
BRANCH   7  11
HETATM   11  C   UNL     1      40.908 -12.266  -0.024  1.00  0.00     0.010 A 
HETATM   12  C   UNL     1      41.239 -10.941   0.344  1.00  0.00     0.152 A 
HETATM   13  N   UNL     1      41.465 -10.152  -0.711  1.00  0.00    -0.187 NA
HETATM   14  N   UNL     1      41.276 -10.968  -1.759  1.00  0.00    -0.289 N 
HETATM   15  H   UNL     1      41.389 -10.586  -2.692  1.00  0.00     0.188 HD
HETATM   16  C   UNL     1      40.941 -12.244  -1.402  1.00  0.00     0.123 A 
ENDBRANCH   7  11
ENDBRANCH   2   5
BRANCH   1  17
HETATM   17  C   UNL     1      41.627 -16.374   5.082  1.00  0.00     0.103 C 
BRANCH  17  18
HETATM   18  C   UNL     1      43.017 -15.950   4.598  1.00  0.00     0.014 C 
BRANCH  18  19
HETATM   19  C   UNL     1      43.370 -16.503   3.211  1.00  0.00     0.039 C 
BRANCH  19  20
HETATM   20  C   UNL     1      43.540 -18.003   3.247  1.00  0.00    -0.058 A 
HETATM   21  C   UNL     1      43.085 -18.789   2.179  1.00  0.00     0.007 A 
HETATM   22  C   UNL     1      43.216 -20.178   2.217  1.00  0.00     0.001 A 
HETATM   23  C   UNL     1      43.803 -20.794   3.319  1.00  0.00     0.000 A 
HETATM   24  C   UNL     1      44.261 -20.022   4.386  1.00  0.00     0.001 A 
HETATM   25  C   UNL     1      44.128 -18.632   4.352  1.00  0.00     0.007 A 
ENDBRANCH  19  20
ENDBRANCH  18  19
ENDBRANCH  17  18
ENDBRANCH   1  17
TORSDOF 6
ENDMDL
MODEL 6
REMARK VINA RESULT:      -6.8      2.832      6.930
REMARK  6 active torsions:
REMARK  status: ('A' for Active; 'I' for Inactive)
REMARK    1  A    between atoms: C_4  and  C_5 
REMARK    2  A    between atoms: C_5  and  C_6 
REMARK    3  A    between atoms: C_6  and  C_7 
REMARK    4  A    between atoms: C_7  and  C_8 
REMARK       I    between atoms: C_8  and  N_9 
REMARK    5  A    between atoms: N_9  and  C_10 
REMARK    6  A    between atoms: C_12  and  C_13 
ROOT
HETATM    1  C   UNL     1      40.936 -14.025   5.829  1.00  0.00     0.222 C 
HETATM    2  N   UNL     1      40.783 -14.694   4.654  1.00  0.00    -0.327 N 
HETATM    3  O   UNL     1      39.918 -13.526   6.321  1.00  0.00    -0.273 OA
HETATM    4  H   UNL     1      39.806 -14.669   4.382  1.00  0.00     0.169 HD
ENDROOT
BRANCH   2   5
HETATM    5  C   UNL     1      41.644 -15.350   3.752  1.00  0.00     0.035 A 
HETATM    6  C   UNL     1      42.026 -16.691   3.803  1.00  0.00     0.042 A 
HETATM    7  C   UNL     1      42.924 -17.230   2.860  1.00  0.00    -0.021 A 
HETATM    8  C   UNL     1      43.436 -16.406   1.853  1.00  0.00     0.012 A 
HETATM    9  C   UNL     1      43.054 -15.070   1.782  1.00  0.00     0.003 A 
HETATM   10  C   UNL     1      42.166 -14.549   2.723  1.00  0.00     0.029 A 
BRANCH   7  11
HETATM   11  C   UNL     1      43.342 -18.619   2.934  1.00  0.00     0.010 A 
HETATM   12  C   UNL     1      43.165 -19.685   2.021  1.00  0.00     0.152 A 
HETATM   13  N   UNL     1      43.686 -20.834   2.461  1.00  0.00    -0.187 NA
HETATM   14  N   UNL     1      44.197 -20.509   3.658  1.00  0.00    -0.289 N 
HETATM   15  H   UNL     1      44.652 -21.237   4.200  1.00  0.00     0.188 HD
HETATM   16  C   UNL     1      44.017 -19.196   3.989  1.00  0.00     0.123 A 
ENDBRANCH   7  11
ENDBRANCH   2   5
BRANCH   1  17
HETATM   17  C   UNL     1      42.283 -13.898   6.506  1.00  0.00     0.103 C 
BRANCH  17  18
HETATM   18  C   UNL     1      43.065 -12.649   6.085  1.00  0.00     0.014 C 
BRANCH  18  19
HETATM   19  C   UNL     1      44.480 -12.594   6.675  1.00  0.00     0.039 C 
BRANCH  19  20
HETATM   20  C   UNL     1      44.746 -11.262   7.334  1.00  0.00    -0.058 A 
HETATM   21  C   UNL     1      43.686 -10.517   7.870  1.00  0.00     0.007 A 
HETATM   22  C   UNL     1      43.921  -9.273   8.459  1.00  0.00     0.001 A 
HETATM   23  C   UNL     1      45.216  -8.764   8.519  1.00  0.00     0.000 A 
HETATM   24  C   UNL     1      46.278  -9.497   7.991  1.00  0.00     0.001 A 
HETATM   25  C   UNL     1      46.044 -10.740   7.399  1.00  0.00     0.007 A 
ENDBRANCH  19  20
ENDBRANCH  18  19
ENDBRANCH  17  18
ENDBRANCH   1  17
TORSDOF 6
ENDMDL
MODEL 7
REMARK VINA RESULT:      -6.6      1.805      2.498
REMARK  6 active torsions:
REMARK  status: ('A' for Active; 'I' for Inactive)
REMARK    1  A    between atoms: C_4  and  C_5 
REMARK    2  A    between atoms: C_5  and  C_6 
REMARK    3  A    between atoms: C_6  and  C_7 
REMARK    4  A    between atoms: C_7  and  C_8 
REMARK       I    between atoms: C_8  and  N_9 
REMARK    5  A    between atoms: N_9  and  C_10 
REMARK    6  A    between atoms: C_12  and  C_13 
ROOT
HETATM    1  C   UNL     1      43.785 -19.439   5.299  1.00  0.00     0.222 C 
HETATM    2  N   UNL     1      43.388 -18.502   6.204  1.00  0.00    -0.327 N 
HETATM    3  O   UNL     1      43.628 -20.622   5.620  1.00  0.00    -0.273 OA
HETATM    4  H   UNL     1      43.007 -18.970   7.020  1.00  0.00     0.169 HD
ENDROOT
BRANCH   2   5
HETATM    5  C   UNL     1      43.424 -17.096   6.276  1.00  0.00     0.035 A 
HETATM    6  C   UNL     1      42.327 -16.238   6.177  1.00  0.00     0.042 A 
HETATM    7  C   UNL     1      42.490 -14.839   6.230  1.00  0.00    -0.021 A 
HETATM    8  C   UNL     1      43.772 -14.303   6.388  1.00  0.00     0.012 A 
HETATM    9  C   UNL     1      44.873 -15.148   6.500  1.00  0.00     0.003 A 
HETATM   10  C   UNL     1      44.697 -16.530   6.444  1.00  0.00     0.029 A 
BRANCH   7  11
HETATM   11  C   UNL     1      41.350 -13.948   6.098  1.00  0.00     0.010 A 
HETATM   12  C   UNL     1      39.970 -14.181   6.301  1.00  0.00     0.152 A 
HETATM   13  N   UNL     1      39.222 -13.100   6.061  1.00  0.00    -0.187 NA
HETATM   14  N   UNL     1      40.121 -12.171   5.701  1.00  0.00    -0.289 N 
HETATM   15  H   UNL     1      39.784 -11.244   5.459  1.00  0.00     0.188 HD
HETATM   16  C   UNL     1      41.408 -12.627   5.707  1.00  0.00     0.123 A 
ENDBRANCH   7  11
ENDBRANCH   2   5
BRANCH   1  17
HETATM   17  C   UNL     1      44.385 -19.056   3.965  1.00  0.00     0.103 C 
BRANCH  17  18
HETATM   18  C   UNL     1      43.378 -18.425   2.998  1.00  0.00     0.014 C 
BRANCH  18  19
HETATM   19  C   UNL     1      43.794 -17.030   2.515  1.00  0.00     0.039 C 
BRANCH  19  20
HETATM   20  C   UNL     1      42.628 -16.072   2.540  1.00  0.00    -0.058 A 
HETATM   21  C   UNL     1      41.339 -16.538   2.837  1.00  0.00     0.007 A 
HETATM   22  C   UNL     1      40.252 -15.662   2.838  1.00  0.00     0.001 A 
HETATM   23  C   UNL     1      40.442 -14.315   2.544  1.00  0.00     0.000 A 
HETATM   24  C   UNL     1      41.719 -13.839   2.249  1.00  0.00     0.001 A 
HETATM   25  C   UNL     1      42.808 -14.715   2.245  1.00  0.00     0.007 A 
ENDBRANCH  19  20
ENDBRANCH  18  19
ENDBRANCH  17  18
ENDBRANCH   1  17
TORSDOF 6
ENDMDL
MODEL 8
REMARK VINA RESULT:      -6.5      3.804      6.215
REMARK  6 active torsions:
REMARK  status: ('A' for Active; 'I' for Inactive)
REMARK    1  A    between atoms: C_4  and  C_5 
REMARK    2  A    between atoms: C_5  and  C_6 
REMARK    3  A    between atoms: C_6  and  C_7 
REMARK    4  A    between atoms: C_7  and  C_8 
REMARK       I    between atoms: C_8  and  N_9 
REMARK    5  A    between atoms: N_9  and  C_10 
REMARK    6  A    between atoms: C_12  and  C_13 
ROOT
HETATM    1  C   UNL     1      40.140 -13.340   5.136  1.00  0.00     0.222 C 
HETATM    2  N   UNL     1      39.381 -13.485   4.015  1.00  0.00    -0.327 N 
HETATM    3  O   UNL     1      39.568 -12.907   6.141  1.00  0.00    -0.273 OA
HETATM    4  H   UNL     1      38.428 -13.204   4.221  1.00  0.00     0.169 HD
ENDROOT
BRANCH   2   5
HETATM    5  C   UNL     1      39.619 -13.882   2.685  1.00  0.00     0.035 A 
HETATM    6  C   UNL     1      39.707 -13.039   1.576  1.00  0.00     0.042 A 
HETATM    7  C   UNL     1      39.916 -13.556   0.282  1.00  0.00    -0.021 A 
HETATM    8  C   UNL     1      40.042 -14.938   0.107  1.00  0.00     0.012 A 
HETATM    9  C   UNL     1      39.969 -15.789   1.206  1.00  0.00     0.003 A 
HETATM   10  C   UNL     1      39.760 -15.264   2.481  1.00  0.00     0.029 A 
BRANCH   7  11
HETATM   11  C   UNL     1      39.978 -12.677  -0.873  1.00  0.00     0.010 A 
HETATM   12  C   UNL     1      39.029 -12.425  -1.893  1.00  0.00     0.152 A 
HETATM   13  N   UNL     1      39.468 -11.551  -2.803  1.00  0.00    -0.187 NA
HETATM   14  N   UNL     1      40.700 -11.241  -2.372  1.00  0.00    -0.289 N 
HETATM   15  H   UNL     1      41.249 -10.583  -2.916  1.00  0.00     0.188 HD
HETATM   16  C   UNL     1      41.053 -11.888  -1.221  1.00  0.00     0.123 A 
ENDBRANCH   7  11
ENDBRANCH   2   5
BRANCH   1  17
HETATM   17  C   UNL     1      41.611 -13.693   5.155  1.00  0.00     0.103 C 
BRANCH  17  18
HETATM   18  C   UNL     1      41.882 -15.170   5.458  1.00  0.00     0.014 C 
BRANCH  18  19
HETATM   19  C   UNL     1      43.359 -15.558   5.307  1.00  0.00     0.039 C 
BRANCH  19  20
HETATM   20  C   UNL     1      43.517 -16.773   4.424  1.00  0.00    -0.058 A 
HETATM   21  C   UNL     1      42.987 -16.774   3.126  1.00  0.00     0.007 A 
HETATM   22  C   UNL     1      43.108 -17.902   2.313  1.00  0.00     0.001 A 
HETATM   23  C   UNL     1      43.760 -19.037   2.788  1.00  0.00     0.000 A 
HETATM   24  C   UNL     1      44.293 -19.046   4.077  1.00  0.00     0.001 A 
HETATM   25  C   UNL     1      44.170 -17.920   4.893  1.00  0.00     0.007 A 
ENDBRANCH  19  20
ENDBRANCH  18  19
ENDBRANCH  17  18
ENDBRANCH   1  17
TORSDOF 6
ENDMDL
MODEL 9
REMARK VINA RESULT:      -6.4      4.511      7.100
REMARK  6 active torsions:
REMARK  status: ('A' for Active; 'I' for Inactive)
REMARK    1  A    between atoms: C_4  and  C_5 
REMARK    2  A    between atoms: C_5  and  C_6 
REMARK    3  A    between atoms: C_6  and  C_7 
REMARK    4  A    between atoms: C_7  and  C_8 
REMARK       I    between atoms: C_8  and  N_9 
REMARK    5  A    between atoms: N_9  and  C_10 
REMARK    6  A    between atoms: C_12  and  C_13 
ROOT
HETATM    1  C   UNL     1      40.747 -14.601   2.035  1.00  0.00     0.222 C 
HETATM    2  N   UNL     1      39.897 -14.185   1.057  1.00  0.00    -0.327 N 
HETATM    3  O   UNL     1      40.237 -14.947   3.106  1.00  0.00    -0.273 OA
HETATM    4  H   UNL     1      38.943 -14.244   1.400  1.00  0.00     0.169 HD
ENDROOT
BRANCH   2   5
HETATM    5  C   UNL     1      40.039 -13.676  -0.248  1.00  0.00     0.035 A 
HETATM    6  C   UNL     1      40.485 -12.398  -0.592  1.00  0.00     0.042 A 
HETATM    7  C   UNL     1      40.553 -11.988  -1.938  1.00  0.00    -0.021 A 
HETATM    8  C   UNL     1      40.172 -12.879  -2.947  1.00  0.00     0.012 A 
HETATM    9  C   UNL     1      39.738 -14.160  -2.620  1.00  0.00     0.003 A 
HETATM   10  C   UNL     1      39.673 -14.552  -1.282  1.00  0.00     0.029 A 
BRANCH   7  11
HETATM   11  C   UNL     1      40.990 -10.648  -2.290  1.00  0.00     0.010 A 
HETATM   12  C   UNL     1      40.775  -9.886  -3.462  1.00  0.00     0.152 A 
HETATM   13  N   UNL     1      41.359  -8.685  -3.413  1.00  0.00    -0.187 NA
HETATM   14  N   UNL     1      41.953  -8.675  -2.209  1.00  0.00    -0.289 N 
HETATM   15  H   UNL     1      42.478  -7.849  -1.939  1.00  0.00     0.188 HD
HETATM   16  C   UNL     1      41.763  -9.825  -1.498  1.00  0.00     0.123 A 
ENDBRANCH   7  11
ENDBRANCH   2   5
BRANCH   1  17
HETATM   17  C   UNL     1      42.245 -14.643   1.826  1.00  0.00     0.103 C 
BRANCH  17  18
HETATM   18  C   UNL     1      42.820 -16.063   1.804  1.00  0.00     0.014 C 
BRANCH  18  19
HETATM   19  C   UNL     1      43.373 -16.513   3.162  1.00  0.00     0.039 C 
BRANCH  19  20
HETATM   20  C   UNL     1      43.496 -18.017   3.231  1.00  0.00    -0.058 A 
HETATM   21  C   UNL     1      44.019 -18.629   4.379  1.00  0.00     0.007 A 
HETATM   22  C   UNL     1      44.159 -20.016   4.440  1.00  0.00     0.001 A 
HETATM   23  C   UNL     1      43.776 -20.804   3.358  1.00  0.00     0.000 A 
HETATM   24  C   UNL     1      43.252 -20.206   2.212  1.00  0.00     0.001 A 
HETATM   25  C   UNL     1      43.114 -18.818   2.148  1.00  0.00     0.007 A 
ENDBRANCH  19  20
ENDBRANCH  18  19
ENDBRANCH  17  18
ENDBRANCH   1  17
TORSDOF 6
ENDMDL
MODEL 10
REMARK VINA RESULT:      -6.4      3.235      5.614
REMARK  6 active torsions:
REMARK  status: ('A' for Active; 'I' for Inactive)
REMARK    1  A    between atoms: C_4  and  C_5 
REMARK    2  A    between atoms: C_5  and  C_6 
REMARK    3  A    between atoms: C_6  and  C_7 
REMARK    4  A    between atoms: C_7  and  C_8 
REMARK       I    between atoms: C_8  and  N_9 
REMARK    5  A    between atoms: N_9  and  C_10 
REMARK    6  A    between atoms: C_12  and  C_13 
ROOT
HETATM    1  C   UNL     1      42.954 -13.801   5.713  1.00  0.00     0.222 C 
HETATM    2  N   UNL     1      43.397 -12.519   5.824  1.00  0.00    -0.327 N 
HETATM    3  O   UNL     1      42.258 -14.065   4.727  1.00  0.00    -0.273 OA
HETATM    4  H   UNL     1      43.065 -11.983   5.029  1.00  0.00     0.169 HD
ENDROOT
BRANCH   2   5
HETATM    5  C   UNL     1      44.146 -11.793   6.771  1.00  0.00     0.035 A 
HETATM    6  C   UNL     1      43.673 -11.286   7.983  1.00  0.00     0.042 A 
HETATM    7  C   UNL     1      44.510 -10.542   8.838  1.00  0.00    -0.021 A 
HETATM    8  C   UNL     1      45.839 -10.313   8.467  1.00  0.00     0.012 A 
HETATM    9  C   UNL     1      46.327 -10.823   7.268  1.00  0.00     0.003 A 
HETATM   10  C   UNL     1      45.486 -11.556   6.430  1.00  0.00     0.029 A 
BRANCH   7  11
HETATM   11  C   UNL     1      44.006  -9.992  10.084  1.00  0.00     0.010 A 
HETATM   12  C   UNL     1      43.767  -8.652  10.471  1.00  0.00     0.152 A 
HETATM   13  N   UNL     1      43.310  -8.549  11.722  1.00  0.00    -0.187 NA
HETATM   14  N   UNL     1      43.258  -9.822  12.143  1.00  0.00    -0.289 N 
HETATM   15  H   UNL     1      42.938 -10.003  13.089  1.00  0.00     0.188 HD
HETATM   16  C   UNL     1      43.663 -10.724  11.201  1.00  0.00     0.123 A 
ENDBRANCH   7  11
ENDBRANCH   2   5
BRANCH   1  17
HETATM   17  C   UNL     1      43.296 -14.856   6.743  1.00  0.00     0.103 C 
BRANCH  17  18
HETATM   18  C   UNL     1      44.348 -15.861   6.264  1.00  0.00     0.014 C 
BRANCH  18  19
HETATM   19  C   UNL     1      43.908 -17.321   6.423  1.00  0.00     0.039 C 
BRANCH  19  20
HETATM   20  C   UNL     1      43.827 -18.017   5.086  1.00  0.00    -0.058 A 
HETATM   21  C   UNL     1      43.473 -17.296   3.936  1.00  0.00     0.007 A 
HETATM   22  C   UNL     1      43.372 -17.937   2.701  1.00  0.00     0.001 A 
HETATM   23  C   UNL     1      43.624 -19.303   2.602  1.00  0.00     0.000 A 
HETATM   24  C   UNL     1      43.979 -20.030   3.738  1.00  0.00     0.001 A 
HETATM   25  C   UNL     1      44.078 -19.391   4.975  1.00  0.00     0.007 A 
ENDBRANCH  19  20
ENDBRANCH  18  19
ENDBRANCH  17  18
ENDBRANCH   1  17
TORSDOF 6
ENDMDL
