MODEL 1
REMARK VINA RESULT:      -8.9      0.000      0.000
REMARK  6 active torsions:
REMARK  status: ('A' for Active; 'I' for Inactive)
REMARK    1  A    between atoms: C_2  and  C_3 
REMARK       I    between atoms: C_3  and  N_4 
REMARK    2  A    between atoms: N_4  and  C_5 
REMARK    3  A    between atoms: C_8  and  N_9 
REMARK       I    between atoms: N_9  and  C_10 
REMARK    4  A    between atoms: C_10  and  C_11 
REMARK    5  A    between atoms: C_16  and  C_17 
REMARK    6  A    between atoms: C_23  and  C_24 
ROOT
HETATM    1  C   UNL     1      43.244 -11.052   6.989  1.00  0.00     0.148 A 
HETATM    2  N   UNL     1      44.087 -10.543   7.918  1.00  0.00    -0.165 NA
HETATM    3  N   UNL     1      43.337  -9.624   8.556  1.00  0.00    -0.240 N 
HETATM    4  C   UNL     1      42.065  -9.512   8.064  1.00  0.00     0.123 A 
HETATM    5  N   UNL     1      41.190  -8.609   8.557  1.00  0.00    -0.364 N 
HETATM    6  C   UNL     1      41.470  -7.875   9.792  1.00  0.00     0.143 C 
HETATM    7  C   UNL     1      42.978  -7.580   9.886  1.00  0.00     0.068 C 
HETATM    8  C   UNL     1      43.881  -8.801   9.618  1.00  0.00     0.221 C 
HETATM    9  C   UNL     1      41.968 -10.428   7.052  1.00  0.00     0.089 A 
HETATM   10  H   UNL     1      40.206  -8.653   8.299  1.00  0.00     0.162 HD
ENDROOT
BRANCH   1  11
HETATM   11  C   UNL     1      43.661 -12.113   6.054  1.00  0.00     0.276 C 
HETATM   12  N   UNL     1      43.208 -13.355   6.457  1.00  0.00    -0.322 N 
HETATM   13  H   UNL     1      42.639 -13.321   7.299  1.00  0.00     0.169 HD
HETATM   14  O   UNL     1      44.317 -11.859   5.051  1.00  0.00    -0.266 OA
BRANCH  12  15
HETATM   15  C   UNL     1      43.442 -14.605   5.863  1.00  0.00     0.035 A 
HETATM   16  C   UNL     1      44.273 -15.582   6.407  1.00  0.00     0.032 A 
HETATM   17  C   UNL     1      44.427 -16.824   5.772  1.00  0.00     0.032 A 
HETATM   18  C   UNL     1      43.754 -17.106   4.584  1.00  0.00     0.034 A 
HETATM   19  C   UNL     1      42.932 -16.118   4.032  1.00  0.00     0.032 A 
HETATM   20  C   UNL     1      42.776 -14.880   4.666  1.00  0.00     0.032 A 
BRANCH  18  21
HETATM   21  N   UNL     1      43.828 -18.338   3.902  1.00  0.00    -0.327 N 
HETATM   22  C   UNL     1      43.893 -19.605   4.454  1.00  0.00     0.221 C 
HETATM   23  O   UNL     1      43.915 -19.879   5.649  1.00  0.00    -0.273 OA
HETATM   24  H   UNL     1      43.828 -18.278   2.894  1.00  0.00     0.169 HD
BRANCH  22  25
HETATM   25  C   UNL     1      43.872 -20.718   3.417  1.00  0.00     0.098 C 
HETATM   26  C   UNL     1      43.462 -20.259   2.029  1.00  0.00     0.014 C 
ENDBRANCH  22  25
ENDBRANCH  18  21
ENDBRANCH  12  15
ENDBRANCH   1  11
BRANCH   8  27
HETATM   27  C   UNL     1      44.156  -9.641  10.846  1.00  0.00     0.409 C 
HETATM   28  F   UNL     1      43.334 -10.718  10.913  1.00  0.00    -0.169 F 
HETATM   29  F   UNL     1      45.419 -10.138  10.802  1.00  0.00    -0.169 F 
HETATM   30  F   UNL     1      44.030  -8.970  12.005  1.00  0.00    -0.169 F 
ENDBRANCH   8  27
BRANCH   6  31
HETATM   31  C   UNL     1      40.912  -8.492  11.032  1.00  0.00     0.075 A 
HETATM   32  O   UNL     1      41.097  -7.795  12.192  1.00  0.00    -0.325 OA
HETATM   33  C   UNL     1      40.508  -8.509  13.185  1.00  0.00     0.142 A 
HETATM   34  C   UNL     1      39.942  -9.656  12.683  1.00  0.00     0.027 A 
HETATM   35  C   UNL     1      40.194  -9.643  11.291  1.00  0.00     0.037 A 
ENDBRANCH   6  31
TORSDOF 6
ENDMDL
MODEL 2
REMARK VINA RESULT:      -8.9      1.667      2.010
REMARK  6 active torsions:
REMARK  status: ('A' for Active; 'I' for Inactive)
REMARK    1  A    between atoms: C_2  and  C_3 
REMARK       I    between atoms: C_3  and  N_4 
REMARK    2  A    between atoms: N_4  and  C_5 
REMARK    3  A    between atoms: C_8  and  N_9 
REMARK       I    between atoms: N_9  and  C_10 
REMARK    4  A    between atoms: C_10  and  C_11 
REMARK    5  A    between atoms: C_16  and  C_17 
REMARK    6  A    between atoms: C_23  and  C_24 
ROOT
HETATM    1  C   UNL     1      43.933 -10.613   8.368  1.00  0.00     0.148 A 
HETATM    2  N   UNL     1      44.126 -10.768   9.699  1.00  0.00    -0.165 NA
HETATM    3  N   UNL     1      43.661  -9.617  10.222  1.00  0.00    -0.240 N 
HETATM    4  C   UNL     1      43.201  -8.732   9.286  1.00  0.00     0.123 A 
HETATM    5  N   UNL     1      42.739  -7.510   9.630  1.00  0.00    -0.364 N 
HETATM    6  C   UNL     1      42.480  -7.162  11.028  1.00  0.00     0.143 C 
HETATM    7  C   UNL     1      43.521  -7.847  11.931  1.00  0.00     0.068 C 
HETATM    8  C   UNL     1      43.718  -9.349  11.646  1.00  0.00     0.221 C 
HETATM    9  C   UNL     1      43.357  -9.347   8.073  1.00  0.00     0.089 A 
HETATM   10  H   UNL     1      42.248  -6.935   8.947  1.00  0.00     0.162 HD
ENDROOT
BRANCH   1  11
HETATM   11  C   UNL     1      44.307 -11.659   7.397  1.00  0.00     0.276 C 
HETATM   12  N   UNL     1      43.226 -12.454   7.065  1.00  0.00    -0.322 N 
HETATM   13  H   UNL     1      42.360 -12.161   7.511  1.00  0.00     0.169 HD
HETATM   14  O   UNL     1      45.449 -11.752   6.966  1.00  0.00    -0.266 OA
BRANCH  12  15
HETATM   15  C   UNL     1      43.193 -13.575   6.222  1.00  0.00     0.035 A 
HETATM   16  C   UNL     1      43.417 -14.881   6.653  1.00  0.00     0.032 A 
HETATM   17  C   UNL     1      43.330 -15.956   5.755  1.00  0.00     0.032 A 
HETATM   18  C   UNL     1      43.020 -15.740   4.413  1.00  0.00     0.034 A 
HETATM   19  C   UNL     1      42.809 -14.427   3.979  1.00  0.00     0.032 A 
HETATM   20  C   UNL     1      42.895 -13.355   4.875  1.00  0.00     0.032 A 
BRANCH  18  21
HETATM   21  N   UNL     1      42.880 -16.766   3.456  1.00  0.00    -0.327 N 
HETATM   22  C   UNL     1      43.574 -17.960   3.392  1.00  0.00     0.221 C 
HETATM   23  O   UNL     1      44.455 -18.334   4.160  1.00  0.00    -0.273 OA
HETATM   24  H   UNL     1      42.187 -16.601   2.739  1.00  0.00     0.169 HD
BRANCH  22  25
HETATM   25  C   UNL     1      43.102 -18.875   2.272  1.00  0.00     0.098 C 
HETATM   26  C   UNL     1      43.600 -20.305   2.392  1.00  0.00     0.014 C 
ENDBRANCH  22  25
ENDBRANCH  18  21
ENDBRANCH  12  15
ENDBRANCH   1  11
BRANCH   8  27
HETATM   27  C   UNL     1      42.754 -10.247  12.389  1.00  0.00     0.409 C 
HETATM   28  F   UNL     1      43.294 -11.463  12.647  1.00  0.00    -0.169 F 
HETATM   29  F   UNL     1      42.448  -9.710  13.598  1.00  0.00    -0.169 F 
HETATM   30  F   UNL     1      41.594 -10.455  11.740  1.00  0.00    -0.169 F 
ENDBRANCH   8  27
BRANCH   6  31
HETATM   31  C   UNL     1      41.074  -7.378  11.481  1.00  0.00     0.075 A 
HETATM   32  O   UNL     1      40.195  -7.828  10.538  1.00  0.00    -0.325 OA
HETATM   33  C   UNL     1      38.992  -7.975  11.151  1.00  0.00     0.142 A 
HETATM   34  C   UNL     1      39.082  -7.630  12.478  1.00  0.00     0.027 A 
HETATM   35  C   UNL     1      40.428  -7.253  12.697  1.00  0.00     0.037 A 
ENDBRANCH   6  31
TORSDOF 6
ENDMDL
MODEL 3
REMARK VINA RESULT:      -8.6      1.017      1.462
REMARK  6 active torsions:
REMARK  status: ('A' for Active; 'I' for Inactive)
REMARK    1  A    between atoms: C_2  and  C_3 
REMARK       I    between atoms: C_3  and  N_4 
REMARK    2  A    between atoms: N_4  and  C_5 
REMARK    3  A    between atoms: C_8  and  N_9 
REMARK       I    between atoms: N_9  and  C_10 
REMARK    4  A    between atoms: C_10  and  C_11 
REMARK    5  A    between atoms: C_16  and  C_17 
REMARK    6  A    between atoms: C_23  and  C_24 
ROOT
HETATM    1  C   UNL     1      43.254 -10.744   6.914  1.00  0.00     0.148 A 
HETATM    2  N   UNL     1      44.139 -10.259   7.816  1.00  0.00    -0.165 NA
HETATM    3  N   UNL     1      43.434  -9.319   8.476  1.00  0.00    -0.240 N 
HETATM    4  C   UNL     1      42.152  -9.172   8.023  1.00  0.00     0.123 A 
HETATM    5  N   UNL     1      41.318  -8.245   8.542  1.00  0.00    -0.364 N 
HETATM    6  C   UNL     1      41.655  -7.519   9.768  1.00  0.00     0.143 C 
HETATM    7  C   UNL     1      43.174  -7.267   9.816  1.00  0.00     0.068 C 
HETATM    8  C   UNL     1      44.033  -8.513   9.521  1.00  0.00     0.221 C 
HETATM    9  C   UNL     1      41.999 -10.084   7.015  1.00  0.00     0.089 A 
HETATM   10  H   UNL     1      40.326  -8.261   8.314  1.00  0.00     0.162 HD
ENDROOT
BRANCH   1  11
HETATM   11  C   UNL     1      43.613 -11.816   5.966  1.00  0.00     0.276 C 
HETATM   12  N   UNL     1      42.980 -13.004   6.278  1.00  0.00    -0.322 N 
HETATM   13  H   UNL     1      42.352 -12.928   7.075  1.00  0.00     0.169 HD
HETATM   14  O   UNL     1      44.374 -11.611   5.029  1.00  0.00    -0.266 OA
BRANCH  12  15
HETATM   15  C   UNL     1      43.106 -14.252   5.649  1.00  0.00     0.035 A 
HETATM   16  C   UNL     1      42.613 -14.537   4.377  1.00  0.00     0.032 A 
HETATM   17  C   UNL     1      42.811 -15.800   3.799  1.00  0.00     0.032 A 
HETATM   18  C   UNL     1      43.504 -16.797   4.485  1.00  0.00     0.034 A 
HETATM   19  C   UNL     1      43.985 -16.514   5.768  1.00  0.00     0.032 A 
HETATM   20  C   UNL     1      43.788 -15.253   6.344  1.00  0.00     0.032 A 
BRANCH  18  21
HETATM   21  N   UNL     1      43.775 -18.079   3.964  1.00  0.00    -0.327 N 
HETATM   22  C   UNL     1      43.388 -18.590   2.738  1.00  0.00     0.221 C 
HETATM   23  O   UNL     1      42.719 -18.013   1.886  1.00  0.00    -0.273 OA
HETATM   24  H   UNL     1      44.319 -18.685   4.561  1.00  0.00     0.169 HD
BRANCH  22  25
HETATM   25  C   UNL     1      43.933 -19.983   2.464  1.00  0.00     0.098 C 
HETATM   26  C   UNL     1      43.890 -20.909   3.667  1.00  0.00     0.014 C 
ENDBRANCH  22  25
ENDBRANCH  18  21
ENDBRANCH  12  15
ENDBRANCH   1  11
BRANCH   8  27
HETATM   27  C   UNL     1      44.322  -9.361  10.740  1.00  0.00     0.409 C 
HETATM   28  F   UNL     1      43.493 -10.431  10.816  1.00  0.00    -0.169 F 
HETATM   29  F   UNL     1      45.580  -9.868  10.674  1.00  0.00    -0.169 F 
HETATM   30  F   UNL     1      44.221  -8.694  11.904  1.00  0.00    -0.169 F 
ENDBRANCH   8  27
BRANCH   6  31
HETATM   31  C   UNL     1      41.119  -8.121  11.025  1.00  0.00     0.075 A 
HETATM   32  O   UNL     1      40.535  -9.350  10.907  1.00  0.00    -0.325 OA
HETATM   33  C   UNL     1      40.136  -9.723  12.150  1.00  0.00     0.142 A 
HETATM   34  C   UNL     1      40.456  -8.754  13.070  1.00  0.00     0.027 A 
HETATM   35  C   UNL     1      41.101  -7.722  12.347  1.00  0.00     0.037 A 
ENDBRANCH   6  31
TORSDOF 6
ENDMDL
MODEL 4
REMARK VINA RESULT:      -8.2      3.768     10.223
REMARK  6 active torsions:
REMARK  status: ('A' for Active; 'I' for Inactive)
REMARK    1  A    between atoms: C_2  and  C_3 
REMARK       I    between atoms: C_3  and  N_4 
REMARK    2  A    between atoms: N_4  and  C_5 
REMARK    3  A    between atoms: C_8  and  N_9 
REMARK       I    between atoms: N_9  and  C_10 
REMARK    4  A    between atoms: C_10  and  C_11 
REMARK    5  A    between atoms: C_16  and  C_17 
REMARK    6  A    between atoms: C_23  and  C_24 
ROOT
HETATM    1  C   UNL     1      43.688 -10.730   7.792  1.00  0.00     0.148 A 
HETATM    2  N   UNL     1      42.494 -10.483   7.202  1.00  0.00    -0.165 NA
HETATM    3  N   UNL     1      42.704 -10.815   5.913  1.00  0.00    -0.240 N 
HETATM    4  C   UNL     1      43.977 -11.242   5.654  1.00  0.00     0.123 A 
HETATM    5  N   UNL     1      44.374 -11.575   4.406  1.00  0.00    -0.364 N 
HETATM    6  C   UNL     1      43.409 -11.729   3.317  1.00  0.00     0.143 C 
HETATM    7  C   UNL     1      42.270 -10.707   3.490  1.00  0.00     0.068 C 
HETATM    8  C   UNL     1      41.670 -10.660   4.909  1.00  0.00     0.221 C 
HETATM    9  C   UNL     1      44.640 -11.206   6.850  1.00  0.00     0.089 A 
HETATM   10  H   UNL     1      45.264 -12.047   4.259  1.00  0.00     0.162 HD
ENDROOT
BRANCH   1  11
HETATM   11  C   UNL     1      43.909 -10.503   9.232  1.00  0.00     0.276 C 
HETATM   12  N   UNL     1      42.809  -9.917   9.830  1.00  0.00    -0.322 N 
HETATM   13  H   UNL     1      42.031  -9.778   9.190  1.00  0.00     0.169 HD
HETATM   14  O   UNL     1      44.956 -10.830   9.777  1.00  0.00    -0.266 OA
BRANCH  12  15
HETATM   15  C   UNL     1      42.656  -9.503  11.161  1.00  0.00     0.035 A 
HETATM   16  C   UNL     1      43.457  -8.542  11.775  1.00  0.00     0.032 A 
HETATM   17  C   UNL     1      43.218  -8.152  13.102  1.00  0.00     0.032 A 
HETATM   18  C   UNL     1      42.176  -8.720  13.835  1.00  0.00     0.034 A 
HETATM   19  C   UNL     1      41.383  -9.695  13.222  1.00  0.00     0.032 A 
HETATM   20  C   UNL     1      41.620 -10.082  11.897  1.00  0.00     0.032 A 
BRANCH  18  21
HETATM   21  N   UNL     1      41.848  -8.361  15.159  1.00  0.00    -0.327 N 
HETATM   22  C   UNL     1      40.875  -7.471  15.574  1.00  0.00     0.221 C 
HETATM   23  O   UNL     1      40.128  -6.818  14.853  1.00  0.00    -0.273 OA
HETATM   24  H   UNL     1      42.391  -8.816  15.880  1.00  0.00     0.169 HD
BRANCH  22  25
HETATM   25  C   UNL     1      40.734  -7.392  17.087  1.00  0.00     0.098 C 
HETATM   26  C   UNL     1      39.825  -6.273  17.565  1.00  0.00     0.014 C 
ENDBRANCH  22  25
ENDBRANCH  18  21
ENDBRANCH  12  15
ENDBRANCH   1  11
BRANCH   8  27
HETATM   27  C   UNL     1      40.559 -11.660   5.138  1.00  0.00     0.409 C 
HETATM   28  F   UNL     1      39.521 -11.113   5.817  1.00  0.00    -0.169 F 
HETATM   29  F   UNL     1      40.050 -12.079   3.951  1.00  0.00    -0.169 F 
HETATM   30  F   UNL     1      40.945 -12.757   5.816  1.00  0.00    -0.169 F 
ENDBRANCH   8  27
BRANCH   6  31
HETATM   31  C   UNL     1      42.920 -13.123   3.099  1.00  0.00     0.075 A 
HETATM   32  O   UNL     1      42.336 -13.378   1.891  1.00  0.00    -0.325 OA
HETATM   33  C   UNL     1      41.982 -14.689   1.888  1.00  0.00     0.142 A 
HETATM   34  C   UNL     1      42.333 -15.286   3.076  1.00  0.00     0.027 A 
HETATM   35  C   UNL     1      42.948 -14.278   3.856  1.00  0.00     0.037 A 
ENDBRANCH   6  31
TORSDOF 6
ENDMDL
MODEL 5
REMARK VINA RESULT:      -8.1     19.457     21.568
REMARK  6 active torsions:
REMARK  status: ('A' for Active; 'I' for Inactive)
REMARK    1  A    between atoms: C_2  and  C_3 
REMARK       I    between atoms: C_3  and  N_4 
REMARK    2  A    between atoms: N_4  and  C_5 
REMARK    3  A    between atoms: C_8  and  N_9 
REMARK       I    between atoms: N_9  and  C_10 
REMARK    4  A    between atoms: C_10  and  C_11 
REMARK    5  A    between atoms: C_16  and  C_17 
REMARK    6  A    between atoms: C_23  and  C_24 
ROOT
HETATM    1  C   UNL     1      48.829 -29.773   0.155  1.00  0.00     0.148 A 
HETATM    2  N   UNL     1      47.545 -29.766   0.583  1.00  0.00    -0.165 NA
HETATM    3  N   UNL     1      46.872 -29.203  -0.440  1.00  0.00    -0.240 N 
HETATM    4  C   UNL     1      47.671 -28.835  -1.488  1.00  0.00     0.123 A 
HETATM    5  N   UNL     1      47.169 -28.218  -2.579  1.00  0.00    -0.364 N 
HETATM    6  C   UNL     1      45.727 -28.127  -2.807  1.00  0.00     0.143 C 
HETATM    7  C   UNL     1      45.002 -27.963  -1.458  1.00  0.00     0.068 C 
HETATM    8  C   UNL     1      45.444 -28.966  -0.374  1.00  0.00     0.221 C 
HETATM    9  C   UNL     1      48.944 -29.195  -1.139  1.00  0.00     0.089 A 
HETATM   10  H   UNL     1      47.742 -28.105  -3.414  1.00  0.00     0.162 HD
ENDROOT
BRANCH   1  11
HETATM   11  C   UNL     1      49.924 -30.315   0.979  1.00  0.00     0.276 C 
HETATM   12  N   UNL     1      49.468 -30.756   2.207  1.00  0.00    -0.322 N 
HETATM   13  H   UNL     1      48.460 -30.666   2.316  1.00  0.00     0.169 HD
HETATM   14  O   UNL     1      51.076 -30.356   0.564  1.00  0.00    -0.266 OA
BRANCH  12  15
HETATM   15  C   UNL     1      50.207 -31.283   3.276  1.00  0.00     0.035 A 
HETATM   16  C   UNL     1      50.645 -32.604   3.345  1.00  0.00     0.032 A 
HETATM   17  C   UNL     1      51.414 -33.048   4.432  1.00  0.00     0.032 A 
HETATM   18  C   UNL     1      51.754 -32.178   5.466  1.00  0.00     0.034 A 
HETATM   19  C   UNL     1      51.302 -30.856   5.403  1.00  0.00     0.032 A 
HETATM   20  C   UNL     1      50.536 -30.412   4.318  1.00  0.00     0.032 A 
BRANCH  18  21
HETATM   21  N   UNL     1      52.550 -32.535   6.575  1.00  0.00    -0.327 N 
HETATM   22  C   UNL     1      53.873 -32.204   6.804  1.00  0.00     0.221 C 
HETATM   23  O   UNL     1      54.599 -31.548   6.065  1.00  0.00    -0.273 OA
HETATM   24  H   UNL     1      52.089 -33.093   7.280  1.00  0.00     0.169 HD
BRANCH  22  25
HETATM   25  C   UNL     1      54.392 -32.684   8.151  1.00  0.00     0.098 C 
HETATM   26  C   UNL     1      53.667 -32.080   9.341  1.00  0.00     0.014 C 
ENDBRANCH  22  25
ENDBRANCH  18  21
ENDBRANCH  12  15
ENDBRANCH   1  11
BRANCH   8  27
HETATM   27  C   UNL     1      44.691 -30.277  -0.409  1.00  0.00     0.409 C 
HETATM   28  F   UNL     1      44.510 -30.788   0.834  1.00  0.00    -0.169 F 
HETATM   29  F   UNL     1      43.446 -30.092  -0.920  1.00  0.00    -0.169 F 
HETATM   30  F   UNL     1      45.288 -31.229  -1.148  1.00  0.00    -0.169 F 
ENDBRANCH   8  27
BRANCH   6  31
HETATM   31  C   UNL     1      45.152 -29.214  -3.654  1.00  0.00     0.075 A 
HETATM   32  O   UNL     1      46.020 -30.184  -4.065  1.00  0.00    -0.325 OA
HETATM   33  C   UNL     1      45.304 -31.075  -4.799  1.00  0.00     0.142 A 
HETATM   34  C   UNL     1      43.984 -30.696  -4.864  1.00  0.00     0.027 A 
HETATM   35  C   UNL     1      43.881 -29.499  -4.117  1.00  0.00     0.037 A 
ENDBRANCH   6  31
TORSDOF 6
ENDMDL
MODEL 6
REMARK VINA RESULT:      -7.8      6.880     10.644
REMARK  6 active torsions:
REMARK  status: ('A' for Active; 'I' for Inactive)
REMARK    1  A    between atoms: C_2  and  C_3 
REMARK       I    between atoms: C_3  and  N_4 
REMARK    2  A    between atoms: N_4  and  C_5 
REMARK    3  A    between atoms: C_8  and  N_9 
REMARK       I    between atoms: N_9  and  C_10 
REMARK    4  A    between atoms: C_10  and  C_11 
REMARK    5  A    between atoms: C_16  and  C_17 
REMARK    6  A    between atoms: C_23  and  C_24 
ROOT
HETATM    1  C   UNL     1      41.382  -7.227  17.063  1.00  0.00     0.148 A 
HETATM    2  N   UNL     1      42.143  -6.577  17.975  1.00  0.00    -0.165 NA
HETATM    3  N   UNL     1      41.594  -6.930  19.154  1.00  0.00    -0.240 N 
HETATM    4  C   UNL     1      40.511  -7.756  19.032  1.00  0.00     0.123 A 
HETATM    5  N   UNL     1      39.812  -8.174  20.110  1.00  0.00    -0.364 N 
HETATM    6  C   UNL     1      40.314  -7.966  21.469  1.00  0.00     0.143 C 
HETATM    7  C   UNL     1      41.064  -6.624  21.541  1.00  0.00     0.068 C 
HETATM    8  C   UNL     1      42.092  -6.410  20.412  1.00  0.00     0.221 C 
HETATM    9  C   UNL     1      40.349  -7.975  17.691  1.00  0.00     0.089 A 
HETATM   10  H   UNL     1      39.121  -8.916  20.018  1.00  0.00     0.162 HD
ENDROOT
BRANCH   1  11
HETATM   11  C   UNL     1      41.639  -7.123  15.614  1.00  0.00     0.276 C 
HETATM   12  N   UNL     1      41.854  -8.363  15.044  1.00  0.00    -0.322 N 
HETATM   13  H   UNL     1      41.762  -9.130  15.706  1.00  0.00     0.169 HD
HETATM   14  O   UNL     1      41.636  -6.040  15.041  1.00  0.00    -0.266 OA
BRANCH  12  15
HETATM   15  C   UNL     1      42.179  -8.668  13.714  1.00  0.00     0.035 A 
HETATM   16  C   UNL     1      43.280  -8.144  13.040  1.00  0.00     0.032 A 
HETATM   17  C   UNL     1      43.560  -8.527  11.720  1.00  0.00     0.032 A 
HETATM   18  C   UNL     1      42.743  -9.439  11.053  1.00  0.00     0.034 A 
HETATM   19  C   UNL     1      41.629  -9.953  11.726  1.00  0.00     0.032 A 
HETATM   20  C   UNL     1      41.350  -9.572  13.044  1.00  0.00     0.032 A 
BRANCH  18  21
HETATM   21  N   UNL     1      42.972  -9.901   9.741  1.00  0.00    -0.327 N 
HETATM   22  C   UNL     1      44.083 -10.574   9.267  1.00  0.00     0.221 C 
HETATM   23  O   UNL     1      45.082 -10.878   9.911  1.00  0.00    -0.273 OA
HETATM   24  H   UNL     1      42.232  -9.717   9.079  1.00  0.00     0.169 HD
BRANCH  22  25
HETATM   25  C   UNL     1      43.956 -11.002   7.812  1.00  0.00     0.098 C 
HETATM   26  C   UNL     1      45.279 -11.353   7.155  1.00  0.00     0.014 C 
ENDBRANCH  22  25
ENDBRANCH  18  21
ENDBRANCH  12  15
ENDBRANCH   1  11
BRANCH   8  27
HETATM   27  C   UNL     1      43.460  -6.980  20.712  1.00  0.00     0.409 C 
HETATM   28  F   UNL     1      44.451  -6.202  20.212  1.00  0.00    -0.169 F 
HETATM   29  F   UNL     1      43.666  -7.030  22.053  1.00  0.00    -0.169 F 
HETATM   30  F   UNL     1      43.649  -8.223  20.232  1.00  0.00    -0.169 F 
ENDBRANCH   8  27
BRANCH   6  31
HETATM   31  C   UNL     1      41.094  -9.107  22.035  1.00  0.00     0.075 A 
HETATM   32  O   UNL     1      41.369 -10.136  21.180  1.00  0.00    -0.325 OA
HETATM   33  C   UNL     1      42.091 -11.051  21.876  1.00  0.00     0.142 A 
HETATM   34  C   UNL     1      42.291 -10.625  23.168  1.00  0.00     0.027 A 
HETATM   35  C   UNL     1      41.655  -9.365  23.270  1.00  0.00     0.037 A 
ENDBRANCH   6  31
TORSDOF 6
ENDMDL
MODEL 7
REMARK VINA RESULT:      -7.7      8.849     11.879
REMARK  6 active torsions:
REMARK  status: ('A' for Active; 'I' for Inactive)
REMARK    1  A    between atoms: C_2  and  C_3 
REMARK       I    between atoms: C_3  and  N_4 
REMARK    2  A    between atoms: N_4  and  C_5 
REMARK    3  A    between atoms: C_8  and  N_9 
REMARK       I    between atoms: N_9  and  C_10 
REMARK    4  A    between atoms: C_10  and  C_11 
REMARK    5  A    between atoms: C_16  and  C_17 
REMARK    6  A    between atoms: C_23  and  C_24 
ROOT
HETATM    1  C   UNL     1      40.438 -13.331  -0.667  1.00  0.00     0.148 A 
HETATM    2  N   UNL     1      41.013 -12.746   0.410  1.00  0.00    -0.165 NA
HETATM    3  N   UNL     1      40.845 -13.655   1.391  1.00  0.00    -0.240 N 
HETATM    4  C   UNL     1      40.175 -14.779   0.992  1.00  0.00     0.123 A 
HETATM    5  N   UNL     1      39.882 -15.775   1.855  1.00  0.00    -0.364 N 
HETATM    6  C   UNL     1      40.469 -15.817   3.195  1.00  0.00     0.143 C 
HETATM    7  C   UNL     1      40.626 -14.383   3.735  1.00  0.00     0.068 C 
HETATM    8  C   UNL     1      41.289 -13.402   2.747  1.00  0.00     0.221 C 
HETATM    9  C   UNL     1      39.902 -14.605  -0.338  1.00  0.00     0.089 A 
HETATM   10  H   UNL     1      39.538 -16.669   1.510  1.00  0.00     0.162 HD
ENDROOT
BRANCH   1  11
HETATM   11  C   UNL     1      40.398 -12.670  -1.985  1.00  0.00     0.276 C 
HETATM   12  N   UNL     1      40.163 -11.314  -1.869  1.00  0.00    -0.322 N 
HETATM   13  H   UNL     1      40.097 -11.000  -0.903  1.00  0.00     0.169 HD
HETATM   14  O   UNL     1      40.574 -13.301  -3.021  1.00  0.00    -0.266 OA
BRANCH  12  15
HETATM   15  C   UNL     1      40.006 -10.364  -2.888  1.00  0.00     0.035 A 
HETATM   16  C   UNL     1      41.042  -9.576  -3.387  1.00  0.00     0.032 A 
HETATM   17  C   UNL     1      40.814  -8.673  -4.436  1.00  0.00     0.032 A 
HETATM   18  C   UNL     1      39.546  -8.542  -5.000  1.00  0.00     0.034 A 
HETATM   19  C   UNL     1      38.503  -9.322  -4.489  1.00  0.00     0.032 A 
HETATM   20  C   UNL     1      38.732 -10.225  -3.443  1.00  0.00     0.032 A 
BRANCH  18  21
HETATM   21  N   UNL     1      39.240  -7.684  -6.077  1.00  0.00    -0.327 N 
HETATM   22  C   UNL     1      39.554  -7.862  -7.412  1.00  0.00     0.221 C 
HETATM   23  O   UNL     1      40.175  -8.802  -7.896  1.00  0.00    -0.273 OA
HETATM   24  H   UNL     1      38.729  -6.847  -5.835  1.00  0.00     0.169 HD
BRANCH  22  25
HETATM   25  C   UNL     1      38.988  -6.776  -8.316  1.00  0.00     0.098 C 
HETATM   26  C   UNL     1      39.739  -6.611  -9.625  1.00  0.00     0.014 C 
ENDBRANCH  22  25
ENDBRANCH  18  21
ENDBRANCH  12  15
ENDBRANCH   1  11
BRANCH   8  27
HETATM   27  C   UNL     1      42.800 -13.395   2.813  1.00  0.00     0.409 C 
HETATM   28  F   UNL     1      43.349 -14.207   1.877  1.00  0.00    -0.169 F 
HETATM   29  F   UNL     1      43.276 -12.150   2.552  1.00  0.00    -0.169 F 
HETATM   30  F   UNL     1      43.295 -13.769   4.007  1.00  0.00    -0.169 F 
ENDBRANCH   8  27
BRANCH   6  31
HETATM   31  C   UNL     1      41.718 -16.628   3.311  1.00  0.00     0.075 A 
HETATM   32  O   UNL     1      42.144 -17.251   2.173  1.00  0.00    -0.325 OA
HETATM   33  C   UNL     1      43.288 -17.912   2.484  1.00  0.00     0.142 A 
HETATM   34  C   UNL     1      43.611 -17.722   3.807  1.00  0.00     0.027 A 
HETATM   35  C   UNL     1      42.602 -16.885   4.341  1.00  0.00     0.037 A 
ENDBRANCH   6  31
TORSDOF 6
ENDMDL
MODEL 8
REMARK VINA RESULT:      -7.7      7.513     10.183
REMARK  6 active torsions:
REMARK  status: ('A' for Active; 'I' for Inactive)
REMARK    1  A    between atoms: C_2  and  C_3 
REMARK       I    between atoms: C_3  and  N_4 
REMARK    2  A    between atoms: N_4  and  C_5 
REMARK    3  A    between atoms: C_8  and  N_9 
REMARK       I    between atoms: N_9  and  C_10 
REMARK    4  A    between atoms: C_10  and  C_11 
REMARK    5  A    between atoms: C_16  and  C_17 
REMARK    6  A    between atoms: C_23  and  C_24 
ROOT
HETATM    1  C   UNL     1      40.112 -13.751   1.917  1.00  0.00     0.148 A 
HETATM    2  N   UNL     1      40.390 -13.016   3.020  1.00  0.00    -0.165 NA
HETATM    3  N   UNL     1      40.481 -13.937   3.999  1.00  0.00    -0.240 N 
HETATM    4  C   UNL     1      40.254 -15.218   3.575  1.00  0.00     0.123 A 
HETATM    5  N   UNL     1      40.263 -16.262   4.431  1.00  0.00    -0.364 N 
HETATM    6  C   UNL     1      40.750 -16.115   5.804  1.00  0.00     0.143 C 
HETATM    7  C   UNL     1      40.381 -14.718   6.335  1.00  0.00     0.068 C 
HETATM    8  C   UNL     1      40.732 -13.562   5.377  1.00  0.00     0.221 C 
HETATM    9  C   UNL     1      40.018 -15.135   2.229  1.00  0.00     0.089 A 
HETATM   10  H   UNL     1      40.262 -17.217   4.077  1.00  0.00     0.162 HD
ENDROOT
BRANCH   1  11
HETATM   11  C   UNL     1      39.930 -13.131   0.592  1.00  0.00     0.276 C 
HETATM   12  N   UNL     1      38.616 -12.761   0.378  1.00  0.00    -0.322 N 
HETATM   13  H   UNL     1      38.013 -12.943   1.177  1.00  0.00     0.169 HD
HETATM   14  O   UNL     1      40.872 -12.978  -0.177  1.00  0.00    -0.266 OA
BRANCH  12  15
HETATM   15  C   UNL     1      38.044 -12.195  -0.770  1.00  0.00     0.035 A 
HETATM   16  C   UNL     1      37.686 -12.923  -1.904  1.00  0.00     0.032 A 
HETATM   17  C   UNL     1      37.083 -12.289  -3.001  1.00  0.00     0.032 A 
HETATM   18  C   UNL     1      36.830 -10.918  -2.982  1.00  0.00     0.034 A 
HETATM   19  C   UNL     1      37.203 -10.186  -1.849  1.00  0.00     0.032 A 
HETATM   20  C   UNL     1      37.803 -10.819  -0.754  1.00  0.00     0.032 A 
BRANCH  18  21
HETATM   21  N   UNL     1      36.199 -10.212  -4.026  1.00  0.00    -0.327 N 
HETATM   22  C   UNL     1      34.857 -10.226  -4.363  1.00  0.00     0.221 C 
HETATM   23  O   UNL     1      33.974 -10.876  -3.813  1.00  0.00    -0.273 OA
HETATM   24  H   UNL     1      36.805  -9.628  -4.585  1.00  0.00     0.169 HD
BRANCH  22  25
HETATM   25  C   UNL     1      34.508  -9.270  -5.495  1.00  0.00     0.098 C 
HETATM   26  C   UNL     1      35.110  -7.885  -5.340  1.00  0.00     0.014 C 
ENDBRANCH  22  25
ENDBRANCH  18  21
ENDBRANCH  12  15
ENDBRANCH   1  11
BRANCH   8  27
HETATM   27  C   UNL     1      42.146 -13.046   5.531  1.00  0.00     0.409 C 
HETATM   28  F   UNL     1      42.977 -13.566   4.596  1.00  0.00    -0.169 F 
HETATM   29  F   UNL     1      42.178 -11.700   5.352  1.00  0.00    -0.169 F 
HETATM   30  F   UNL     1      42.690 -13.301   6.735  1.00  0.00    -0.169 F 
ENDBRANCH   8  27
BRANCH   6  31
HETATM   31  C   UNL     1      42.189 -16.459   6.003  1.00  0.00     0.075 A 
HETATM   32  O   UNL     1      42.649 -16.422   7.288  1.00  0.00    -0.325 OA
HETATM   33  C   UNL     1      43.958 -16.780   7.254  1.00  0.00     0.142 A 
HETATM   34  C   UNL     1      44.351 -17.050   5.965  1.00  0.00     0.027 A 
HETATM   35  C   UNL     1      43.207 -16.853   5.155  1.00  0.00     0.037 A 
ENDBRANCH   6  31
TORSDOF 6
ENDMDL
MODEL 9
REMARK VINA RESULT:      -7.6      3.468     10.445
REMARK  6 active torsions:
REMARK  status: ('A' for Active; 'I' for Inactive)
REMARK    1  A    between atoms: C_2  and  C_3 
REMARK       I    between atoms: C_3  and  N_4 
REMARK    2  A    between atoms: N_4  and  C_5 
REMARK    3  A    between atoms: C_8  and  N_9 
REMARK       I    between atoms: N_9  and  C_10 
REMARK    4  A    between atoms: C_10  and  C_11 
REMARK    5  A    between atoms: C_16  and  C_17 
REMARK    6  A    between atoms: C_23  and  C_24 
ROOT
HETATM    1  C   UNL     1      41.026 -11.894   5.709  1.00  0.00     0.148 A 
HETATM    2  N   UNL     1      41.482 -12.948   6.425  1.00  0.00    -0.165 NA
HETATM    3  N   UNL     1      41.160 -14.011   5.662  1.00  0.00    -0.240 N 
HETATM    4  C   UNL     1      40.504 -13.683   4.508  1.00  0.00     0.123 A 
HETATM    5  N   UNL     1      40.068 -14.627   3.646  1.00  0.00    -0.364 N 
HETATM    6  C   UNL     1      40.481 -16.025   3.776  1.00  0.00     0.143 C 
HETATM    7  C   UNL     1      40.621 -16.383   5.267  1.00  0.00     0.068 C 
HETATM    8  C   UNL     1      41.439 -15.368   6.090  1.00  0.00     0.221 C 
HETATM    9  C   UNL     1      40.406 -12.318   4.502  1.00  0.00     0.089 A 
HETATM   10  H   UNL     1      39.736 -14.363   2.720  1.00  0.00     0.162 HD
ENDROOT
BRANCH   1  11
HETATM   11  C   UNL     1      41.176 -10.505   6.183  1.00  0.00     0.276 C 
HETATM   12  N   UNL     1      41.888 -10.444   7.366  1.00  0.00    -0.322 N 
HETATM   13  H   UNL     1      42.216 -11.354   7.684  1.00  0.00     0.169 HD
HETATM   14  O   UNL     1      40.715  -9.561   5.552  1.00  0.00    -0.266 OA
BRANCH  12  15
HETATM   15  C   UNL     1      42.190  -9.319   8.146  1.00  0.00     0.035 A 
HETATM   16  C   UNL     1      43.405  -8.638   8.095  1.00  0.00     0.032 A 
HETATM   17  C   UNL     1      43.619  -7.496   8.882  1.00  0.00     0.032 A 
HETATM   18  C   UNL     1      42.623  -7.019   9.732  1.00  0.00     0.034 A 
HETATM   19  C   UNL     1      41.409  -7.712   9.793  1.00  0.00     0.032 A 
HETATM   20  C   UNL     1      41.195  -8.851   9.007  1.00  0.00     0.032 A 
BRANCH  18  21
HETATM   21  N   UNL     1      42.744  -5.862  10.529  1.00  0.00    -0.327 N 
HETATM   22  C   UNL     1      42.250  -4.598  10.261  1.00  0.00     0.221 C 
HETATM   23  O   UNL     1      41.624  -4.256   9.263  1.00  0.00    -0.273 OA
HETATM   24  H   UNL     1      43.250  -5.981  11.395  1.00  0.00     0.169 HD
BRANCH  22  25
HETATM   25  C   UNL     1      42.491  -3.604  11.387  1.00  0.00     0.098 C 
HETATM   26  C   UNL     1      43.542  -2.555  11.069  1.00  0.00     0.014 C 
ENDBRANCH  22  25
ENDBRANCH  18  21
ENDBRANCH  12  15
ENDBRANCH   1  11
BRANCH   8  27
HETATM   27  C   UNL     1      42.929 -15.627   6.077  1.00  0.00     0.409 C 
HETATM   28  F   UNL     1      43.518 -15.242   7.236  1.00  0.00    -0.169 F 
HETATM   29  F   UNL     1      43.175 -16.957   5.957  1.00  0.00    -0.169 F 
HETATM   30  F   UNL     1      43.581 -15.009   5.075  1.00  0.00    -0.169 F 
ENDBRANCH   8  27
BRANCH   6  31
HETATM   31  C   UNL     1      41.674 -16.409   2.964  1.00  0.00     0.075 A 
HETATM   32  O   UNL     1      42.216 -15.428   2.184  1.00  0.00    -0.325 OA
HETATM   33  C   UNL     1      43.287 -15.970   1.549  1.00  0.00     0.142 A 
HETATM   34  C   UNL     1      43.447 -17.286   1.912  1.00  0.00     0.027 A 
HETATM   35  C   UNL     1      42.411 -17.570   2.833  1.00  0.00     0.037 A 
ENDBRANCH   6  31
TORSDOF 6
ENDMDL
MODEL 10
REMARK VINA RESULT:      -7.6     19.112     21.079
REMARK  6 active torsions:
REMARK  status: ('A' for Active; 'I' for Inactive)
REMARK    1  A    between atoms: C_2  and  C_3 
REMARK       I    between atoms: C_3  and  N_4 
REMARK    2  A    between atoms: N_4  and  C_5 
REMARK    3  A    between atoms: C_8  and  N_9 
REMARK       I    between atoms: N_9  and  C_10 
REMARK    4  A    between atoms: C_10  and  C_11 
REMARK    5  A    between atoms: C_16  and  C_17 
REMARK    6  A    between atoms: C_23  and  C_24 
ROOT
HETATM    1  C   UNL     1      43.673 -29.583   1.267  1.00  0.00     0.148 A 
HETATM    2  N   UNL     1      43.821 -29.115   0.006  1.00  0.00    -0.165 NA
HETATM    3  N   UNL     1      45.145 -28.884  -0.093  1.00  0.00    -0.240 N 
HETATM    4  C   UNL     1      45.840 -29.165   1.051  1.00  0.00     0.123 A 
HETATM    5  N   UNL     1      47.171 -28.951   1.144  1.00  0.00    -0.364 N 
HETATM    6  C   UNL     1      47.975 -28.640  -0.038  1.00  0.00     0.143 C 
HETATM    7  C   UNL     1      47.148 -27.782  -1.013  1.00  0.00     0.068 C 
HETATM    8  C   UNL     1      45.733 -28.327  -1.295  1.00  0.00     0.221 C 
HETATM    9  C   UNL     1      44.919 -29.626   1.951  1.00  0.00     0.089 A 
HETATM   10  H   UNL     1      47.696 -29.320   1.935  1.00  0.00     0.162 HD
ENDROOT
BRANCH   1  11
HETATM   11  C   UNL     1      42.357 -29.973   1.806  1.00  0.00     0.276 C 
HETATM   12  N   UNL     1      42.452 -31.071   2.639  1.00  0.00    -0.322 N 
HETATM   13  H   UNL     1      43.408 -31.397   2.767  1.00  0.00     0.169 HD
HETATM   14  O   UNL     1      41.341 -29.349   1.524  1.00  0.00    -0.266 OA
BRANCH  12  15
HETATM   15  C   UNL     1      41.422 -31.763   3.294  1.00  0.00     0.035 A 
HETATM   16  C   UNL     1      40.811 -32.909   2.792  1.00  0.00     0.032 A 
HETATM   17  C   UNL     1      39.811 -33.567   3.524  1.00  0.00     0.032 A 
HETATM   18  C   UNL     1      39.408 -33.087   4.770  1.00  0.00     0.034 A 
HETATM   19  C   UNL     1      40.012 -31.928   5.267  1.00  0.00     0.032 A 
HETATM   20  C   UNL     1      41.011 -31.272   4.536  1.00  0.00     0.032 A 
BRANCH  18  21
HETATM   21  N   UNL     1      38.436 -33.707   5.583  1.00  0.00    -0.327 N 
HETATM   22  C   UNL     1      37.064 -33.546   5.529  1.00  0.00     0.221 C 
HETATM   23  O   UNL     1      36.445 -32.814   4.762  1.00  0.00    -0.273 OA
HETATM   24  H   UNL     1      38.795 -34.343   6.281  1.00  0.00     0.169 HD
BRANCH  22  25
HETATM   25  C   UNL     1      36.311 -34.441   6.502  1.00  0.00     0.098 C 
HETATM   26  C   UNL     1      36.912 -34.479   7.896  1.00  0.00     0.014 C 
ENDBRANCH  22  25
ENDBRANCH  18  21
ENDBRANCH  12  15
ENDBRANCH   1  11
BRANCH   8  27
HETATM   27  C   UNL     1      45.677 -29.333  -2.423  1.00  0.00     0.409 C 
HETATM   28  F   UNL     1      44.521 -29.239  -3.125  1.00  0.00    -0.169 F 
HETATM   29  F   UNL     1      46.675 -29.098  -3.314  1.00  0.00    -0.169 F 
HETATM   30  F   UNL     1      45.796 -30.611  -2.019  1.00  0.00    -0.169 F 
ENDBRANCH   8  27
BRANCH   6  31
HETATM   31  C   UNL     1      48.617 -29.820  -0.692  1.00  0.00     0.075 A 
HETATM   32  O   UNL     1      48.313 -31.043  -0.168  1.00  0.00    -0.325 OA
HETATM   33  C   UNL     1      48.975 -31.970  -0.907  1.00  0.00     0.142 A 
HETATM   34  C   UNL     1      49.701 -31.363  -1.904  1.00  0.00     0.027 A 
HETATM   35  C   UNL     1      49.464 -29.973  -1.773  1.00  0.00     0.037 A 
ENDBRANCH   6  31
TORSDOF 6
ENDMDL
