MODEL 1
REMARK VINA RESULT:      -7.5      0.000      0.000
REMARK  4 active torsions:
REMARK  status: ('A' for Active; 'I' for Inactive)
REMARK    1  A    between atoms: S_2  and  N_3 
REMARK    2  A    between atoms: N_3  and  N_4 
REMARK    3  A    between atoms: C_10  and  C_11 
REMARK    4  A    between atoms: C_14  and  O_15 
ROOT
HETATM    1  N   UNL     1      42.942 -15.728   4.030  1.00  0.00    -0.224 N 
HETATM    2  C   UNL     1      43.703 -16.731   4.627  1.00  0.00     0.276 C 
HETATM    3  O   UNL     1      44.451 -16.584   5.587  1.00  0.00    -0.266 OA
HETATM    4  C   UNL     1      43.620 -18.067   3.987  1.00  0.00     0.055 A 
HETATM    5  C   UNL     1      42.887 -18.201   2.799  1.00  0.00     0.026 A 
HETATM    6  N   UNL     1      42.237 -17.098   2.221  1.00  0.00    -0.265 NA
HETATM    7  C   UNL     1      41.798 -16.111   3.203  1.00  0.00     0.222 C 
HETATM    8  C   UNL     1      44.314 -19.154   4.532  1.00  0.00     0.019 A 
HETATM    9  C   UNL     1      44.310 -20.380   3.868  1.00  0.00     0.001 A 
HETATM   10  C   UNL     1      43.635 -20.508   2.656  1.00  0.00     0.002 A 
HETATM   11  C   UNL     1      42.940 -19.421   2.118  1.00  0.00     0.024 A 
HETATM   12  H   UNL     1      41.483 -17.376   1.598  1.00  0.00     0.130 HD
ENDROOT
BRANCH   7  13
HETATM   13  C   UNL     1      41.135 -14.958   2.462  1.00  0.00    -0.019 A 
HETATM   14  C   UNL     1      41.613 -14.563   1.198  1.00  0.00     0.013 A 
HETATM   15  C   UNL     1      40.988 -13.536   0.487  1.00  0.00     0.037 A 
HETATM   16  C   UNL     1      39.882 -12.898   1.037  1.00  0.00     0.065 A 
HETATM   17  C   UNL     1      39.392 -13.269   2.283  1.00  0.00     0.037 A 
HETATM   18  C   UNL     1      40.014 -14.297   2.993  1.00  0.00     0.013 A 
BRANCH  16  19
HETATM   19  O   UNL     1      39.239 -11.894   0.377  1.00  0.00    -0.361 OA
HETATM   20  H   UNL     1      39.431 -11.967  -0.573  1.00  0.00     0.217 HD
ENDBRANCH  16  19
ENDBRANCH   7  13
BRANCH   1  21
HETATM   21  N   UNL     1      42.913 -14.352   4.589  1.00  0.00    -0.220 N 
HETATM   22  H   UNL     1      43.733 -13.759   4.423  1.00  0.00     0.200 HD
BRANCH  21  23
HETATM   23  S   UNL     1      42.213 -13.926   6.061  1.00  0.00     0.240 S 
HETATM   24  C   UNL     1      43.596 -13.479   7.101  1.00  0.00     0.187 C 
HETATM   25  O   UNL     1      41.495 -15.050   6.617  1.00  0.00    -0.205 OA
HETATM   26  O   UNL     1      41.507 -12.694   5.762  1.00  0.00    -0.205 OA
ENDBRANCH  21  23
ENDBRANCH   1  21
TORSDOF 4
ENDMDL
MODEL 2
REMARK VINA RESULT:      -7.4      2.431      2.992
REMARK  4 active torsions:
REMARK  status: ('A' for Active; 'I' for Inactive)
REMARK    1  A    between atoms: S_2  and  N_3 
REMARK    2  A    between atoms: N_3  and  N_4 
REMARK    3  A    between atoms: C_10  and  C_11 
REMARK    4  A    between atoms: C_14  and  O_15 
ROOT
HETATM    1  N   UNL     1      42.724 -14.402   5.685  1.00  0.00    -0.224 N 
HETATM    2  C   UNL     1      43.558 -15.518   5.699  1.00  0.00     0.276 C 
HETATM    3  O   UNL     1      44.463 -15.723   6.500  1.00  0.00    -0.266 OA
HETATM    4  C   UNL     1      43.341 -16.494   4.604  1.00  0.00     0.055 A 
HETATM    5  C   UNL     1      42.412 -16.187   3.600  1.00  0.00     0.026 A 
HETATM    6  N   UNL     1      41.692 -14.981   3.624  1.00  0.00    -0.265 NA
HETATM    7  C   UNL     1      41.447 -14.486   4.976  1.00  0.00     0.222 C 
HETATM    8  C   UNL     1      44.099 -17.671   4.549  1.00  0.00     0.019 A 
HETATM    9  C   UNL     1      43.958 -18.533   3.462  1.00  0.00     0.001 A 
HETATM   10  C   UNL     1      43.082 -18.207   2.429  1.00  0.00     0.002 A 
HETATM   11  C   UNL     1      42.324 -17.034   2.491  1.00  0.00     0.024 A 
HETATM   12  H   UNL     1      40.838 -15.029   3.076  1.00  0.00     0.130 HD
ENDROOT
BRANCH   7  13
HETATM   13  C   UNL     1      40.688 -13.170   4.875  1.00  0.00    -0.019 A 
HETATM   14  C   UNL     1      40.961 -12.276   3.824  1.00  0.00     0.013 A 
HETATM   15  C   UNL     1      40.242 -11.085   3.694  1.00  0.00     0.037 A 
HETATM   16  C   UNL     1      39.247 -10.783   4.616  1.00  0.00     0.065 A 
HETATM   17  C   UNL     1      38.959 -11.650   5.663  1.00  0.00     0.037 A 
HETATM   18  C   UNL     1      39.674 -12.840   5.793  1.00  0.00     0.013 A 
BRANCH  16  19
HETATM   19  O   UNL     1      38.518  -9.636   4.525  1.00  0.00    -0.361 OA
HETATM   20  H   UNL     1      38.876  -9.090   3.805  1.00  0.00     0.217 HD
ENDBRANCH  16  19
ENDBRANCH   7  13
BRANCH   1  21
HETATM   21  N   UNL     1      42.817 -13.362   6.743  1.00  0.00    -0.220 N 
HETATM   22  H   UNL     1      41.975 -13.182   7.300  1.00  0.00     0.200 HD
BRANCH  21  23
HETATM   23  S   UNL     1      43.712 -11.940   6.618  1.00  0.00     0.240 S 
HETATM   24  C   UNL     1      42.518 -10.637   6.877  1.00  0.00     0.187 C 
HETATM   25  O   UNL     1      44.308 -11.838   5.307  1.00  0.00    -0.205 OA
HETATM   26  O   UNL     1      44.559 -11.963   7.797  1.00  0.00    -0.205 OA
ENDBRANCH  21  23
ENDBRANCH   1  21
TORSDOF 4
ENDMDL
MODEL 3
REMARK VINA RESULT:      -7.2      1.743      2.140
REMARK  4 active torsions:
REMARK  status: ('A' for Active; 'I' for Inactive)
REMARK    1  A    between atoms: S_2  and  N_3 
REMARK    2  A    between atoms: N_3  and  N_4 
REMARK    3  A    between atoms: C_10  and  C_11 
REMARK    4  A    between atoms: C_14  and  O_15 
ROOT
HETATM    1  N   UNL     1      42.420 -14.302   4.271  1.00  0.00    -0.224 N 
HETATM    2  C   UNL     1      43.198 -15.236   4.952  1.00  0.00     0.276 C 
HETATM    3  O   UNL     1      43.800 -15.036   6.001  1.00  0.00    -0.266 OA
HETATM    4  C   UNL     1      43.334 -16.559   4.295  1.00  0.00     0.055 A 
HETATM    5  C   UNL     1      42.774 -16.740   3.022  1.00  0.00     0.026 A 
HETATM    6  N   UNL     1      42.092 -15.696   2.375  1.00  0.00    -0.265 NA
HETATM    7  C   UNL     1      41.435 -14.780   3.302  1.00  0.00     0.222 C 
HETATM    8  C   UNL     1      44.061 -17.583   4.915  1.00  0.00     0.019 A 
HETATM    9  C   UNL     1      44.266 -18.788   4.244  1.00  0.00     0.001 A 
HETATM   10  C   UNL     1      43.766 -18.957   2.955  1.00  0.00     0.002 A 
HETATM   11  C   UNL     1      43.036 -17.933   2.342  1.00  0.00     0.024 A 
HETATM   12  H   UNL     1      41.456 -16.035   1.658  1.00  0.00     0.130 HD
ENDROOT
BRANCH   7  13
HETATM   13  C   UNL     1      40.756 -13.683   2.492  1.00  0.00    -0.019 A 
HETATM   14  C   UNL     1      41.396 -13.142   1.362  1.00  0.00     0.013 A 
HETATM   15  C   UNL     1      40.768 -12.166   0.584  1.00  0.00     0.037 A 
HETATM   16  C   UNL     1      39.496 -11.727   0.934  1.00  0.00     0.065 A 
HETATM   17  C   UNL     1      38.844 -12.246   2.046  1.00  0.00     0.037 A 
HETATM   18  C   UNL     1      39.469 -13.222   2.822  1.00  0.00     0.013 A 
BRANCH  16  19
HETATM   19  O   UNL     1      38.844 -10.780   0.202  1.00  0.00    -0.361 OA
HETATM   20  H   UNL     1      38.807 -11.068  -0.725  1.00  0.00     0.217 HD
ENDBRANCH  16  19
ENDBRANCH   7  13
BRANCH   1  21
HETATM   21  N   UNL     1      42.180 -12.948   4.835  1.00  0.00    -0.220 N 
HETATM   22  H   UNL     1      41.205 -12.663   4.974  1.00  0.00     0.200 HD
BRANCH  21  23
HETATM   23  S   UNL     1      43.111 -11.586   4.497  1.00  0.00     0.240 S 
HETATM   24  C   UNL     1      41.930 -10.360   3.954  1.00  0.00     0.187 C 
HETATM   25  O   UNL     1      44.064 -11.879   3.451  1.00  0.00    -0.205 OA
HETATM   26  O   UNL     1      43.580 -11.157   5.802  1.00  0.00    -0.205 OA
ENDBRANCH  21  23
ENDBRANCH   1  21
TORSDOF 4
ENDMDL
MODEL 4
REMARK VINA RESULT:      -7.2      2.406      3.879
REMARK  4 active torsions:
REMARK  status: ('A' for Active; 'I' for Inactive)
REMARK    1  A    between atoms: S_2  and  N_3 
REMARK    2  A    between atoms: N_3  and  N_4 
REMARK    3  A    between atoms: C_10  and  C_11 
REMARK    4  A    between atoms: C_14  and  O_15 
ROOT
HETATM    1  N   UNL     1      42.662 -15.580   3.301  1.00  0.00    -0.224 N 
HETATM    2  C   UNL     1      43.148 -16.792   2.813  1.00  0.00     0.276 C 
HETATM    3  O   UNL     1      43.273 -17.086   1.630  1.00  0.00    -0.266 OA
HETATM    4  C   UNL     1      43.481 -17.809   3.840  1.00  0.00     0.055 A 
HETATM    5  C   UNL     1      43.195 -17.531   5.183  1.00  0.00     0.026 A 
HETATM    6  N   UNL     1      42.606 -16.312   5.561  1.00  0.00    -0.265 NA
HETATM    7  C   UNL     1      42.966 -15.204   4.681  1.00  0.00     0.222 C 
HETATM    8  C   UNL     1      44.016 -19.046   3.458  1.00  0.00     0.019 A 
HETATM    9  C   UNL     1      44.232 -20.032   4.420  1.00  0.00     0.001 A 
HETATM   10  C   UNL     1      43.894 -19.787   5.750  1.00  0.00     0.002 A 
HETATM   11  C   UNL     1      43.365 -18.549   6.126  1.00  0.00     0.024 A 
HETATM   12  H   UNL     1      42.770 -16.090   6.539  1.00  0.00     0.130 HD
ENDROOT
BRANCH   7  13
HETATM   13  C   UNL     1      42.254 -13.951   5.170  1.00  0.00    -0.019 A 
HETATM   14  C   UNL     1      42.918 -12.710   5.155  1.00  0.00     0.013 A 
HETATM   15  C   UNL     1      42.263 -11.544   5.560  1.00  0.00     0.037 A 
HETATM   16  C   UNL     1      40.941 -11.614   5.982  1.00  0.00     0.065 A 
HETATM   17  C   UNL     1      40.264 -12.827   6.007  1.00  0.00     0.037 A 
HETATM   18  C   UNL     1      40.916 -13.992   5.601  1.00  0.00     0.013 A 
BRANCH  16  19
HETATM   19  O   UNL     1      40.262 -10.503   6.381  1.00  0.00    -0.361 OA
HETATM   20  H   UNL     1      40.454 -10.334   7.319  1.00  0.00     0.217 HD
ENDBRANCH  16  19
ENDBRANCH   7  13
BRANCH   1  21
HETATM   21  N   UNL     1      42.317 -14.466   2.380  1.00  0.00    -0.220 N 
HETATM   22  H   UNL     1      42.754 -13.555   2.561  1.00  0.00     0.200 HD
BRANCH  21  23
HETATM   23  S   UNL     1      40.802 -14.225   1.685  1.00  0.00     0.240 S 
HETATM   24  C   UNL     1      39.786 -15.526   2.368  1.00  0.00     0.187 C 
HETATM   25  O   UNL     1      40.888 -14.341   0.247  1.00  0.00    -0.205 OA
HETATM   26  O   UNL     1      40.342 -12.985   2.283  1.00  0.00    -0.205 OA
ENDBRANCH  21  23
ENDBRANCH   1  21
TORSDOF 4
ENDMDL
MODEL 5
REMARK VINA RESULT:      -7.2      1.898      5.780
REMARK  4 active torsions:
REMARK  status: ('A' for Active; 'I' for Inactive)
REMARK    1  A    between atoms: S_2  and  N_3 
REMARK    2  A    between atoms: N_3  and  N_4 
REMARK    3  A    between atoms: C_10  and  C_11 
REMARK    4  A    between atoms: C_14  and  O_15 
ROOT
HETATM    1  N   UNL     1      42.896 -15.411   4.041  1.00  0.00    -0.224 N 
HETATM    2  C   UNL     1      42.498 -14.078   3.947  1.00  0.00     0.276 C 
HETATM    3  O   UNL     1      42.531 -13.258   4.857  1.00  0.00    -0.266 OA
HETATM    4  C   UNL     1      41.938 -13.667   2.636  1.00  0.00     0.055 A 
HETATM    5  C   UNL     1      41.757 -14.641   1.645  1.00  0.00     0.026 A 
HETATM    6  N   UNL     1      42.098 -15.984   1.877  1.00  0.00    -0.265 NA
HETATM    7  C   UNL     1      43.208 -16.140   2.812  1.00  0.00     0.222 C 
HETATM    8  C   UNL     1      41.546 -12.339   2.423  1.00  0.00     0.019 A 
HETATM    9  C   UNL     1      40.930 -11.985   1.223  1.00  0.00     0.001 A 
HETATM   10  C   UNL     1      40.689 -12.958   0.255  1.00  0.00     0.002 A 
HETATM   11  C   UNL     1      41.087 -14.281   0.471  1.00  0.00     0.024 A 
HETATM   12  H   UNL     1      42.251 -16.499   1.015  1.00  0.00     0.130 HD
ENDROOT
BRANCH   7  13
HETATM   13  C   UNL     1      43.469 -17.628   3.005  1.00  0.00    -0.019 A 
HETATM   14  C   UNL     1      44.259 -18.072   4.082  1.00  0.00     0.013 A 
HETATM   15  C   UNL     1      44.471 -19.436   4.297  1.00  0.00     0.037 A 
HETATM   16  C   UNL     1      43.894 -20.362   3.435  1.00  0.00     0.065 A 
HETATM   17  C   UNL     1      43.110 -19.948   2.365  1.00  0.00     0.037 A 
HETATM   18  C   UNL     1      42.895 -18.586   2.151  1.00  0.00     0.013 A 
BRANCH  16  19
HETATM   19  O   UNL     1      44.070 -21.702   3.610  1.00  0.00    -0.361 OA
HETATM   20  H   UNL     1      43.914 -21.922   4.543  1.00  0.00     0.217 HD
ENDBRANCH  16  19
ENDBRANCH   7  13
BRANCH   1  21
HETATM   21  N   UNL     1      43.500 -15.944   5.290  1.00  0.00    -0.220 N 
HETATM   22  H   UNL     1      44.199 -16.688   5.193  1.00  0.00     0.200 HD
BRANCH  21  23
HETATM   23  S   UNL     1      42.678 -16.142   6.747  1.00  0.00     0.240 S 
HETATM   24  C   UNL     1      40.955 -16.218   6.282  1.00  0.00     0.187 C 
HETATM   25  O   UNL     1      42.927 -15.017   7.618  1.00  0.00    -0.205 OA
HETATM   26  O   UNL     1      43.050 -17.480   7.172  1.00  0.00    -0.205 OA
ENDBRANCH  21  23
ENDBRANCH   1  21
TORSDOF 4
ENDMDL
MODEL 6
REMARK VINA RESULT:      -7.2      9.351     12.085
REMARK  4 active torsions:
REMARK  status: ('A' for Active; 'I' for Inactive)
REMARK    1  A    between atoms: S_2  and  N_3 
REMARK    2  A    between atoms: N_3  and  N_4 
REMARK    3  A    between atoms: C_10  and  C_11 
REMARK    4  A    between atoms: C_14  and  O_15 
ROOT
HETATM    1  N   UNL     1      41.646  -9.214  11.770  1.00  0.00    -0.224 N 
HETATM    2  C   UNL     1      40.761  -9.093  12.840  1.00  0.00     0.276 C 
HETATM    3  O   UNL     1      39.599  -9.481  12.853  1.00  0.00    -0.266 OA
HETATM    4  C   UNL     1      41.288  -8.380  14.030  1.00  0.00     0.055 A 
HETATM    5  C   UNL     1      42.563  -7.803  13.960  1.00  0.00     0.026 A 
HETATM    6  N   UNL     1      43.337  -7.894  12.792  1.00  0.00    -0.265 NA
HETATM    7  C   UNL     1      43.081  -9.112  12.029  1.00  0.00     0.222 C 
HETATM    8  C   UNL     1      40.494  -8.240  15.176  1.00  0.00     0.019 A 
HETATM    9  C   UNL     1      40.960  -7.483  16.250  1.00  0.00     0.001 A 
HETATM   10  C   UNL     1      42.200  -6.855  16.167  1.00  0.00     0.002 A 
HETATM   11  C   UNL     1      42.991  -7.001  15.024  1.00  0.00     0.024 A 
HETATM   12  H   UNL     1      44.328  -7.759  12.973  1.00  0.00     0.130 HD
ENDROOT
BRANCH   7  13
HETATM   13  C   UNL     1      43.952  -9.088  10.779  1.00  0.00    -0.019 A 
HETATM   14  C   UNL     1      43.862  -8.012   9.877  1.00  0.00     0.013 A 
HETATM   15  C   UNL     1      44.685  -7.955   8.749  1.00  0.00     0.037 A 
HETATM   16  C   UNL     1      45.602  -8.974   8.520  1.00  0.00     0.065 A 
HETATM   17  C   UNL     1      45.710 -10.047   9.396  1.00  0.00     0.037 A 
HETATM   18  C   UNL     1      44.890 -10.105  10.524  1.00  0.00     0.013 A 
BRANCH  16  19
HETATM   19  O   UNL     1      46.428  -8.957   7.436  1.00  0.00    -0.361 OA
HETATM   20  H   UNL     1      46.474  -9.851   7.060  1.00  0.00     0.217 HD
ENDBRANCH  16  19
ENDBRANCH   7  13
BRANCH   1  21
HETATM   21  N   UNL     1      41.254  -9.931  10.529  1.00  0.00    -0.220 N 
HETATM   22  H   UNL     1      41.953 -10.546  10.100  1.00  0.00     0.200 HD
BRANCH  21  23
HETATM   23  S   UNL     1      40.263  -9.297   9.323  1.00  0.00     0.240 S 
HETATM   24  C   UNL     1      40.266  -7.535   9.623  1.00  0.00     0.187 C 
HETATM   25  O   UNL     1      38.927  -9.835   9.439  1.00  0.00    -0.205 OA
HETATM   26  O   UNL     1      41.024  -9.509   8.105  1.00  0.00    -0.205 OA
ENDBRANCH  21  23
ENDBRANCH   1  21
TORSDOF 4
ENDMDL
MODEL 7
REMARK VINA RESULT:      -7.1      2.254      3.150
REMARK  4 active torsions:
REMARK  status: ('A' for Active; 'I' for Inactive)
REMARK    1  A    between atoms: S_2  and  N_3 
REMARK    2  A    between atoms: N_3  and  N_4 
REMARK    3  A    between atoms: C_10  and  C_11 
REMARK    4  A    between atoms: C_14  and  O_15 
ROOT
HETATM    1  N   UNL     1      40.587 -14.780   3.159  1.00  0.00    -0.224 N 
HETATM    2  C   UNL     1      41.001 -15.413   4.329  1.00  0.00     0.276 C 
HETATM    3  O   UNL     1      40.614 -15.146   5.461  1.00  0.00    -0.266 OA
HETATM    4  C   UNL     1      42.040 -16.458   4.160  1.00  0.00     0.055 A 
HETATM    5  C   UNL     1      42.594 -16.658   2.888  1.00  0.00     0.026 A 
HETATM    6  N   UNL     1      42.177 -15.891   1.787  1.00  0.00    -0.265 NA
HETATM    7  C   UNL     1      40.785 -15.463   1.881  1.00  0.00     0.222 C 
HETATM    8  C   UNL     1      42.497 -17.184   5.267  1.00  0.00     0.019 A 
HETATM    9  C   UNL     1      43.543 -18.092   5.114  1.00  0.00     0.001 A 
HETATM   10  C   UNL     1      44.142 -18.255   3.867  1.00  0.00     0.002 A 
HETATM   11  C   UNL     1      43.680 -17.531   2.763  1.00  0.00     0.024 A 
HETATM   12  H   UNL     1      42.377 -16.347   0.900  1.00  0.00     0.130 HD
ENDROOT
BRANCH   7  13
HETATM   13  C   UNL     1      40.456 -14.624   0.653  1.00  0.00    -0.019 A 
HETATM   14  C   UNL     1      41.080 -13.377   0.464  1.00  0.00     0.013 A 
HETATM   15  C   UNL     1      40.822 -12.615  -0.679  1.00  0.00     0.037 A 
HETATM   16  C   UNL     1      39.937 -13.098  -1.636  1.00  0.00     0.065 A 
HETATM   17  C   UNL     1      39.309 -14.326  -1.472  1.00  0.00     0.037 A 
HETATM   18  C   UNL     1      39.568 -15.089  -0.332  1.00  0.00     0.013 A 
BRANCH  16  19
HETATM   19  O   UNL     1      39.659 -12.391  -2.768  1.00  0.00    -0.361 OA
HETATM   20  H   UNL     1      39.037 -11.678  -2.550  1.00  0.00     0.217 HD
ENDBRANCH  16  19
ENDBRANCH   7  13
BRANCH   1  21
HETATM   21  N   UNL     1      39.530 -13.735   3.185  1.00  0.00    -0.220 N 
HETATM   22  H   UNL     1      38.860 -13.724   2.408  1.00  0.00     0.200 HD
BRANCH  21  23
HETATM   23  S   UNL     1      39.745 -12.164   3.753  1.00  0.00     0.240 S 
HETATM   24  C   UNL     1      38.690 -11.165   2.711  1.00  0.00     0.187 C 
HETATM   25  O   UNL     1      41.127 -11.767   3.616  1.00  0.00    -0.205 OA
HETATM   26  O   UNL     1      39.126 -12.185   5.066  1.00  0.00    -0.205 OA
ENDBRANCH  21  23
ENDBRANCH   1  21
TORSDOF 4
ENDMDL
MODEL 8
REMARK VINA RESULT:      -7.1      2.604      6.049
REMARK  4 active torsions:
REMARK  status: ('A' for Active; 'I' for Inactive)
REMARK    1  A    between atoms: S_2  and  N_3 
REMARK    2  A    between atoms: N_3  and  N_4 
REMARK    3  A    between atoms: C_10  and  C_11 
REMARK    4  A    between atoms: C_14  and  O_15 
ROOT
HETATM    1  N   UNL     1      41.419 -13.069   1.215  1.00  0.00    -0.224 N 
HETATM    2  C   UNL     1      41.055 -12.298   0.113  1.00  0.00     0.276 C 
HETATM    3  O   UNL     1      41.256 -11.096  -0.015  1.00  0.00    -0.266 OA
HETATM    4  C   UNL     1      40.312 -13.013  -0.954  1.00  0.00     0.055 A 
HETATM    5  C   UNL     1      39.947 -14.350  -0.741  1.00  0.00     0.026 A 
HETATM    6  N   UNL     1      40.276 -15.009   0.455  1.00  0.00    -0.265 NA
HETATM    7  C   UNL     1      41.513 -14.520   1.057  1.00  0.00     0.222 C 
HETATM    8  C   UNL     1      39.934 -12.340  -2.123  1.00  0.00     0.019 A 
HETATM    9  C   UNL     1      39.151 -12.993  -3.073  1.00  0.00     0.001 A 
HETATM   10  C   UNL     1      38.732 -14.302  -2.844  1.00  0.00     0.002 A 
HETATM   11  C   UNL     1      39.115 -14.971  -1.678  1.00  0.00     0.024 A 
HETATM   12  H   UNL     1      40.276 -16.020   0.352  1.00  0.00     0.130 HD
ENDROOT
BRANCH   7  13
HETATM   13  C   UNL     1      41.751 -15.286   2.352  1.00  0.00    -0.019 A 
HETATM   14  C   UNL     1      43.047 -15.722   2.685  1.00  0.00     0.013 A 
HETATM   15  C   UNL     1      43.289 -16.387   3.890  1.00  0.00     0.037 A 
HETATM   16  C   UNL     1      42.236 -16.619   4.767  1.00  0.00     0.065 A 
HETATM   17  C   UNL     1      40.948 -16.198   4.460  1.00  0.00     0.037 A 
HETATM   18  C   UNL     1      40.705 -15.531   3.259  1.00  0.00     0.013 A 
BRANCH  16  19
HETATM   19  O   UNL     1      42.427 -17.259   5.954  1.00  0.00    -0.361 OA
HETATM   20  H   UNL     1      43.243 -16.928   6.364  1.00  0.00     0.217 HD
ENDBRANCH  16  19
ENDBRANCH   7  13
BRANCH   1  21
HETATM   21  N   UNL     1      42.192 -12.482   2.340  1.00  0.00    -0.220 N 
HETATM   22  H   UNL     1      43.062 -12.954   2.609  1.00  0.00     0.200 HD
BRANCH  21  23
HETATM   23  S   UNL     1      41.511 -11.757   3.699  1.00  0.00     0.240 S 
HETATM   24  C   UNL     1      42.211 -12.651   5.079  1.00  0.00     0.187 C 
HETATM   25  O   UNL     1      40.074 -11.895   3.673  1.00  0.00    -0.205 OA
HETATM   26  O   UNL     1      42.110 -10.434   3.719  1.00  0.00    -0.205 OA
ENDBRANCH  21  23
ENDBRANCH   1  21
TORSDOF 4
ENDMDL
MODEL 9
REMARK VINA RESULT:      -6.9      2.456      6.724
REMARK  4 active torsions:
REMARK  status: ('A' for Active; 'I' for Inactive)
REMARK    1  A    between atoms: S_2  and  N_3 
REMARK    2  A    between atoms: N_3  and  N_4 
REMARK    3  A    between atoms: C_10  and  C_11 
REMARK    4  A    between atoms: C_14  and  O_15 
ROOT
HETATM    1  N   UNL     1      41.785 -14.523   5.074  1.00  0.00    -0.224 N 
HETATM    2  C   UNL     1      41.423 -13.184   5.201  1.00  0.00     0.276 C 
HETATM    3  O   UNL     1      40.463 -12.649   4.660  1.00  0.00    -0.266 OA
HETATM    4  C   UNL     1      42.331 -12.350   6.026  1.00  0.00     0.055 A 
HETATM    5  C   UNL     1      43.511 -12.923   6.520  1.00  0.00     0.026 A 
HETATM    6  N   UNL     1      43.835 -14.262   6.247  1.00  0.00    -0.265 NA
HETATM    7  C   UNL     1      42.661 -15.115   6.085  1.00  0.00     0.222 C 
HETATM    8  C   UNL     1      42.037 -10.999   6.253  1.00  0.00     0.019 A 
HETATM    9  C   UNL     1      42.946 -10.200   6.944  1.00  0.00     0.001 A 
HETATM   10  C   UNL     1      44.149 -10.745   7.387  1.00  0.00     0.002 A 
HETATM   11  C   UNL     1      44.437 -12.095   7.163  1.00  0.00     0.024 A 
HETATM   12  H   UNL     1      44.494 -14.646   6.919  1.00  0.00     0.130 HD
ENDROOT
BRANCH   7  13
HETATM   13  C   UNL     1      43.133 -16.528   5.768  1.00  0.00    -0.019 A 
HETATM   14  C   UNL     1      43.871 -16.779   4.597  1.00  0.00     0.013 A 
HETATM   15  C   UNL     1      44.348 -18.062   4.314  1.00  0.00     0.037 A 
HETATM   16  C   UNL     1      44.089 -19.099   5.204  1.00  0.00     0.065 A 
HETATM   17  C   UNL     1      43.363 -18.875   6.367  1.00  0.00     0.037 A 
HETATM   18  C   UNL     1      42.888 -17.594   6.651  1.00  0.00     0.013 A 
BRANCH  16  19
HETATM   19  O   UNL     1      44.538 -20.364   4.971  1.00  0.00    -0.361 OA
HETATM   20  H   UNL     1      44.642 -20.491   4.014  1.00  0.00     0.217 HD
ENDBRANCH  16  19
ENDBRANCH   7  13
BRANCH   1  21
HETATM   21  N   UNL     1      40.946 -15.474   4.298  1.00  0.00    -0.220 N 
HETATM   22  H   UNL     1      40.816 -16.412   4.690  1.00  0.00     0.200 HD
BRANCH  21  23
HETATM   23  S   UNL     1      40.897 -15.563   2.617  1.00  0.00     0.240 S 
HETATM   24  C   UNL     1      42.258 -14.539   2.076  1.00  0.00     0.187 C 
HETATM   25  O   UNL     1      39.640 -15.049   2.125  1.00  0.00    -0.205 OA
HETATM   26  O   UNL     1      41.276 -16.935   2.334  1.00  0.00    -0.205 OA
ENDBRANCH  21  23
ENDBRANCH   1  21
TORSDOF 4
ENDMDL
MODEL 10
REMARK VINA RESULT:      -6.7      2.936      4.621
REMARK  4 active torsions:
REMARK  status: ('A' for Active; 'I' for Inactive)
REMARK    1  A    between atoms: S_2  and  N_3 
REMARK    2  A    between atoms: N_3  and  N_4 
REMARK    3  A    between atoms: C_10  and  C_11 
REMARK    4  A    between atoms: C_14  and  O_15 
ROOT
HETATM    1  N   UNL     1      40.652 -14.669   2.940  1.00  0.00    -0.224 N 
HETATM    2  C   UNL     1      41.244 -15.844   2.480  1.00  0.00     0.276 C 
HETATM    3  O   UNL     1      40.926 -16.455   1.466  1.00  0.00    -0.266 OA
HETATM    4  C   UNL     1      42.310 -16.407   3.346  1.00  0.00     0.055 A 
HETATM    5  C   UNL     1      42.569 -15.795   4.580  1.00  0.00     0.026 A 
HETATM    6  N   UNL     1      41.841 -14.668   4.998  1.00  0.00    -0.265 NA
HETATM    7  C   UNL     1      41.389 -13.834   3.888  1.00  0.00     0.222 C 
HETATM    8  C   UNL     1      42.998 -17.563   2.956  1.00  0.00     0.019 A 
HETATM    9  C   UNL     1      43.926 -18.139   3.822  1.00  0.00     0.001 A 
HETATM   10  C   UNL     1      44.147 -17.574   5.076  1.00  0.00     0.002 A 
HETATM   11  C   UNL     1      43.462 -16.417   5.459  1.00  0.00     0.024 A 
HETATM   12  H   UNL     1      42.334 -14.128   5.703  1.00  0.00     0.130 HD
ENDROOT
BRANCH   7  13
HETATM   13  C   UNL     1      40.595 -12.666   4.457  1.00  0.00    -0.019 A 
HETATM   14  C   UNL     1      39.727 -12.867   5.546  1.00  0.00     0.013 A 
HETATM   15  C   UNL     1      39.024 -11.797   6.106  1.00  0.00     0.037 A 
HETATM   16  C   UNL     1      39.187 -10.521   5.579  1.00  0.00     0.065 A 
HETATM   17  C   UNL     1      40.038 -10.298   4.504  1.00  0.00     0.037 A 
HETATM   18  C   UNL     1      40.742 -11.365   3.945  1.00  0.00     0.013 A 
BRANCH  16  19
HETATM   19  O   UNL     1      38.526  -9.448   6.097  1.00  0.00    -0.361 OA
HETATM   20  H   UNL     1      37.584  -9.669   6.183  1.00  0.00     0.217 HD
ENDBRANCH  16  19
ENDBRANCH   7  13
BRANCH   1  21
HETATM   21  N   UNL     1      39.592 -13.987   2.153  1.00  0.00    -0.220 N 
HETATM   22  H   UNL     1      38.654 -14.400   2.171  1.00  0.00     0.200 HD
BRANCH  21  23
HETATM   23  S   UNL     1      39.834 -13.226   0.670  1.00  0.00     0.240 S 
HETATM   24  C   UNL     1      38.789 -11.779   0.735  1.00  0.00     0.187 C 
HETATM   25  O   UNL     1      39.437 -14.099  -0.410  1.00  0.00    -0.205 OA
HETATM   26  O   UNL     1      41.203 -12.749   0.747  1.00  0.00    -0.205 OA
ENDBRANCH  21  23
ENDBRANCH   1  21
TORSDOF 4
ENDMDL
