MODEL 1
REMARK VINA RESULT:      -8.7      0.000      0.000
REMARK  6 active torsions:
REMARK  status: ('A' for Active; 'I' for Inactive)
REMARK    1  A    between atoms: C_2  and  C_3 
REMARK    2  A    between atoms: C_3  and  O_4 
REMARK    3  A    between atoms: O_4  and  C_5 
REMARK    4  A    between atoms: C_7  and  C_8 
REMARK       I    between atoms: C_8  and  N_9 
REMARK    5  A    between atoms: N_9  and  C_10 
REMARK    6  A    between atoms: C_17  and  C_18 
REMARK       I    between atoms: C_18  and  N_19 
ROOT
HETATM    1  C   UNL     1      40.679 -14.807   1.173  1.00  0.00     0.036 A 
HETATM    2  C   UNL     1      40.060 -15.080  -0.054  1.00  0.00     0.046 A 
HETATM    3  C   UNL     1      39.432 -14.036  -0.768  1.00  0.00     0.030 A 
HETATM    4  C   UNL     1      39.430 -12.758  -0.223  1.00  0.00     0.063 A 
HETATM    5  N   UNL     1      38.754 -11.981  -1.122  1.00  0.00    -0.277 N 
HETATM    6  H   UNL     1      38.555 -10.990  -1.049  1.00  0.00     0.189 HD
HETATM    7  N   UNL     1      38.327 -12.636  -2.214  1.00  0.00    -0.168 NA
HETATM    8  C   UNL     1      38.740 -13.908  -2.011  1.00  0.00     0.156 A 
HETATM    9  C   UNL     1      40.028 -12.450   0.999  1.00  0.00     0.034 A 
HETATM   10  C   UNL     1      40.657 -13.500   1.681  1.00  0.00     0.032 A 
ENDROOT
BRANCH   1  11
HETATM   11  N   UNL     1      41.347 -15.780   1.952  1.00  0.00    -0.323 N 
HETATM   12  C   UNL     1      42.684 -16.128   1.892  1.00  0.00     0.256 C 
HETATM   13  O   UNL     1      43.532 -15.642   1.152  1.00  0.00    -0.267 OA
HETATM   14  H   UNL     1      40.783 -16.229   2.660  1.00  0.00     0.169 HD
BRANCH  12  15
HETATM   15  C   UNL     1      43.125 -17.181   2.856  1.00  0.00     0.035 A 
HETATM   16  C   UNL     1      42.975 -16.912   4.225  1.00  0.00     0.053 A 
HETATM   17  C   UNL     1      43.372 -17.849   5.179  1.00  0.00     0.069 A 
HETATM   18  C   UNL     1      43.916 -19.064   4.755  1.00  0.00     0.037 A 
HETATM   19  C   UNL     1      44.087 -19.333   3.396  1.00  0.00     0.004 A 
HETATM   20  C   UNL     1      43.701 -18.389   2.443  1.00  0.00     0.017 A 
BRANCH  17  21
HETATM   21  O   UNL     1      43.281 -17.702   6.535  1.00  0.00    -0.351 OA
BRANCH  21  22
HETATM   22  C   UNL     1      44.047 -16.646   7.122  1.00  0.00     0.179 C 
BRANCH  22  23
HETATM   23  C   UNL     1      43.097 -15.513   7.542  1.00  0.00     0.002 C 
HETATM   24  C   UNL     1      41.645 -15.846   7.194  1.00  0.00     0.011 C 
HETATM   25  C   UNL     1      43.514 -14.199   6.883  1.00  0.00     0.011 C 
ENDBRANCH  22  23
ENDBRANCH  21  22
ENDBRANCH  17  21
ENDBRANCH  12  15
ENDBRANCH   1  11
BRANCH   8  26
HETATM   26  C   UNL     1      38.476 -14.961  -3.003  1.00  0.00     0.270 C 
HETATM   27  N   UNL     1      38.340 -16.212  -2.465  1.00  0.00    -0.365 N 
HETATM   28  H   UNL     1      38.418 -16.320  -1.461  1.00  0.00     0.159 HD
HETATM   29  H   UNL     1      38.142 -16.994  -3.069  1.00  0.00     0.159 HD
HETATM   30  O   UNL     1      38.372 -14.777  -4.211  1.00  0.00    -0.266 OA
ENDBRANCH   8  26
TORSDOF 6
ENDMDL
MODEL 2
REMARK VINA RESULT:      -8.6      3.237      8.444
REMARK  6 active torsions:
REMARK  status: ('A' for Active; 'I' for Inactive)
REMARK    1  A    between atoms: C_2  and  C_3 
REMARK    2  A    between atoms: C_3  and  O_4 
REMARK    3  A    between atoms: O_4  and  C_5 
REMARK    4  A    between atoms: C_7  and  C_8 
REMARK       I    between atoms: C_8  and  N_9 
REMARK    5  A    between atoms: N_9  and  C_10 
REMARK    6  A    between atoms: C_17  and  C_18 
REMARK       I    between atoms: C_18  and  N_19 
ROOT
HETATM    1  C   UNL     1      42.463 -15.783   1.961  1.00  0.00     0.036 A 
HETATM    2  C   UNL     1      42.802 -17.141   2.022  1.00  0.00     0.046 A 
HETATM    3  C   UNL     1      43.389 -17.665   3.196  1.00  0.00     0.030 A 
HETATM    4  C   UNL     1      43.631 -16.809   4.262  1.00  0.00     0.063 A 
HETATM    5  N   UNL     1      44.201 -17.588   5.230  1.00  0.00    -0.277 N 
HETATM    6  H   UNL     1      44.514 -17.294   6.149  1.00  0.00     0.189 HD
HETATM    7  N   UNL     1      44.337 -18.881   4.895  1.00  0.00    -0.168 NA
HETATM    8  C   UNL     1      43.839 -18.945   3.640  1.00  0.00     0.156 A 
HETATM    9  C   UNL     1      43.315 -15.450   4.236  1.00  0.00     0.034 A 
HETATM   10  C   UNL     1      42.721 -14.959   3.066  1.00  0.00     0.032 A 
ENDROOT
BRANCH   1  11
HETATM   11  N   UNL     1      41.858 -15.171   0.840  1.00  0.00    -0.323 N 
HETATM   12  C   UNL     1      40.521 -14.855   0.678  1.00  0.00     0.256 C 
HETATM   13  O   UNL     1      39.623 -15.043   1.490  1.00  0.00    -0.267 OA
HETATM   14  H   UNL     1      42.491 -14.897   0.102  1.00  0.00     0.169 HD
BRANCH  12  15
HETATM   15  C   UNL     1      40.163 -14.188  -0.611  1.00  0.00     0.035 A 
HETATM   16  C   UNL     1      40.727 -12.929  -0.869  1.00  0.00     0.053 A 
HETATM   17  C   UNL     1      40.430 -12.248  -2.050  1.00  0.00     0.069 A 
HETATM   18  C   UNL     1      39.569 -12.839  -2.978  1.00  0.00     0.037 A 
HETATM   19  C   UNL     1      38.989 -14.082  -2.722  1.00  0.00     0.004 A 
HETATM   20  C   UNL     1      39.277 -14.756  -1.535  1.00  0.00     0.017 A 
BRANCH  17  21
HETATM   21  O   UNL     1      40.910 -11.020  -2.411  1.00  0.00    -0.351 OA
BRANCH  21  22
HETATM   22  C   UNL     1      41.564 -10.258  -1.392  1.00  0.00     0.179 C 
BRANCH  22  23
HETATM   23  C   UNL     1      41.599  -8.782  -1.817  1.00  0.00     0.002 C 
HETATM   24  C   UNL     1      41.304  -8.625  -3.311  1.00  0.00     0.011 C 
HETATM   25  C   UNL     1      42.955  -8.163  -1.476  1.00  0.00     0.011 C 
ENDBRANCH  22  23
ENDBRANCH  21  22
ENDBRANCH  17  21
ENDBRANCH  12  15
ENDBRANCH   1  11
BRANCH   8  26
HETATM   26  C   UNL     1      43.794 -20.217   2.904  1.00  0.00     0.270 C 
HETATM   27  N   UNL     1      43.996 -21.321   3.686  1.00  0.00    -0.365 N 
HETATM   28  H   UNL     1      44.147 -21.191   4.680  1.00  0.00     0.159 HD
HETATM   29  H   UNL     1      43.967 -22.239   3.271  1.00  0.00     0.159 HD
HETATM   30  O   UNL     1      43.589 -20.324   1.700  1.00  0.00    -0.266 OA
ENDBRANCH   8  26
TORSDOF 6
ENDMDL
MODEL 3
REMARK VINA RESULT:      -8.5      4.656      7.733
REMARK  6 active torsions:
REMARK  status: ('A' for Active; 'I' for Inactive)
REMARK    1  A    between atoms: C_2  and  C_3 
REMARK    2  A    between atoms: C_3  and  O_4 
REMARK    3  A    between atoms: O_4  and  C_5 
REMARK    4  A    between atoms: C_7  and  C_8 
REMARK       I    between atoms: C_8  and  N_9 
REMARK    5  A    between atoms: N_9  and  C_10 
REMARK    6  A    between atoms: C_17  and  C_18 
REMARK       I    between atoms: C_18  and  N_19 
ROOT
HETATM    1  C   UNL     1      43.236 -15.856   4.011  1.00  0.00     0.036 A 
HETATM    2  C   UNL     1      43.439 -17.098   4.626  1.00  0.00     0.046 A 
HETATM    3  C   UNL     1      43.514 -18.267   3.836  1.00  0.00     0.030 A 
HETATM    4  C   UNL     1      43.368 -18.154   2.459  1.00  0.00     0.063 A 
HETATM    5  N   UNL     1      43.478 -19.429   1.978  1.00  0.00    -0.277 N 
HETATM    6  H   UNL     1      43.417 -19.727   1.011  1.00  0.00     0.189 HD
HETATM    7  N   UNL     1      43.698 -20.362   2.917  1.00  0.00    -0.168 NA
HETATM    8  C   UNL     1      43.724 -19.659   4.073  1.00  0.00     0.156 A 
HETATM    9  C   UNL     1      43.157 -16.936   1.812  1.00  0.00     0.034 A 
HETATM   10  C   UNL     1      43.101 -15.791   2.617  1.00  0.00     0.032 A 
ENDROOT
BRANCH   1  11
HETATM   11  N   UNL     1      43.164 -14.631   4.714  1.00  0.00    -0.323 N 
HETATM   12  C   UNL     1      42.023 -13.927   5.056  1.00  0.00     0.256 C 
HETATM   13  O   UNL     1      40.866 -14.251   4.816  1.00  0.00    -0.267 OA
HETATM   14  H   UNL     1      44.048 -14.265   5.037  1.00  0.00     0.169 HD
BRANCH  12  15
HETATM   15  C   UNL     1      42.245 -12.665   5.824  1.00  0.00     0.035 A 
HETATM   16  C   UNL     1      43.337 -12.624   6.706  1.00  0.00     0.053 A 
HETATM   17  C   UNL     1      43.597 -11.478   7.458  1.00  0.00     0.069 A 
HETATM   18  C   UNL     1      42.763 -10.367   7.318  1.00  0.00     0.037 A 
HETATM   19  C   UNL     1      41.664 -10.404   6.457  1.00  0.00     0.004 A 
HETATM   20  C   UNL     1      41.397 -11.555   5.714  1.00  0.00     0.017 A 
BRANCH  17  21
HETATM   21  O   UNL     1      44.621 -11.320   8.351  1.00  0.00    -0.351 OA
BRANCH  21  22
HETATM   22  C   UNL     1      45.663 -10.412   7.983  1.00  0.00     0.179 C 
BRANCH  22  23
HETATM   23  C   UNL     1      45.768  -9.312   9.051  1.00  0.00     0.002 C 
HETATM   24  C   UNL     1      45.341  -9.829  10.427  1.00  0.00     0.011 C 
HETATM   25  C   UNL     1      44.924  -8.102   8.652  1.00  0.00     0.011 C 
ENDBRANCH  22  23
ENDBRANCH  21  22
ENDBRANCH  17  21
ENDBRANCH  12  15
ENDBRANCH   1  11
BRANCH   8  26
HETATM   26  C   UNL     1      43.958 -20.324   5.363  1.00  0.00     0.270 C 
HETATM   27  N   UNL     1      44.867 -21.345   5.307  1.00  0.00    -0.365 N 
HETATM   28  H   UNL     1      45.305 -21.557   4.418  1.00  0.00     0.159 HD
HETATM   29  H   UNL     1      45.102 -21.850   6.146  1.00  0.00     0.159 HD
HETATM   30  O   UNL     1      43.414 -20.019   6.418  1.00  0.00    -0.266 OA
ENDBRANCH   8  26
TORSDOF 6
ENDMDL
MODEL 4
REMARK VINA RESULT:      -8.4      5.080      9.194
REMARK  6 active torsions:
REMARK  status: ('A' for Active; 'I' for Inactive)
REMARK    1  A    between atoms: C_2  and  C_3 
REMARK    2  A    between atoms: C_3  and  O_4 
REMARK    3  A    between atoms: O_4  and  C_5 
REMARK    4  A    between atoms: C_7  and  C_8 
REMARK       I    between atoms: C_8  and  N_9 
REMARK    5  A    between atoms: N_9  and  C_10 
REMARK    6  A    between atoms: C_17  and  C_18 
REMARK       I    between atoms: C_18  and  N_19 
ROOT
HETATM    1  C   UNL     1      44.157 -12.063   6.738  1.00  0.00     0.036 A 
HETATM    2  C   UNL     1      43.631 -11.665   7.974  1.00  0.00     0.046 A 
HETATM    3  C   UNL     1      44.361 -10.773   8.791  1.00  0.00     0.030 A 
HETATM    4  C   UNL     1      45.598 -10.321   8.350  1.00  0.00     0.063 A 
HETATM    5  N   UNL     1      46.056  -9.495   9.339  1.00  0.00    -0.277 N 
HETATM    6  H   UNL     1      46.934  -8.990   9.359  1.00  0.00     0.189 HD
HETATM    7  N   UNL     1      45.219  -9.355  10.379  1.00  0.00    -0.168 NA
HETATM    8  C   UNL     1      44.165 -10.139  10.056  1.00  0.00     0.156 A 
HETATM    9  C   UNL     1      46.158 -10.701   7.130  1.00  0.00     0.034 A 
HETATM   10  C   UNL     1      45.408 -11.575   6.332  1.00  0.00     0.032 A 
ENDROOT
BRANCH   1  11
HETATM   11  N   UNL     1      43.496 -12.937   5.845  1.00  0.00    -0.323 N 
HETATM   12  C   UNL     1      43.198 -14.273   6.046  1.00  0.00     0.256 C 
HETATM   13  O   UNL     1      43.449 -14.934   7.047  1.00  0.00    -0.267 OA
HETATM   14  H   UNL     1      43.169 -12.513   4.989  1.00  0.00     0.169 HD
BRANCH  12  15
HETATM   15  C   UNL     1      42.467 -14.950   4.933  1.00  0.00     0.035 A 
HETATM   16  C   UNL     1      43.047 -16.104   4.383  1.00  0.00     0.053 A 
HETATM   17  C   UNL     1      42.421 -16.782   3.337  1.00  0.00     0.069 A 
HETATM   18  C   UNL     1      41.204 -16.303   2.846  1.00  0.00     0.037 A 
HETATM   19  C   UNL     1      40.628 -15.146   3.374  1.00  0.00     0.004 A 
HETATM   20  C   UNL     1      41.262 -14.461   4.412  1.00  0.00     0.017 A 
BRANCH  17  21
HETATM   21  O   UNL     1      42.887 -17.908   2.717  1.00  0.00    -0.351 OA
BRANCH  21  22
HETATM   22  C   UNL     1      44.033 -18.537   3.299  1.00  0.00     0.179 C 
BRANCH  22  23
HETATM   23  C   UNL     1      44.055 -20.016   2.884  1.00  0.00     0.002 C 
HETATM   24  C   UNL     1      42.979 -20.319   1.839  1.00  0.00     0.011 C 
HETATM   25  C   UNL     1      43.874 -20.914   4.108  1.00  0.00     0.011 C 
ENDBRANCH  22  23
ENDBRANCH  21  22
ENDBRANCH  17  21
ENDBRANCH  12  15
ENDBRANCH   1  11
BRANCH   8  26
HETATM   26  C   UNL     1      43.002 -10.255  10.947  1.00  0.00     0.270 C 
HETATM   27  N   UNL     1      43.201 -11.081  12.019  1.00  0.00    -0.365 N 
HETATM   28  H   UNL     1      44.103 -11.530  12.125  1.00  0.00     0.159 HD
HETATM   29  H   UNL     1      42.463 -11.210  12.693  1.00  0.00     0.159 HD
HETATM   30  O   UNL     1      41.933  -9.675  10.785  1.00  0.00    -0.266 OA
ENDBRANCH   8  26
TORSDOF 6
ENDMDL
MODEL 5
REMARK VINA RESULT:      -8.3      3.190      8.751
REMARK  6 active torsions:
REMARK  status: ('A' for Active; 'I' for Inactive)
REMARK    1  A    between atoms: C_2  and  C_3 
REMARK    2  A    between atoms: C_3  and  O_4 
REMARK    3  A    between atoms: O_4  and  C_5 
REMARK    4  A    between atoms: C_7  and  C_8 
REMARK       I    between atoms: C_8  and  N_9 
REMARK    5  A    between atoms: N_9  and  C_10 
REMARK    6  A    between atoms: C_17  and  C_18 
REMARK       I    between atoms: C_18  and  N_19 
ROOT
HETATM    1  C   UNL     1      42.439 -16.309   2.475  1.00  0.00     0.036 A 
HETATM    2  C   UNL     1      42.210 -16.106   3.842  1.00  0.00     0.046 A 
HETATM    3  C   UNL     1      42.777 -16.991   4.786  1.00  0.00     0.030 A 
HETATM    4  C   UNL     1      43.541 -18.058   4.329  1.00  0.00     0.063 A 
HETATM    5  N   UNL     1      43.938 -18.727   5.453  1.00  0.00    -0.277 N 
HETATM    6  H   UNL     1      44.509 -19.563   5.500  1.00  0.00     0.189 HD
HETATM    7  N   UNL     1      43.515 -18.182   6.605  1.00  0.00    -0.168 NA
HETATM    8  C   UNL     1      42.796 -17.106   6.210  1.00  0.00     0.156 A 
HETATM    9  C   UNL     1      43.784 -18.297   2.977  1.00  0.00     0.034 A 
HETATM   10  C   UNL     1      43.222 -17.396   2.062  1.00  0.00     0.032 A 
ENDROOT
BRANCH   1  11
HETATM   11  N   UNL     1      41.929 -15.470   1.458  1.00  0.00    -0.323 N 
HETATM   12  C   UNL     1      40.605 -15.295   1.101  1.00  0.00     0.256 C 
HETATM   13  O   UNL     1      39.633 -15.836   1.616  1.00  0.00    -0.267 OA
HETATM   14  H   UNL     1      42.617 -14.906   0.979  1.00  0.00     0.169 HD
BRANCH  12  15
HETATM   15  C   UNL     1      40.353 -14.321  -0.004  1.00  0.00     0.035 A 
HETATM   16  C   UNL     1      40.947 -13.054   0.099  1.00  0.00     0.053 A 
HETATM   17  C   UNL     1      40.748 -12.095  -0.894  1.00  0.00     0.069 A 
HETATM   18  C   UNL     1      39.955 -12.414  -1.999  1.00  0.00     0.037 A 
HETATM   19  C   UNL     1      39.345 -13.665  -2.103  1.00  0.00     0.004 A 
HETATM   20  C   UNL     1      39.535 -14.619  -1.102  1.00  0.00     0.017 A 
BRANCH  17  21
HETATM   21  O   UNL     1      41.266 -10.830  -0.904  1.00  0.00    -0.351 OA
BRANCH  21  22
HETATM   22  C   UNL     1      40.365  -9.765  -1.221  1.00  0.00     0.179 C 
BRANCH  22  23
HETATM   23  C   UNL     1      41.135  -8.665  -1.968  1.00  0.00     0.002 C 
HETATM   24  C   UNL     1      41.131  -8.908  -3.478  1.00  0.00     0.011 C 
HETATM   25  C   UNL     1      42.569  -8.574  -1.448  1.00  0.00     0.011 C 
ENDBRANCH  22  23
ENDBRANCH  21  22
ENDBRANCH  17  21
ENDBRANCH  12  15
ENDBRANCH   1  11
BRANCH   8  26
HETATM   26  C   UNL     1      42.158 -16.216   7.190  1.00  0.00     0.270 C 
HETATM   27  N   UNL     1      43.000 -15.777   8.175  1.00  0.00    -0.365 N 
HETATM   28  H   UNL     1      43.968 -16.078   8.156  1.00  0.00     0.159 HD
HETATM   29  H   UNL     1      42.654 -15.150   8.884  1.00  0.00     0.159 HD
HETATM   30  O   UNL     1      40.983 -15.866   7.161  1.00  0.00    -0.266 OA
ENDBRANCH   8  26
TORSDOF 6
ENDMDL
MODEL 6
REMARK VINA RESULT:      -8.2      5.010      7.854
REMARK  6 active torsions:
REMARK  status: ('A' for Active; 'I' for Inactive)
REMARK    1  A    between atoms: C_2  and  C_3 
REMARK    2  A    between atoms: C_3  and  O_4 
REMARK    3  A    between atoms: O_4  and  C_5 
REMARK    4  A    between atoms: C_7  and  C_8 
REMARK       I    between atoms: C_8  and  N_9 
REMARK    5  A    between atoms: N_9  and  C_10 
REMARK    6  A    between atoms: C_17  and  C_18 
REMARK       I    between atoms: C_18  and  N_19 
ROOT
HETATM    1  C   UNL     1      43.268 -13.910   6.222  1.00  0.00     0.036 A 
HETATM    2  C   UNL     1      42.382 -13.719   5.154  1.00  0.00     0.046 A 
HETATM    3  C   UNL     1      42.089 -14.796   4.287  1.00  0.00     0.030 A 
HETATM    4  C   UNL     1      42.703 -16.022   4.510  1.00  0.00     0.063 A 
HETATM    5  N   UNL     1      42.237 -16.846   3.525  1.00  0.00    -0.277 N 
HETATM    6  H   UNL     1      42.477 -17.819   3.374  1.00  0.00     0.189 HD
HETATM    7  N   UNL     1      41.360 -16.271   2.687  1.00  0.00    -0.168 NA
HETATM    8  C   UNL     1      41.256 -15.003   3.145  1.00  0.00     0.156 A 
HETATM    9  C   UNL     1      43.596 -16.247   5.559  1.00  0.00     0.034 A 
HETATM   10  C   UNL     1      43.859 -15.167   6.412  1.00  0.00     0.032 A 
ENDROOT
BRANCH   1  11
HETATM   11  N   UNL     1      43.610 -12.900   7.151  1.00  0.00    -0.323 N 
HETATM   12  C   UNL     1      44.534 -11.885   6.982  1.00  0.00     0.256 C 
HETATM   13  O   UNL     1      45.215 -11.676   5.985  1.00  0.00    -0.267 OA
HETATM   14  H   UNL     1      43.079 -12.905   8.010  1.00  0.00     0.169 HD
BRANCH  12  15
HETATM   15  C   UNL     1      44.676 -10.939   8.130  1.00  0.00     0.035 A 
HETATM   16  C   UNL     1      43.942 -11.214   9.294  1.00  0.00     0.053 A 
HETATM   17  C   UNL     1      44.024 -10.369  10.401  1.00  0.00     0.069 A 
HETATM   18  C   UNL     1      44.853  -9.247  10.340  1.00  0.00     0.037 A 
HETATM   19  C   UNL     1      45.574  -8.954   9.181  1.00  0.00     0.004 A 
HETATM   20  C   UNL     1      45.481  -9.794   8.070  1.00  0.00     0.017 A 
BRANCH  17  21
HETATM   21  O   UNL     1      43.356 -10.528  11.583  1.00  0.00    -0.351 OA
BRANCH  21  22
HETATM   22  C   UNL     1      42.330  -9.576  11.878  1.00  0.00     0.179 C 
BRANCH  22  23
HETATM   23  C   UNL     1      42.499  -9.092  13.327  1.00  0.00     0.002 C 
HETATM   24  C   UNL     1      41.155  -9.046  14.059  1.00  0.00     0.011 C 
HETATM   25  C   UNL     1      43.166  -7.717  13.353  1.00  0.00     0.011 C 
ENDBRANCH  22  23
ENDBRANCH  21  22
ENDBRANCH  17  21
ENDBRANCH  12  15
ENDBRANCH   1  11
BRANCH   8  26
HETATM   26  C   UNL     1      40.366 -14.030   2.496  1.00  0.00     0.270 C 
HETATM   27  N   UNL     1      39.035 -14.254   2.722  1.00  0.00    -0.365 N 
HETATM   28  H   UNL     1      38.767 -15.038   3.305  1.00  0.00     0.159 HD
HETATM   29  H   UNL     1      38.351 -13.628   2.329  1.00  0.00     0.159 HD
HETATM   30  O   UNL     1      40.740 -13.084   1.812  1.00  0.00    -0.266 OA
ENDBRANCH   8  26
TORSDOF 6
ENDMDL
MODEL 7
REMARK VINA RESULT:      -7.7      2.432      3.423
REMARK  6 active torsions:
REMARK  status: ('A' for Active; 'I' for Inactive)
REMARK    1  A    between atoms: C_2  and  C_3 
REMARK    2  A    between atoms: C_3  and  O_4 
REMARK    3  A    between atoms: O_4  and  C_5 
REMARK    4  A    between atoms: C_7  and  C_8 
REMARK       I    between atoms: C_8  and  N_9 
REMARK    5  A    between atoms: N_9  and  C_10 
REMARK    6  A    between atoms: C_17  and  C_18 
REMARK       I    between atoms: C_18  and  N_19 
ROOT
HETATM    1  C   UNL     1      40.298 -13.840  -0.785  1.00  0.00     0.036 A 
HETATM    2  C   UNL     1      40.671 -12.518  -1.061  1.00  0.00     0.046 A 
HETATM    3  C   UNL     1      39.924 -11.759  -1.990  1.00  0.00     0.030 A 
HETATM    4  C   UNL     1      38.840 -12.355  -2.622  1.00  0.00     0.063 A 
HETATM    5  N   UNL     1      38.333 -11.394  -3.453  1.00  0.00    -0.277 N 
HETATM    6  H   UNL     1      37.537 -11.479  -4.075  1.00  0.00     0.189 HD
HETATM    7  N   UNL     1      38.981 -10.220  -3.407  1.00  0.00    -0.168 NA
HETATM    8  C   UNL     1      39.968 -10.429  -2.506  1.00  0.00     0.156 A 
HETATM    9  C   UNL     1      38.443 -13.670  -2.379  1.00  0.00     0.034 A 
HETATM   10  C   UNL     1      39.192 -14.396  -1.442  1.00  0.00     0.032 A 
ENDROOT
BRANCH   1  11
HETATM   11  N   UNL     1      40.971 -14.671   0.140  1.00  0.00    -0.323 N 
HETATM   12  C   UNL     1      41.213 -14.413   1.477  1.00  0.00     0.256 C 
HETATM   13  O   UNL     1      40.874 -13.414   2.101  1.00  0.00    -0.267 OA
HETATM   14  H   UNL     1      41.260 -15.570  -0.218  1.00  0.00     0.169 HD
BRANCH  12  15
HETATM   15  C   UNL     1      41.932 -15.488   2.226  1.00  0.00     0.035 A 
HETATM   16  C   UNL     1      41.612 -15.661   3.582  1.00  0.00     0.053 A 
HETATM   17  C   UNL     1      42.251 -16.641   4.341  1.00  0.00     0.069 A 
HETATM   18  C   UNL     1      43.208 -17.457   3.734  1.00  0.00     0.037 A 
HETATM   19  C   UNL     1      43.547 -17.281   2.391  1.00  0.00     0.004 A 
HETATM   20  C   UNL     1      42.916 -16.291   1.636  1.00  0.00     0.017 A 
BRANCH  17  21
HETATM   21  O   UNL     1      42.030 -16.901   5.666  1.00  0.00    -0.351 OA
BRANCH  21  22
HETATM   22  C   UNL     1      43.012 -17.693   6.340  1.00  0.00     0.179 C 
BRANCH  22  23
HETATM   23  C   UNL     1      43.776 -16.803   7.332  1.00  0.00     0.002 C 
HETATM   24  C   UNL     1      42.892 -15.672   7.863  1.00  0.00     0.011 C 
HETATM   25  C   UNL     1      45.031 -16.230   6.673  1.00  0.00     0.011 C 
ENDBRANCH  22  23
ENDBRANCH  21  22
ENDBRANCH  17  21
ENDBRANCH  12  15
ENDBRANCH   1  11
BRANCH   8  26
HETATM   26  C   UNL     1      40.914  -9.360  -2.153  1.00  0.00     0.270 C 
HETATM   27  N   UNL     1      41.173  -8.486  -3.174  1.00  0.00    -0.365 N 
HETATM   28  H   UNL     1      40.707  -8.625  -4.063  1.00  0.00     0.159 HD
HETATM   29  H   UNL     1      41.800  -7.712  -3.020  1.00  0.00     0.159 HD
HETATM   30  O   UNL     1      41.441  -9.224  -1.055  1.00  0.00    -0.266 OA
ENDBRANCH   8  26
TORSDOF 6
ENDMDL
MODEL 8
REMARK VINA RESULT:      -7.7      4.967      8.490
REMARK  6 active torsions:
REMARK  status: ('A' for Active; 'I' for Inactive)
REMARK    1  A    between atoms: C_2  and  C_3 
REMARK    2  A    between atoms: C_3  and  O_4 
REMARK    3  A    between atoms: O_4  and  C_5 
REMARK    4  A    between atoms: C_7  and  C_8 
REMARK       I    between atoms: C_8  and  N_9 
REMARK    5  A    between atoms: N_9  and  C_10 
REMARK    6  A    between atoms: C_17  and  C_18 
REMARK       I    between atoms: C_18  and  N_19 
ROOT
HETATM    1  C   UNL     1      43.232 -13.416   5.898  1.00  0.00     0.036 A 
HETATM    2  C   UNL     1      43.371 -14.803   6.036  1.00  0.00     0.046 A 
HETATM    3  C   UNL     1      43.185 -15.640   4.913  1.00  0.00     0.030 A 
HETATM    4  C   UNL     1      42.851 -15.062   3.695  1.00  0.00     0.063 A 
HETATM    5  N   UNL     1      42.732 -16.105   2.819  1.00  0.00    -0.277 N 
HETATM    6  H   UNL     1      42.492 -16.056   1.836  1.00  0.00     0.189 HD
HETATM    7  N   UNL     1      42.973 -17.312   3.355  1.00  0.00    -0.168 NA
HETATM    8  C   UNL     1      43.256 -17.042   4.650  1.00  0.00     0.156 A 
HETATM    9  C   UNL     1      42.697 -13.686   3.521  1.00  0.00     0.034 A 
HETATM   10  C   UNL     1      42.901 -12.877   4.646  1.00  0.00     0.032 A 
ENDROOT
BRANCH   1  11
HETATM   11  N   UNL     1      43.415 -12.496   6.957  1.00  0.00    -0.323 N 
HETATM   12  C   UNL     1      44.500 -11.665   7.167  1.00  0.00     0.256 C 
HETATM   13  O   UNL     1      45.497 -11.574   6.459  1.00  0.00    -0.267 OA
HETATM   14  H   UNL     1      42.638 -12.414   7.597  1.00  0.00     0.169 HD
BRANCH  12  15
HETATM   15  C   UNL     1      44.414 -10.775   8.363  1.00  0.00     0.035 A 
HETATM   16  C   UNL     1      43.152 -10.263   8.703  1.00  0.00     0.053 A 
HETATM   17  C   UNL     1      43.003  -9.420   9.805  1.00  0.00     0.069 A 
HETATM   18  C   UNL     1      44.124  -9.097  10.572  1.00  0.00     0.037 A 
HETATM   19  C   UNL     1      45.386  -9.586  10.232  1.00  0.00     0.004 A 
HETATM   20  C   UNL     1      45.537 -10.419   9.122  1.00  0.00     0.017 A 
BRANCH  17  21
HETATM   21  O   UNL     1      41.832  -8.857  10.231  1.00  0.00    -0.351 OA
BRANCH  21  22
HETATM   22  C   UNL     1      41.165  -9.500  11.321  1.00  0.00     0.179 C 
BRANCH  22  23
HETATM   23  C   UNL     1      39.647  -9.371  11.125  1.00  0.00     0.002 C 
HETATM   24  C   UNL     1      39.243  -9.677   9.681  1.00  0.00     0.011 C 
HETATM   25  C   UNL     1      39.177  -7.971  11.522  1.00  0.00     0.011 C 
ENDBRANCH  22  23
ENDBRANCH  21  22
ENDBRANCH  17  21
ENDBRANCH  12  15
ENDBRANCH   1  11
BRANCH   8  26
HETATM   26  C   UNL     1      43.595 -18.116   5.594  1.00  0.00     0.270 C 
HETATM   27  N   UNL     1      44.281 -19.158   5.031  1.00  0.00    -0.365 N 
HETATM   28  H   UNL     1      44.506 -19.114   4.044  1.00  0.00     0.159 HD
HETATM   29  H   UNL     1      44.569 -19.933   5.606  1.00  0.00     0.159 HD
HETATM   30  O   UNL     1      43.315 -18.116   6.788  1.00  0.00    -0.266 OA
ENDBRANCH   8  26
TORSDOF 6
ENDMDL
MODEL 9
REMARK VINA RESULT:      -7.7      5.232      8.686
REMARK  6 active torsions:
REMARK  status: ('A' for Active; 'I' for Inactive)
REMARK    1  A    between atoms: C_2  and  C_3 
REMARK    2  A    between atoms: C_3  and  O_4 
REMARK    3  A    between atoms: O_4  and  C_5 
REMARK    4  A    between atoms: C_7  and  C_8 
REMARK       I    between atoms: C_8  and  N_9 
REMARK    5  A    between atoms: N_9  and  C_10 
REMARK    6  A    between atoms: C_17  and  C_18 
REMARK       I    between atoms: C_18  and  N_19 
ROOT
HETATM    1  C   UNL     1      42.757 -10.942   5.936  1.00  0.00     0.036 A 
HETATM    2  C   UNL     1      43.260 -10.866   7.241  1.00  0.00     0.046 A 
HETATM    3  C   UNL     1      43.001  -9.720   8.026  1.00  0.00     0.030 A 
HETATM    4  C   UNL     1      42.262  -8.683   7.473  1.00  0.00     0.063 A 
HETATM    5  N   UNL     1      42.186  -7.730   8.450  1.00  0.00    -0.277 N 
HETATM    6  H   UNL     1      41.722  -6.830   8.395  1.00  0.00     0.189 HD
HETATM    7  N   UNL     1      42.798  -8.060   9.598  1.00  0.00    -0.168 NA
HETATM    8  C   UNL     1      43.307  -9.289   9.353  1.00  0.00     0.156 A 
HETATM    9  C   UNL     1      41.751  -8.719   6.175  1.00  0.00     0.034 A 
HETATM   10  C   UNL     1      42.009  -9.873   5.423  1.00  0.00     0.032 A 
ENDROOT
BRANCH   1  11
HETATM   11  N   UNL     1      42.948 -12.052   5.082  1.00  0.00    -0.323 N 
HETATM   12  C   UNL     1      42.117 -13.147   4.933  1.00  0.00     0.256 C 
HETATM   13  O   UNL     1      41.056 -13.343   5.514  1.00  0.00    -0.267 OA
HETATM   14  H   UNL     1      43.762 -12.003   4.485  1.00  0.00     0.169 HD
BRANCH  12  15
HETATM   15  C   UNL     1      42.560 -14.167   3.934  1.00  0.00     0.035 A 
HETATM   16  C   UNL     1      42.510 -15.517   4.317  1.00  0.00     0.053 A 
HETATM   17  C   UNL     1      42.914 -16.519   3.435  1.00  0.00     0.069 A 
HETATM   18  C   UNL     1      43.363 -16.164   2.160  1.00  0.00     0.037 A 
HETATM   19  C   UNL     1      43.433 -14.824   1.776  1.00  0.00     0.004 A 
HETATM   20  C   UNL     1      43.040 -13.821   2.664  1.00  0.00     0.017 A 
BRANCH  17  21
HETATM   21  O   UNL     1      42.917 -17.862   3.693  1.00  0.00    -0.351 OA
BRANCH  21  22
HETATM   22  C   UNL     1      43.941 -18.638   3.064  1.00  0.00     0.179 C 
BRANCH  22  23
HETATM   23  C   UNL     1      43.430 -20.073   2.868  1.00  0.00     0.002 C 
HETATM   24  C   UNL     1      43.954 -21.005   3.964  1.00  0.00     0.011 C 
HETATM   25  C   UNL     1      43.832 -20.596   1.490  1.00  0.00     0.011 C 
ENDBRANCH  22  23
ENDBRANCH  21  22
ENDBRANCH  17  21
ENDBRANCH  12  15
ENDBRANCH   1  11
BRANCH   8  26
HETATM   26  C   UNL     1      44.057 -10.021  10.384  1.00  0.00     0.270 C 
HETATM   27  N   UNL     1      43.284 -10.844  11.157  1.00  0.00    -0.365 N 
HETATM   28  H   UNL     1      42.290 -10.895  10.967  1.00  0.00     0.159 HD
HETATM   29  H   UNL     1      43.714 -11.397  11.880  1.00  0.00     0.159 HD
HETATM   30  O   UNL     1      45.267  -9.937  10.564  1.00  0.00    -0.266 OA
ENDBRANCH   8  26
TORSDOF 6
ENDMDL
MODEL 10
REMARK VINA RESULT:      -7.7      2.585      4.201
REMARK  6 active torsions:
REMARK  status: ('A' for Active; 'I' for Inactive)
REMARK    1  A    between atoms: C_2  and  C_3 
REMARK    2  A    between atoms: C_3  and  O_4 
REMARK    3  A    between atoms: O_4  and  C_5 
REMARK    4  A    between atoms: C_7  and  C_8 
REMARK       I    between atoms: C_8  and  N_9 
REMARK    5  A    between atoms: N_9  and  C_10 
REMARK    6  A    between atoms: C_17  and  C_18 
REMARK       I    between atoms: C_18  and  N_19 
ROOT
HETATM    1  C   UNL     1      40.550 -13.541  -0.241  1.00  0.00     0.036 A 
HETATM    2  C   UNL     1      40.600 -12.180  -0.565  1.00  0.00     0.046 A 
HETATM    3  C   UNL     1      39.834 -11.688  -1.646  1.00  0.00     0.030 A 
HETATM    4  C   UNL     1      39.057 -12.579  -2.375  1.00  0.00     0.063 A 
HETATM    5  N   UNL     1      38.451 -11.825  -3.341  1.00  0.00    -0.277 N 
HETATM    6  H   UNL     1      37.813 -12.147  -4.060  1.00  0.00     0.189 HD
HETATM    7  N   UNL     1      38.752 -10.518  -3.297  1.00  0.00    -0.168 NA
HETATM    8  C   UNL     1      39.606 -10.416  -2.253  1.00  0.00     0.156 A 
HETATM    9  C   UNL     1      38.987 -13.943  -2.087  1.00  0.00     0.034 A 
HETATM   10  C   UNL     1      39.745 -14.402  -1.002  1.00  0.00     0.032 A 
ENDROOT
BRANCH   1  11
HETATM   11  N   UNL     1      41.265 -14.123   0.831  1.00  0.00    -0.323 N 
HETATM   12  C   UNL     1      40.765 -14.502   2.064  1.00  0.00     0.256 C 
HETATM   13  O   UNL     1      39.603 -14.408   2.441  1.00  0.00    -0.267 OA
HETATM   14  H   UNL     1      42.237 -14.322   0.645  1.00  0.00     0.169 HD
BRANCH  12  15
HETATM   15  C   UNL     1      41.751 -15.117   3.003  1.00  0.00     0.035 A 
HETATM   16  C   UNL     1      42.265 -16.380   2.672  1.00  0.00     0.053 A 
HETATM   17  C   UNL     1      43.184 -17.013   3.508  1.00  0.00     0.069 A 
HETATM   18  C   UNL     1      43.596 -16.370   4.678  1.00  0.00     0.037 A 
HETATM   19  C   UNL     1      43.077 -15.122   5.026  1.00  0.00     0.004 A 
HETATM   20  C   UNL     1      42.148 -14.495   4.195  1.00  0.00     0.017 A 
BRANCH  17  21
HETATM   21  O   UNL     1      43.749 -18.240   3.297  1.00  0.00    -0.351 OA
BRANCH  21  22
HETATM   22  C   UNL     1      44.667 -18.708   4.290  1.00  0.00     0.179 C 
BRANCH  22  23
HETATM   23  C   UNL     1      44.409 -20.201   4.545  1.00  0.00     0.002 C 
HETATM   24  C   UNL     1      43.725 -20.862   3.345  1.00  0.00     0.011 C 
HETATM   25  C   UNL     1      43.564 -20.386   5.805  1.00  0.00     0.011 C 
ENDBRANCH  22  23
ENDBRANCH  21  22
ENDBRANCH  17  21
ENDBRANCH  12  15
ENDBRANCH   1  11
BRANCH   8  26
HETATM   26  C   UNL     1      40.171  -9.119  -1.857  1.00  0.00     0.270 C 
HETATM   27  N   UNL     1      40.592  -8.349  -2.907  1.00  0.00    -0.365 N 
HETATM   28  H   UNL     1      40.481  -8.709  -3.848  1.00  0.00     0.159 HD
HETATM   29  H   UNL     1      40.980  -7.436  -2.732  1.00  0.00     0.159 HD
HETATM   30  O   UNL     1      40.269  -8.719  -0.702  1.00  0.00    -0.266 OA
ENDBRANCH   8  26
TORSDOF 6
ENDMDL
