MODEL 1
REMARK VINA RESULT:      -8.3      0.000      0.000
REMARK  7 active torsions:
REMARK  status: ('A' for Active; 'I' for Inactive)
REMARK    1  A    between atoms: N_3  and  N_4 
REMARK       I    between atoms: N_4  and  C_5 
REMARK    2  A    between atoms: C_5  and  C_6 
REMARK    3  A    between atoms: C_9  and  O_10 
REMARK    4  A    between atoms: O_10  and  C_11 
REMARK    5  A    between atoms: C_11  and  C_12 
REMARK       I    between atoms: C_12  and  N_13 
REMARK    6  A    between atoms: N_13  and  C_14 
REMARK    7  A    between atoms: C_15  and  O_16 
ROOT
HETATM    1  C   UNL     1      43.077 -10.970   6.727  1.00  0.00     0.033 A 
HETATM    2  C   UNL     1      42.532 -10.685   5.471  1.00  0.00     0.020 A 
HETATM    3  C   UNL     1      42.528 -11.670   4.478  1.00  0.00     0.038 A 
HETATM    4  C   UNL     1      43.078 -12.931   4.724  1.00  0.00     0.069 A 
HETATM    5  C   UNL     1      43.591 -13.221   5.990  1.00  0.00     0.038 A 
HETATM    6  C   UNL     1      43.586 -12.244   6.991  1.00  0.00     0.020 A 
ENDROOT
BRANCH   4   7
HETATM    7  O   UNL     1      43.043 -13.796   3.664  1.00  0.00    -0.342 OA
BRANCH   7   8
HETATM    8  C   UNL     1      41.765 -14.317   3.313  1.00  0.00     0.278 C 
BRANCH   8   9
HETATM    9  C   UNL     1      41.703 -15.849   3.305  1.00  0.00     0.246 C 
HETATM   10  N   UNL     1      42.952 -16.421   3.164  1.00  0.00    -0.323 N 
HETATM   11  H   UNL     1      43.738 -15.801   2.984  1.00  0.00     0.169 HD
HETATM   12  O   UNL     1      40.632 -16.441   3.396  1.00  0.00    -0.271 OA
BRANCH  10  13
HETATM   13  C   UNL     1      43.305 -17.784   3.243  1.00  0.00     0.068 A 
HETATM   14  C   UNL     1      43.894 -18.226   4.446  1.00  0.00     0.095 A 
HETATM   15  C   UNL     1      44.220 -19.576   4.606  1.00  0.00     0.039 A 
HETATM   16  C   UNL     1      43.975 -20.482   3.573  1.00  0.00     0.003 A 
HETATM   17  C   UNL     1      43.405 -20.044   2.381  1.00  0.00     0.002 A 
HETATM   18  C   UNL     1      43.070 -18.698   2.214  1.00  0.00     0.032 A 
BRANCH  14  19
HETATM   19  O   UNL     1      44.095 -17.258   5.404  1.00  0.00    -0.354 OA
HETATM   20  C   UNL     1      43.540 -17.521   6.690  1.00  0.00     0.210 C 
ENDBRANCH  14  19
ENDBRANCH  10  13
ENDBRANCH   8   9
ENDBRANCH   7   8
ENDBRANCH   4   7
BRANCH   1  21
HETATM   21  C   UNL     1      43.115  -9.950   7.807  1.00  0.00     0.270 C 
HETATM   22  N   UNL     1      43.038 -10.460   9.080  1.00  0.00    -0.259 N 
HETATM   23  H   UNL     1      42.795 -11.418   9.278  1.00  0.00     0.191 HD
HETATM   24  O   UNL     1      43.174  -8.763   7.513  1.00  0.00    -0.266 OA
BRANCH  22  25
HETATM   25  N   UNL     1      42.972  -9.625  10.132  1.00  0.00    -0.263 N 
HETATM   26  C   UNL     1      44.058  -9.302  10.897  1.00  0.00     0.030 A 
HETATM   27  C   UNL     1      45.451  -9.666  10.533  1.00  0.00     0.070 C 
HETATM   28  C   UNL     1      43.576  -8.596  11.984  1.00  0.00     0.028 A 
HETATM   29  C   UNL     1      42.163  -8.534  11.867  1.00  0.00     0.028 A 
HETATM   30  C   UNL     1      41.806  -9.207  10.711  1.00  0.00     0.030 A 
HETATM   31  C   UNL     1      40.463  -9.430  10.117  1.00  0.00     0.070 C 
ENDBRANCH  22  25
ENDBRANCH   1  21
TORSDOF 7
ENDMDL
MODEL 2
REMARK VINA RESULT:      -8.2      4.531      7.637
REMARK  7 active torsions:
REMARK  status: ('A' for Active; 'I' for Inactive)
REMARK    1  A    between atoms: N_3  and  N_4 
REMARK       I    between atoms: N_4  and  C_5 
REMARK    2  A    between atoms: C_5  and  C_6 
REMARK    3  A    between atoms: C_9  and  O_10 
REMARK    4  A    between atoms: O_10  and  C_11 
REMARK    5  A    between atoms: C_11  and  C_12 
REMARK       I    between atoms: C_12  and  N_13 
REMARK    6  A    between atoms: N_13  and  C_14 
REMARK    7  A    between atoms: C_15  and  O_16 
ROOT
HETATM    1  C   UNL     1      40.896 -12.986   2.694  1.00  0.00     0.033 A 
HETATM    2  C   UNL     1      40.137 -13.311   3.823  1.00  0.00     0.020 A 
HETATM    3  C   UNL     1      40.782 -13.619   5.025  1.00  0.00     0.038 A 
HETATM    4  C   UNL     1      42.178 -13.621   5.104  1.00  0.00     0.069 A 
HETATM    5  C   UNL     1      42.930 -13.264   3.983  1.00  0.00     0.038 A 
HETATM    6  C   UNL     1      42.290 -12.942   2.781  1.00  0.00     0.020 A 
ENDROOT
BRANCH   4   7
HETATM    7  O   UNL     1      42.689 -13.970   6.325  1.00  0.00    -0.342 OA
BRANCH   7   8
HETATM    8  C   UNL     1      43.709 -14.964   6.324  1.00  0.00     0.278 C 
BRANCH   8   9
HETATM    9  C   UNL     1      43.219 -16.353   5.899  1.00  0.00     0.246 C 
HETATM   10  N   UNL     1      43.844 -16.798   4.750  1.00  0.00    -0.323 N 
HETATM   11  H   UNL     1      44.460 -16.150   4.267  1.00  0.00     0.169 HD
HETATM   12  O   UNL     1      42.353 -16.942   6.538  1.00  0.00    -0.271 OA
BRANCH  10  13
HETATM   13  C   UNL     1      43.751 -18.066   4.139  1.00  0.00     0.068 A 
HETATM   14  C   UNL     1      43.299 -18.103   2.804  1.00  0.00     0.095 A 
HETATM   15  C   UNL     1      43.234 -19.324   2.126  1.00  0.00     0.039 A 
HETATM   16  C   UNL     1      43.603 -20.504   2.774  1.00  0.00     0.003 A 
HETATM   17  C   UNL     1      44.037 -20.469   4.096  1.00  0.00     0.002 A 
HETATM   18  C   UNL     1      44.111 -19.253   4.780  1.00  0.00     0.032 A 
BRANCH  14  19
HETATM   19  O   UNL     1      42.960 -16.888   2.253  1.00  0.00    -0.354 OA
HETATM   20  C   UNL     1      41.569 -16.584   2.208  1.00  0.00     0.210 C 
ENDBRANCH  14  19
ENDBRANCH  10  13
ENDBRANCH   8   9
ENDBRANCH   7   8
ENDBRANCH   4   7
BRANCH   1  21
HETATM   21  C   UNL     1      40.254 -12.665   1.393  1.00  0.00     0.270 C 
HETATM   22  N   UNL     1      41.033 -12.923   0.290  1.00  0.00    -0.259 N 
HETATM   23  H   UNL     1      42.016 -13.138   0.347  1.00  0.00     0.191 HD
HETATM   24  O   UNL     1      39.131 -12.178   1.378  1.00  0.00    -0.266 OA
BRANCH  22  25
HETATM   25  N   UNL     1      40.590 -12.587  -0.934  1.00  0.00    -0.263 N 
HETATM   26  C   UNL     1      39.933 -13.461  -1.756  1.00  0.00     0.030 A 
HETATM   27  C   UNL     1      39.459 -14.797  -1.314  1.00  0.00     0.070 C 
HETATM   28  C   UNL     1      39.816 -12.834  -2.982  1.00  0.00     0.028 A 
HETATM   29  C   UNL     1      40.453 -11.570  -2.883  1.00  0.00     0.028 A 
HETATM   30  C   UNL     1      40.951 -11.447  -1.598  1.00  0.00     0.030 A 
HETATM   31  C   UNL     1      41.690 -10.324  -0.966  1.00  0.00     0.070 C 
ENDBRANCH  22  25
ENDBRANCH   1  21
TORSDOF 7
ENDMDL
MODEL 3
REMARK VINA RESULT:      -8.1      4.594      7.650
REMARK  7 active torsions:
REMARK  status: ('A' for Active; 'I' for Inactive)
REMARK    1  A    between atoms: N_3  and  N_4 
REMARK       I    between atoms: N_4  and  C_5 
REMARK    2  A    between atoms: C_5  and  C_6 
REMARK    3  A    between atoms: C_9  and  O_10 
REMARK    4  A    between atoms: O_10  and  C_11 
REMARK    5  A    between atoms: C_11  and  C_12 
REMARK       I    between atoms: C_12  and  N_13 
REMARK    6  A    between atoms: N_13  and  C_14 
REMARK    7  A    between atoms: C_15  and  O_16 
ROOT
HETATM    1  C   UNL     1      40.994 -12.834   2.389  1.00  0.00     0.033 A 
HETATM    2  C   UNL     1      42.358 -12.768   2.693  1.00  0.00     0.020 A 
HETATM    3  C   UNL     1      42.804 -13.159   3.959  1.00  0.00     0.038 A 
HETATM    4  C   UNL     1      41.900 -13.600   4.929  1.00  0.00     0.069 A 
HETATM    5  C   UNL     1      40.543 -13.694   4.610  1.00  0.00     0.038 A 
HETATM    6  C   UNL     1      40.092 -13.317   3.341  1.00  0.00     0.020 A 
ENDROOT
BRANCH   4   7
HETATM    7  O   UNL     1      42.456 -13.923   6.137  1.00  0.00    -0.342 OA
BRANCH   7   8
HETATM    8  C   UNL     1      43.513 -14.877   6.113  1.00  0.00     0.278 C 
BRANCH   8   9
HETATM    9  C   UNL     1      43.058 -16.296   5.754  1.00  0.00     0.246 C 
HETATM   10  N   UNL     1      43.821 -16.849   4.745  1.00  0.00    -0.323 N 
HETATM   11  H   UNL     1      44.509 -16.253   4.292  1.00  0.00     0.169 HD
HETATM   12  O   UNL     1      42.102 -16.817   6.320  1.00  0.00    -0.271 OA
BRANCH  10  13
HETATM   13  C   UNL     1      43.787 -18.168   4.245  1.00  0.00     0.068 A 
HETATM   14  C   UNL     1      43.433 -18.331   2.889  1.00  0.00     0.095 A 
HETATM   15  C   UNL     1      43.430 -19.608   2.320  1.00  0.00     0.039 A 
HETATM   16  C   UNL     1      43.764 -20.720   3.095  1.00  0.00     0.003 A 
HETATM   17  C   UNL     1      44.101 -20.561   4.437  1.00  0.00     0.002 A 
HETATM   18  C   UNL     1      44.112 -19.287   5.013  1.00  0.00     0.032 A 
BRANCH  14  19
HETATM   19  O   UNL     1      43.123 -17.175   2.209  1.00  0.00    -0.354 OA
HETATM   20  C   UNL     1      41.760 -16.763   2.259  1.00  0.00     0.210 C 
ENDBRANCH  14  19
ENDBRANCH  10  13
ENDBRANCH   8   9
ENDBRANCH   7   8
ENDBRANCH   4   7
BRANCH   1  21
HETATM   21  C   UNL     1      40.473 -12.415   1.063  1.00  0.00     0.270 C 
HETATM   22  N   UNL     1      39.182 -12.808   0.803  1.00  0.00    -0.259 N 
HETATM   23  H   UNL     1      38.683 -13.474   1.372  1.00  0.00     0.191 HD
HETATM   24  O   UNL     1      41.203 -11.801   0.294  1.00  0.00    -0.266 OA
BRANCH  22  25
HETATM   25  N   UNL     1      38.639 -12.564  -0.402  1.00  0.00    -0.263 N 
HETATM   26  C   UNL     1      37.829 -11.491  -0.651  1.00  0.00     0.030 A 
HETATM   27  C   UNL     1      37.631 -10.377   0.310  1.00  0.00     0.070 C 
HETATM   28  C   UNL     1      37.307 -11.679  -1.918  1.00  0.00     0.028 A 
HETATM   29  C   UNL     1      37.800 -12.915  -2.409  1.00  0.00     0.028 A 
HETATM   30  C   UNL     1      38.613 -13.463  -1.432  1.00  0.00     0.030 A 
HETATM   31  C   UNL     1      39.382 -14.734  -1.437  1.00  0.00     0.070 C 
ENDBRANCH  22  25
ENDBRANCH   1  21
TORSDOF 7
ENDMDL
MODEL 4
REMARK VINA RESULT:      -8.1      1.722      9.965
REMARK  7 active torsions:
REMARK  status: ('A' for Active; 'I' for Inactive)
REMARK    1  A    between atoms: N_3  and  N_4 
REMARK       I    between atoms: N_4  and  C_5 
REMARK    2  A    between atoms: C_5  and  C_6 
REMARK    3  A    between atoms: C_9  and  O_10 
REMARK    4  A    between atoms: O_10  and  C_11 
REMARK    5  A    between atoms: C_11  and  C_12 
REMARK       I    between atoms: C_12  and  N_13 
REMARK    6  A    between atoms: N_13  and  C_14 
REMARK    7  A    between atoms: C_15  and  O_16 
ROOT
HETATM    1  C   UNL     1      42.747 -13.422   5.870  1.00  0.00     0.033 A 
HETATM    2  C   UNL     1      43.942 -13.224   6.570  1.00  0.00     0.020 A 
HETATM    3  C   UNL     1      44.183 -11.995   7.192  1.00  0.00     0.038 A 
HETATM    4  C   UNL     1      43.249 -10.959   7.108  1.00  0.00     0.069 A 
HETATM    5  C   UNL     1      42.044 -11.173   6.436  1.00  0.00     0.038 A 
HETATM    6  C   UNL     1      41.791 -12.404   5.823  1.00  0.00     0.020 A 
ENDROOT
BRANCH   4   7
HETATM    7  O   UNL     1      43.616  -9.796   7.732  1.00  0.00    -0.342 OA
BRANCH   7   8
HETATM    8  C   UNL     1      44.718  -9.879   8.630  1.00  0.00     0.278 C 
BRANCH   8   9
HETATM    9  C   UNL     1      44.309  -9.947  10.106  1.00  0.00     0.246 C 
HETATM   10  N   UNL     1      43.448  -8.925  10.456  1.00  0.00    -0.323 N 
HETATM   11  H   UNL     1      43.262  -8.206   9.762  1.00  0.00     0.169 HD
HETATM   12  O   UNL     1      44.748 -10.823  10.845  1.00  0.00    -0.271 OA
BRANCH  10  13
HETATM   13  C   UNL     1      42.763  -8.737  11.675  1.00  0.00     0.068 A 
HETATM   14  C   UNL     1      41.421  -9.167  11.730  1.00  0.00     0.095 A 
HETATM   15  C   UNL     1      40.704  -9.055  12.925  1.00  0.00     0.039 A 
HETATM   16  C   UNL     1      41.310  -8.506  14.056  1.00  0.00     0.003 A 
HETATM   17  C   UNL     1      42.631  -8.070  13.998  1.00  0.00     0.002 A 
HETATM   18  C   UNL     1      43.358  -8.184  12.810  1.00  0.00     0.032 A 
BRANCH  14  19
HETATM   19  O   UNL     1      40.914  -9.695  10.564  1.00  0.00    -0.354 OA
HETATM   20  C   UNL     1      39.548  -9.403  10.284  1.00  0.00     0.210 C 
ENDBRANCH  14  19
ENDBRANCH  10  13
ENDBRANCH   8   9
ENDBRANCH   7   8
ENDBRANCH   4   7
BRANCH   1  21
HETATM   21  C   UNL     1      42.454 -14.706   5.182  1.00  0.00     0.270 C 
HETATM   22  N   UNL     1      43.551 -15.324   4.631  1.00  0.00    -0.259 N 
HETATM   23  H   UNL     1      44.448 -14.875   4.535  1.00  0.00     0.191 HD
HETATM   24  O   UNL     1      41.299 -15.105   5.115  1.00  0.00    -0.266 OA
BRANCH  22  25
HETATM   25  N   UNL     1      43.392 -16.445   3.905  1.00  0.00    -0.263 N 
HETATM   26  C   UNL     1      43.576 -17.699   4.419  1.00  0.00     0.030 A 
HETATM   27  C   UNL     1      43.764 -17.968   5.867  1.00  0.00     0.070 C 
HETATM   28  C   UNL     1      43.524 -18.573   3.349  1.00  0.00     0.028 A 
HETATM   29  C   UNL     1      43.338 -17.803   2.172  1.00  0.00     0.028 A 
HETATM   30  C   UNL     1      43.283 -16.471   2.542  1.00  0.00     0.030 A 
HETATM   31  C   UNL     1      43.092 -15.258   1.707  1.00  0.00     0.070 C 
ENDBRANCH  22  25
ENDBRANCH   1  21
TORSDOF 7
ENDMDL
MODEL 5
REMARK VINA RESULT:      -8.1      2.164      8.640
REMARK  7 active torsions:
REMARK  status: ('A' for Active; 'I' for Inactive)
REMARK    1  A    between atoms: N_3  and  N_4 
REMARK       I    between atoms: N_4  and  C_5 
REMARK    2  A    between atoms: C_5  and  C_6 
REMARK    3  A    between atoms: C_9  and  O_10 
REMARK    4  A    between atoms: O_10  and  C_11 
REMARK    5  A    between atoms: C_11  and  C_12 
REMARK       I    between atoms: C_12  and  N_13 
REMARK    6  A    between atoms: N_13  and  C_14 
REMARK    7  A    between atoms: C_15  and  O_16 
ROOT
HETATM    1  C   UNL     1      40.710 -14.160   4.731  1.00  0.00     0.033 A 
HETATM    2  C   UNL     1      40.312 -13.808   6.025  1.00  0.00     0.020 A 
HETATM    3  C   UNL     1      39.805 -12.529   6.269  1.00  0.00     0.038 A 
HETATM    4  C   UNL     1      39.707 -11.593   5.236  1.00  0.00     0.069 A 
HETATM    5  C   UNL     1      40.075 -11.958   3.940  1.00  0.00     0.038 A 
HETATM    6  C   UNL     1      40.570 -13.242   3.687  1.00  0.00     0.020 A 
ENDROOT
BRANCH   4   7
HETATM    7  O   UNL     1      39.225 -10.366   5.609  1.00  0.00    -0.342 OA
BRANCH   7   8
HETATM    8  C   UNL     1      39.739  -9.826   6.822  1.00  0.00     0.278 C 
BRANCH   8   9
HETATM    9  C   UNL     1      41.190  -9.344   6.718  1.00  0.00     0.246 C 
HETATM   10  N   UNL     1      41.994  -9.893   7.698  1.00  0.00    -0.323 N 
HETATM   11  H   UNL     1      41.545 -10.454   8.417  1.00  0.00     0.169 HD
HETATM   12  O   UNL     1      41.532  -8.543   5.853  1.00  0.00    -0.271 OA
BRANCH  10  13
HETATM   13  C   UNL     1      43.394  -9.790   7.841  1.00  0.00     0.068 A 
HETATM   14  C   UNL     1      44.176 -10.805   7.252  1.00  0.00     0.095 A 
HETATM   15  C   UNL     1      45.571 -10.733   7.315  1.00  0.00     0.039 A 
HETATM   16  C   UNL     1      46.187  -9.666   7.972  1.00  0.00     0.003 A 
HETATM   17  C   UNL     1      45.414  -8.671   8.566  1.00  0.00     0.002 A 
HETATM   18  C   UNL     1      44.020  -8.731   8.502  1.00  0.00     0.032 A 
BRANCH  14  19
HETATM   19  O   UNL     1      43.476 -11.812   6.627  1.00  0.00    -0.354 OA
HETATM   20  C   UNL     1      43.746 -11.999   5.241  1.00  0.00     0.210 C 
ENDBRANCH  14  19
ENDBRANCH  10  13
ENDBRANCH   8   9
ENDBRANCH   7   8
ENDBRANCH   4   7
BRANCH   1  21
HETATM   21  C   UNL     1      41.268 -15.503   4.428  1.00  0.00     0.270 C 
HETATM   22  N   UNL     1      42.641 -15.565   4.417  1.00  0.00    -0.259 N 
HETATM   23  H   UNL     1      43.231 -14.747   4.433  1.00  0.00     0.191 HD
HETATM   24  O   UNL     1      40.508 -16.430   4.179  1.00  0.00    -0.266 OA
BRANCH  22  25
HETATM   25  N   UNL     1      43.256 -16.707   4.066  1.00  0.00    -0.263 N 
HETATM   26  C   UNL     1      43.416 -17.098   2.765  1.00  0.00     0.030 A 
HETATM   27  C   UNL     1      43.120 -16.219   1.606  1.00  0.00     0.070 C 
HETATM   28  C   UNL     1      43.900 -18.393   2.801  1.00  0.00     0.028 A 
HETATM   29  C   UNL     1      43.994 -18.781   4.163  1.00  0.00     0.028 A 
HETATM   30  C   UNL     1      43.562 -17.717   4.936  1.00  0.00     0.030 A 
HETATM   31  C   UNL     1      43.467 -17.590   6.413  1.00  0.00     0.070 C 
ENDBRANCH  22  25
ENDBRANCH   1  21
TORSDOF 7
ENDMDL
MODEL 6
REMARK VINA RESULT:      -8.0      1.803      8.808
REMARK  7 active torsions:
REMARK  status: ('A' for Active; 'I' for Inactive)
REMARK    1  A    between atoms: N_3  and  N_4 
REMARK       I    between atoms: N_4  and  C_5 
REMARK    2  A    between atoms: C_5  and  C_6 
REMARK    3  A    between atoms: C_9  and  O_10 
REMARK    4  A    between atoms: O_10  and  C_11 
REMARK    5  A    between atoms: C_11  and  C_12 
REMARK       I    between atoms: C_12  and  N_13 
REMARK    6  A    between atoms: N_13  and  C_14 
REMARK    7  A    between atoms: C_15  and  O_16 
ROOT
HETATM    1  C   UNL     1      41.166 -13.948   4.969  1.00  0.00     0.033 A 
HETATM    2  C   UNL     1      41.927 -12.937   4.373  1.00  0.00     0.020 A 
HETATM    3  C   UNL     1      41.593 -11.598   4.593  1.00  0.00     0.038 A 
HETATM    4  C   UNL     1      40.494 -11.259   5.389  1.00  0.00     0.069 A 
HETATM    5  C   UNL     1      39.757 -12.271   6.007  1.00  0.00     0.038 A 
HETATM    6  C   UNL     1      40.095 -13.612   5.802  1.00  0.00     0.020 A 
ENDROOT
BRANCH   4   7
HETATM    7  O   UNL     1      40.251  -9.916   5.500  1.00  0.00    -0.342 OA
BRANCH   7   8
HETATM    8  C   UNL     1      39.903  -9.442   6.797  1.00  0.00     0.278 C 
BRANCH   8   9
HETATM    9  C   UNL     1      41.096  -8.915   7.603  1.00  0.00     0.246 C 
HETATM   10  N   UNL     1      41.750  -9.923   8.285  1.00  0.00    -0.323 N 
HETATM   11  H   UNL     1      41.336 -10.851   8.268  1.00  0.00     0.169 HD
HETATM   12  O   UNL     1      41.374  -7.720   7.617  1.00  0.00    -0.271 OA
BRANCH  10  13
HETATM   13  C   UNL     1      42.954  -9.846   9.016  1.00  0.00     0.068 A 
HETATM   14  C   UNL     1      44.119 -10.337   8.389  1.00  0.00     0.095 A 
HETATM   15  C   UNL     1      45.352 -10.243   9.042  1.00  0.00     0.039 A 
HETATM   16  C   UNL     1      45.427  -9.677  10.316  1.00  0.00     0.003 A 
HETATM   17  C   UNL     1      44.276  -9.204  10.940  1.00  0.00     0.002 A 
HETATM   18  C   UNL     1      43.040  -9.288  10.293  1.00  0.00     0.032 A 
BRANCH  14  19
HETATM   19  O   UNL     1      43.941 -10.874   7.135  1.00  0.00    -0.354 OA
HETATM   20  C   UNL     1      44.567 -12.132   6.895  1.00  0.00     0.210 C 
ENDBRANCH  14  19
ENDBRANCH  10  13
ENDBRANCH   8   9
ENDBRANCH   7   8
ENDBRANCH   4   7
BRANCH   1  21
HETATM   21  C   UNL     1      41.476 -15.384   4.752  1.00  0.00     0.270 C 
HETATM   22  N   UNL     1      42.816 -15.676   4.670  1.00  0.00    -0.259 N 
HETATM   23  H   UNL     1      43.530 -14.970   4.582  1.00  0.00     0.191 HD
HETATM   24  O   UNL     1      40.560 -16.188   4.628  1.00  0.00    -0.266 OA
BRANCH  22  25
HETATM   25  N   UNL     1      43.212 -16.929   4.385  1.00  0.00    -0.263 N 
HETATM   26  C   UNL     1      43.610 -17.821   5.341  1.00  0.00     0.030 A 
HETATM   27  C   UNL     1      43.453 -17.581   6.798  1.00  0.00     0.070 C 
HETATM   28  C   UNL     1      44.126 -18.913   4.668  1.00  0.00     0.028 A 
HETATM   29  C   UNL     1      44.059 -18.635   3.278  1.00  0.00     0.028 A 
HETATM   30  C   UNL     1      43.505 -17.376   3.126  1.00  0.00     0.030 A 
HETATM   31  C   UNL     1      43.204 -16.612   1.888  1.00  0.00     0.070 C 
ENDBRANCH  22  25
ENDBRANCH   1  21
TORSDOF 7
ENDMDL
MODEL 7
REMARK VINA RESULT:      -7.9      4.995      8.063
REMARK  7 active torsions:
REMARK  status: ('A' for Active; 'I' for Inactive)
REMARK    1  A    between atoms: N_3  and  N_4 
REMARK       I    between atoms: N_4  and  C_5 
REMARK    2  A    between atoms: C_5  and  C_6 
REMARK    3  A    between atoms: C_9  and  O_10 
REMARK    4  A    between atoms: O_10  and  C_11 
REMARK    5  A    between atoms: C_11  and  C_12 
REMARK       I    between atoms: C_12  and  N_13 
REMARK    6  A    between atoms: N_13  and  C_14 
REMARK    7  A    between atoms: C_15  and  O_16 
ROOT
HETATM    1  C   UNL     1      41.764 -14.455   3.913  1.00  0.00     0.033 A 
HETATM    2  C   UNL     1      42.816 -13.798   3.267  1.00  0.00     0.020 A 
HETATM    3  C   UNL     1      42.658 -12.470   2.862  1.00  0.00     0.038 A 
HETATM    4  C   UNL     1      41.452 -11.797   3.081  1.00  0.00     0.069 A 
HETATM    5  C   UNL     1      40.416 -12.447   3.755  1.00  0.00     0.038 A 
HETATM    6  C   UNL     1      40.573 -13.771   4.175  1.00  0.00     0.020 A 
ENDROOT
BRANCH   4   7
HETATM    7  O   UNL     1      41.411 -10.512   2.609  1.00  0.00    -0.342 OA
BRANCH   7   8
HETATM    8  C   UNL     1      41.683 -10.338   1.223  1.00  0.00     0.278 C 
BRANCH   8   9
HETATM    9  C   UNL     1      40.599 -10.912   0.303  1.00  0.00     0.246 C 
HETATM   10  N   UNL     1      41.049 -12.001  -0.417  1.00  0.00    -0.323 N 
HETATM   11  H   UNL     1      42.035 -12.238  -0.347  1.00  0.00     0.169 HD
HETATM   12  O   UNL     1      39.484 -10.403   0.243  1.00  0.00    -0.271 OA
BRANCH  10  13
HETATM   13  C   UNL     1      40.310 -12.861  -1.256  1.00  0.00     0.068 A 
HETATM   14  C   UNL     1      39.941 -14.115  -0.725  1.00  0.00     0.095 A 
HETATM   15  C   UNL     1      39.165 -14.992  -1.488  1.00  0.00     0.039 A 
HETATM   16  C   UNL     1      38.768 -14.634  -2.777  1.00  0.00     0.003 A 
HETATM   17  C   UNL     1      39.144 -13.402  -3.307  1.00  0.00     0.002 A 
HETATM   18  C   UNL     1      39.914 -12.516  -2.549  1.00  0.00     0.032 A 
BRANCH  14  19
HETATM   19  O   UNL     1      40.380 -14.374   0.554  1.00  0.00    -0.354 OA
HETATM   20  C   UNL     1      40.036 -15.648   1.090  1.00  0.00     0.210 C 
ENDBRANCH  14  19
ENDBRANCH  10  13
ENDBRANCH   8   9
ENDBRANCH   7   8
ENDBRANCH   4   7
BRANCH   1  21
HETATM   21  C   UNL     1      41.882 -15.871   4.348  1.00  0.00     0.270 C 
HETATM   22  N   UNL     1      43.154 -16.387   4.280  1.00  0.00    -0.259 N 
HETATM   23  H   UNL     1      43.914 -15.922   3.810  1.00  0.00     0.191 HD
HETATM   24  O   UNL     1      40.879 -16.482   4.694  1.00  0.00    -0.266 OA
BRANCH  22  25
HETATM   25  N   UNL     1      43.364 -17.685   4.562  1.00  0.00    -0.263 N 
HETATM   26  C   UNL     1      43.627 -18.140   5.825  1.00  0.00     0.030 A 
HETATM   27  C   UNL     1      43.504 -17.295   7.040  1.00  0.00     0.070 C 
HETATM   28  C   UNL     1      43.981 -19.471   5.696  1.00  0.00     0.028 A 
HETATM   29  C   UNL     1      43.957 -19.792   4.314  1.00  0.00     0.028 A 
HETATM   30  C   UNL     1      43.592 -18.651   3.621  1.00  0.00     0.030 A 
HETATM   31  C   UNL     1      43.406 -18.441   2.163  1.00  0.00     0.070 C 
ENDBRANCH  22  25
ENDBRANCH   1  21
TORSDOF 7
ENDMDL
MODEL 8
REMARK VINA RESULT:      -7.9      2.210      9.723
REMARK  7 active torsions:
REMARK  status: ('A' for Active; 'I' for Inactive)
REMARK    1  A    between atoms: N_3  and  N_4 
REMARK       I    between atoms: N_4  and  C_5 
REMARK    2  A    between atoms: C_5  and  C_6 
REMARK    3  A    between atoms: C_9  and  O_10 
REMARK    4  A    between atoms: O_10  and  C_11 
REMARK    5  A    between atoms: C_11  and  C_12 
REMARK       I    between atoms: C_12  and  N_13 
REMARK    6  A    between atoms: N_13  and  C_14 
REMARK    7  A    between atoms: C_15  and  O_16 
ROOT
HETATM    1  C   UNL     1      42.641 -12.502   6.180  1.00  0.00     0.033 A 
HETATM    2  C   UNL     1      42.053 -11.236   6.268  1.00  0.00     0.020 A 
HETATM    3  C   UNL     1      42.747 -10.192   6.887  1.00  0.00     0.038 A 
HETATM    4  C   UNL     1      44.015 -10.406   7.433  1.00  0.00     0.069 A 
HETATM    5  C   UNL     1      44.612 -11.663   7.315  1.00  0.00     0.038 A 
HETATM    6  C   UNL     1      43.928 -12.707   6.684  1.00  0.00     0.020 A 
ENDROOT
BRANCH   4   7
HETATM    7  O   UNL     1      44.576  -9.314   8.041  1.00  0.00    -0.342 OA
BRANCH   7   8
HETATM    8  C   UNL     1      45.440  -9.577   9.143  1.00  0.00     0.278 C 
BRANCH   8   9
HETATM    9  C   UNL     1      44.700  -9.826  10.462  1.00  0.00     0.246 C 
HETATM   10  N   UNL     1      43.917  -8.751  10.832  1.00  0.00    -0.323 N 
HETATM   11  H   UNL     1      43.985  -7.903  10.275  1.00  0.00     0.169 HD
HETATM   12  O   UNL     1      44.845 -10.876  11.081  1.00  0.00    -0.271 OA
BRANCH  10  13
HETATM   13  C   UNL     1      43.001  -8.661  11.902  1.00  0.00     0.068 A 
HETATM   14  C   UNL     1      41.703  -9.167  11.680  1.00  0.00     0.095 A 
HETATM   15  C   UNL     1      40.765  -9.154  12.716  1.00  0.00     0.039 A 
HETATM   16  C   UNL     1      41.109  -8.630  13.964  1.00  0.00     0.003 A 
HETATM   17  C   UNL     1      42.386  -8.119  14.179  1.00  0.00     0.002 A 
HETATM   18  C   UNL     1      43.332  -8.133  13.151  1.00  0.00     0.032 A 
BRANCH  14  19
HETATM   19  O   UNL     1      41.463  -9.663  10.418  1.00  0.00    -0.354 OA
HETATM   20  C   UNL     1      40.366  -9.087   9.715  1.00  0.00     0.210 C 
ENDBRANCH  14  19
ENDBRANCH  10  13
ENDBRANCH   8   9
ENDBRANCH   7   8
ENDBRANCH   4   7
BRANCH   1  21
HETATM   21  C   UNL     1      41.935 -13.644   5.543  1.00  0.00     0.270 C 
HETATM   22  N   UNL     1      42.131 -13.756   4.188  1.00  0.00    -0.259 N 
HETATM   23  H   UNL     1      42.563 -13.035   3.631  1.00  0.00     0.191 HD
HETATM   24  O   UNL     1      41.221 -14.368   6.225  1.00  0.00    -0.266 OA
BRANCH  22  25
HETATM   25  N   UNL     1      41.469 -14.697   3.492  1.00  0.00    -0.263 N 
HETATM   26  C   UNL     1      42.016 -15.908   3.169  1.00  0.00     0.030 A 
HETATM   27  C   UNL     1      43.305 -16.395   3.721  1.00  0.00     0.070 C 
HETATM   28  C   UNL     1      41.133 -16.516   2.296  1.00  0.00     0.028 A 
HETATM   29  C   UNL     1      40.056 -15.619   2.077  1.00  0.00     0.028 A 
HETATM   30  C   UNL     1      40.300 -14.476   2.817  1.00  0.00     0.030 A 
HETATM   31  C   UNL     1      39.490 -13.239   2.955  1.00  0.00     0.070 C 
ENDBRANCH  22  25
ENDBRANCH   1  21
TORSDOF 7
ENDMDL
MODEL 9
REMARK VINA RESULT:      -7.8      2.166      8.739
REMARK  7 active torsions:
REMARK  status: ('A' for Active; 'I' for Inactive)
REMARK    1  A    between atoms: N_3  and  N_4 
REMARK       I    between atoms: N_4  and  C_5 
REMARK    2  A    between atoms: C_5  and  C_6 
REMARK    3  A    between atoms: C_9  and  O_10 
REMARK    4  A    between atoms: O_10  and  C_11 
REMARK    5  A    between atoms: C_11  and  C_12 
REMARK       I    between atoms: C_12  and  N_13 
REMARK    6  A    between atoms: N_13  and  C_14 
REMARK    7  A    between atoms: C_15  and  O_16 
ROOT
HETATM    1  C   UNL     1      40.779 -14.135   4.815  1.00  0.00     0.033 A 
HETATM    2  C   UNL     1      40.137 -13.837   6.021  1.00  0.00     0.020 A 
HETATM    3  C   UNL     1      39.647 -12.547   6.244  1.00  0.00     0.038 A 
HETATM    4  C   UNL     1      39.806 -11.548   5.280  1.00  0.00     0.069 A 
HETATM    5  C   UNL     1      40.419 -11.859   4.064  1.00  0.00     0.038 A 
HETATM    6  C   UNL     1      40.899 -13.151   3.830  1.00  0.00     0.020 A 
ENDROOT
BRANCH   4   7
HETATM    7  O   UNL     1      39.313 -10.319   5.629  1.00  0.00    -0.342 OA
BRANCH   7   8
HETATM    8  C   UNL     1      39.859  -9.728   6.804  1.00  0.00     0.278 C 
BRANCH   8   9
HETATM    9  C   UNL     1      41.344  -9.366   6.681  1.00  0.00     0.246 C 
HETATM   10  N   UNL     1      42.141 -10.143   7.498  1.00  0.00    -0.323 N 
HETATM   11  H   UNL     1      41.678 -10.776   8.144  1.00  0.00     0.169 HD
HETATM   12  O   UNL     1      41.716  -8.462   5.937  1.00  0.00    -0.271 OA
BRANCH  10  13
HETATM   13  C   UNL     1      43.549 -10.190   7.559  1.00  0.00     0.068 A 
HETATM   14  C   UNL     1      44.181  -9.338   8.488  1.00  0.00     0.095 A 
HETATM   15  C   UNL     1      45.571  -9.374   8.632  1.00  0.00     0.039 A 
HETATM   16  C   UNL     1      46.333 -10.243   7.848  1.00  0.00     0.003 A 
HETATM   17  C   UNL     1      45.710 -11.075   6.921  1.00  0.00     0.002 A 
HETATM   18  C   UNL     1      44.321 -11.050   6.775  1.00  0.00     0.032 A 
BRANCH  14  19
HETATM   19  O   UNL     1      43.344  -8.520   9.213  1.00  0.00    -0.354 OA
HETATM   20  C   UNL     1      43.552  -7.118   9.066  1.00  0.00     0.210 C 
ENDBRANCH  14  19
ENDBRANCH  10  13
ENDBRANCH   8   9
ENDBRANCH   7   8
ENDBRANCH   4   7
BRANCH   1  21
HETATM   21  C   UNL     1      41.327 -15.488   4.541  1.00  0.00     0.270 C 
HETATM   22  N   UNL     1      42.693 -15.536   4.400  1.00  0.00    -0.259 N 
HETATM   23  H   UNL     1      43.268 -14.712   4.308  1.00  0.00     0.191 HD
HETATM   24  O   UNL     1      40.562 -16.437   4.424  1.00  0.00    -0.266 OA
BRANCH  22  25
HETATM   25  N   UNL     1      43.291 -16.691   4.060  1.00  0.00    -0.263 N 
HETATM   26  C   UNL     1      43.421 -17.110   2.764  1.00  0.00     0.030 A 
HETATM   27  C   UNL     1      43.110 -16.252   1.594  1.00  0.00     0.070 C 
HETATM   28  C   UNL     1      43.894 -18.408   2.818  1.00  0.00     0.028 A 
HETATM   29  C   UNL     1      44.011 -18.769   4.185  1.00  0.00     0.028 A 
HETATM   30  C   UNL     1      43.604 -17.686   4.944  1.00  0.00     0.030 A 
HETATM   31  C   UNL     1      43.541 -17.527   6.420  1.00  0.00     0.070 C 
ENDBRANCH  22  25
ENDBRANCH   1  21
TORSDOF 7
ENDMDL
MODEL 10
REMARK VINA RESULT:      -7.7      1.738      9.557
REMARK  7 active torsions:
REMARK  status: ('A' for Active; 'I' for Inactive)
REMARK    1  A    between atoms: N_3  and  N_4 
REMARK       I    between atoms: N_4  and  C_5 
REMARK    2  A    between atoms: C_5  and  C_6 
REMARK    3  A    between atoms: C_9  and  O_10 
REMARK    4  A    between atoms: O_10  and  C_11 
REMARK    5  A    between atoms: C_11  and  C_12 
REMARK       I    between atoms: C_12  and  N_13 
REMARK    6  A    between atoms: N_13  and  C_14 
REMARK    7  A    between atoms: C_15  and  O_16 
ROOT
HETATM    1  C   UNL     1      41.414 -14.000   5.240  1.00  0.00     0.033 A 
HETATM    2  C   UNL     1      40.186 -13.553   5.740  1.00  0.00     0.020 A 
HETATM    3  C   UNL     1      40.047 -12.223   6.147  1.00  0.00     0.038 A 
HETATM    4  C   UNL     1      41.127 -11.339   6.075  1.00  0.00     0.069 A 
HETATM    5  C   UNL     1      42.342 -11.781   5.545  1.00  0.00     0.038 A 
HETATM    6  C   UNL     1      42.483 -13.107   5.124  1.00  0.00     0.020 A 
ENDROOT
BRANCH   4   7
HETATM    7  O   UNL     1      40.874 -10.074   6.533  1.00  0.00    -0.342 OA
BRANCH   7   8
HETATM    8  C   UNL     1      42.010  -9.276   6.849  1.00  0.00     0.278 C 
BRANCH   8   9
HETATM    9  C   UNL     1      41.990  -8.709   8.274  1.00  0.00     0.246 C 
HETATM   10  N   UNL     1      41.555  -9.637   9.199  1.00  0.00    -0.323 N 
HETATM   11  H   UNL     1      41.210 -10.527   8.848  1.00  0.00     0.169 HD
HETATM   12  O   UNL     1      42.315  -7.547   8.498  1.00  0.00    -0.271 OA
BRANCH  10  13
HETATM   13  C   UNL     1      41.528  -9.526  10.604  1.00  0.00     0.068 A 
HETATM   14  C   UNL     1      42.632 -10.047  11.311  1.00  0.00     0.095 A 
HETATM   15  C   UNL     1      42.688  -9.922  12.702  1.00  0.00     0.039 A 
HETATM   16  C   UNL     1      41.649  -9.296  13.391  1.00  0.00     0.003 A 
HETATM   17  C   UNL     1      40.552  -8.793  12.695  1.00  0.00     0.002 A 
HETATM   18  C   UNL     1      40.490  -8.908  11.304  1.00  0.00     0.032 A 
BRANCH  14  19
HETATM   19  O   UNL     1      43.605 -10.644  10.543  1.00  0.00    -0.354 OA
HETATM   20  C   UNL     1      44.861  -9.973  10.485  1.00  0.00     0.210 C 
ENDBRANCH  14  19
ENDBRANCH  10  13
ENDBRANCH   8   9
ENDBRANCH   7   8
ENDBRANCH   4   7
BRANCH   1  21
HETATM   21  C   UNL     1      41.612 -15.408   4.810  1.00  0.00     0.270 C 
HETATM   22  N   UNL     1      42.925 -15.776   4.640  1.00  0.00    -0.259 N 
HETATM   23  H   UNL     1      43.687 -15.116   4.628  1.00  0.00     0.191 HD
HETATM   24  O   UNL     1      40.637 -16.119   4.604  1.00  0.00    -0.266 OA
BRANCH  22  25
HETATM   25  N   UNL     1      43.220 -16.999   4.164  1.00  0.00    -0.263 N 
HETATM   26  C   UNL     1      43.586 -18.043   4.968  1.00  0.00     0.030 A 
HETATM   27  C   UNL     1      43.498 -18.003   6.449  1.00  0.00     0.070 C 
HETATM   28  C   UNL     1      44.000 -19.059   4.126  1.00  0.00     0.028 A 
HETATM   29  C   UNL     1      43.904 -18.582   2.793  1.00  0.00     0.028 A 
HETATM   30  C   UNL     1      43.436 -17.280   2.844  1.00  0.00     0.030 A 
HETATM   31  C   UNL     1      43.147 -16.329   1.740  1.00  0.00     0.070 C 
ENDBRANCH  22  25
ENDBRANCH   1  21
TORSDOF 7
ENDMDL
