MODEL 1
REMARK VINA RESULT:      -8.7      0.000      0.000
REMARK  6 active torsions:
REMARK  status: ('A' for Active; 'I' for Inactive)
REMARK    1  A    between atoms: O_2  and  C_3 
REMARK    2  A    between atoms: C_7  and  O_8 
REMARK    3  A    between atoms: O_8  and  C_9 
REMARK    4  A    between atoms: C_9  and  C_10 
REMARK    5  A    between atoms: C_13  and  O_14 
REMARK    6  A    between atoms: C_17  and  C_23 
ROOT
HETATM    1  C   UNL     1      42.848 -13.154   5.991  1.00  0.00     0.132 A 
HETATM    2  N   UNL     1      42.946 -13.585   4.776  1.00  0.00    -0.229 NA
HETATM    3  C   UNL     1      43.129 -14.969   4.562  1.00  0.00     0.108 A 
HETATM    4  C   UNL     1      43.200 -15.478   3.252  1.00  0.00     0.098 A 
HETATM    5  C   UNL     1      43.408 -16.851   3.043  1.00  0.00     0.051 A 
HETATM    6  C   UNL     1      43.531 -17.742   4.123  1.00  0.00    -0.019 A 
HETATM    7  C   UNL     1      43.439 -17.237   5.422  1.00  0.00     0.032 A 
HETATM    8  C   UNL     1      43.237 -15.867   5.628  1.00  0.00     0.064 A 
HETATM    9  C   UNL     1      43.121 -15.329   6.994  1.00  0.00     0.259 A 
HETATM   10  O   UNL     1      43.180 -16.047   7.984  1.00  0.00    -0.267 OA
HETATM   11  N   UNL     1      42.936 -13.976   7.084  1.00  0.00    -0.309 N 
HETATM   12  H   UNL     1      42.796 -13.598   8.012  1.00  0.00     0.170 HD
ENDROOT
BRANCH   1  13
HETATM   13  C   UNL     1      42.673 -11.678   6.290  1.00  0.00     0.254 C 
BRANCH  13  14
HETATM   14  O   UNL     1      43.973 -11.088   6.308  1.00  0.00    -0.344 OA
BRANCH  14  15
HETATM   15  C   UNL     1      44.364 -10.620   7.534  1.00  0.00     0.071 A 
HETATM   16  C   UNL     1      45.636 -10.051   7.586  1.00  0.00     0.037 A 
HETATM   17  C   UNL     1      46.119  -9.526   8.782  1.00  0.00     0.005 A 
HETATM   18  C   UNL     1      45.315  -9.550   9.922  1.00  0.00     0.037 A 
HETATM   19  C   UNL     1      44.027 -10.089   9.872  1.00  0.00     0.070 A 
HETATM   20  C   UNL     1      43.552 -10.628   8.673  1.00  0.00     0.073 A 
BRANCH  19  21
HETATM   21  O   UNL     1      43.338 -10.025  11.053  1.00  0.00    -0.356 OA
HETATM   22  C   UNL     1      41.985  -9.595  10.988  1.00  0.00     0.210 C 
ENDBRANCH  19  21
ENDBRANCH  14  15
ENDBRANCH  13  14
ENDBRANCH   1  13
BRANCH   4  23
HETATM   23  O   UNL     1      43.079 -14.558   2.238  1.00  0.00    -0.354 OA
HETATM   24  C   UNL     1      41.884 -14.589   1.471  1.00  0.00     0.210 C 
ENDBRANCH   4  23
BRANCH   6  25
HETATM   25  C   UNL     1      43.760 -19.158   3.879  1.00  0.00     0.010 A 
HETATM   26  C   UNL     1      43.664 -19.922   2.691  1.00  0.00     0.152 A 
HETATM   27  N   UNL     1      43.948 -21.213   2.879  1.00  0.00    -0.187 NA
HETATM   28  N   UNL     1      44.231 -21.285   4.188  1.00  0.00    -0.289 N 
HETATM   29  H   UNL     1      44.484 -22.188   4.578  1.00  0.00     0.188 HD
HETATM   30  C   UNL     1      44.131 -20.084   4.832  1.00  0.00     0.123 A 
ENDBRANCH   6  25
TORSDOF 6
ENDMDL
MODEL 2
REMARK VINA RESULT:      -8.1      1.258      2.935
REMARK  6 active torsions:
REMARK  status: ('A' for Active; 'I' for Inactive)
REMARK    1  A    between atoms: O_2  and  C_3 
REMARK    2  A    between atoms: C_7  and  O_8 
REMARK    3  A    between atoms: O_8  and  C_9 
REMARK    4  A    between atoms: C_9  and  C_10 
REMARK    5  A    between atoms: C_13  and  O_14 
REMARK    6  A    between atoms: C_17  and  C_23 
ROOT
HETATM    1  C   UNL     1      42.465 -12.986   4.361  1.00  0.00     0.132 A 
HETATM    2  N   UNL     1      42.354 -13.889   5.279  1.00  0.00    -0.229 NA
HETATM    3  C   UNL     1      42.707 -15.220   4.964  1.00  0.00     0.108 A 
HETATM    4  C   UNL     1      42.636 -16.223   5.949  1.00  0.00     0.098 A 
HETATM    5  C   UNL     1      42.963 -17.550   5.625  1.00  0.00     0.051 A 
HETATM    6  C   UNL     1      43.380 -17.902   4.329  1.00  0.00    -0.019 A 
HETATM    7  C   UNL     1      43.469 -16.901   3.359  1.00  0.00     0.032 A 
HETATM    8  C   UNL     1      43.138 -15.580   3.683  1.00  0.00     0.064 A 
HETATM    9  C   UNL     1      43.247 -14.516   2.671  1.00  0.00     0.259 A 
HETATM   10  O   UNL     1      43.639 -14.738   1.532  1.00  0.00    -0.267 OA
HETATM   11  N   UNL     1      42.889 -13.263   3.088  1.00  0.00    -0.309 N 
HETATM   12  H   UNL     1      43.013 -12.510   2.423  1.00  0.00     0.170 HD
ENDROOT
BRANCH   1  13
HETATM   13  C   UNL     1      42.082 -11.543   4.628  1.00  0.00     0.254 C 
BRANCH  13  14
HETATM   14  O   UNL     1      43.246 -10.875   5.115  1.00  0.00    -0.344 OA
BRANCH  14  15
HETATM   15  C   UNL     1      43.152 -10.450   6.413  1.00  0.00     0.071 A 
HETATM   16  C   UNL     1      42.119  -9.553   6.682  1.00  0.00     0.037 A 
HETATM   17  C   UNL     1      41.926  -9.078   7.977  1.00  0.00     0.005 A 
HETATM   18  C   UNL     1      42.754  -9.521   9.007  1.00  0.00     0.037 A 
HETATM   19  C   UNL     1      43.771 -10.446   8.753  1.00  0.00     0.070 A 
HETATM   20  C   UNL     1      43.972 -10.908   7.450  1.00  0.00     0.073 A 
BRANCH  19  21
HETATM   21  O   UNL     1      44.491 -10.815   9.857  1.00  0.00    -0.356 OA
HETATM   22  C   UNL     1      43.863 -10.651  11.122  1.00  0.00     0.210 C 
ENDBRANCH  19  21
ENDBRANCH  14  15
ENDBRANCH  13  14
ENDBRANCH   1  13
BRANCH   4  23
HETATM   23  O   UNL     1      42.216 -15.818   7.193  1.00  0.00    -0.354 OA
HETATM   24  C   UNL     1      43.193 -15.763   8.223  1.00  0.00     0.210 C 
ENDBRANCH   4  23
BRANCH   6  25
HETATM   25  C   UNL     1      43.699 -19.286   4.017  1.00  0.00     0.010 A 
HETATM   26  C   UNL     1      43.678 -19.989   2.787  1.00  0.00     0.152 A 
HETATM   27  N   UNL     1      44.034 -21.269   2.914  1.00  0.00    -0.187 NA
HETATM   28  N   UNL     1      44.290 -21.395   4.224  1.00  0.00    -0.289 N 
HETATM   29  H   UNL     1      44.588 -22.302   4.572  1.00  0.00     0.188 HD
HETATM   30  C   UNL     1      44.102 -20.240   4.928  1.00  0.00     0.123 A 
ENDBRANCH   6  25
TORSDOF 6
ENDMDL
MODEL 3
REMARK VINA RESULT:      -7.8      5.152      9.456
REMARK  6 active torsions:
REMARK  status: ('A' for Active; 'I' for Inactive)
REMARK    1  A    between atoms: O_2  and  C_3 
REMARK    2  A    between atoms: C_7  and  O_8 
REMARK    3  A    between atoms: O_8  and  C_9 
REMARK    4  A    between atoms: C_9  and  C_10 
REMARK    5  A    between atoms: C_13  and  O_14 
REMARK    6  A    between atoms: C_17  and  C_23 
ROOT
HETATM    1  C   UNL     1      40.444 -14.523   0.899  1.00  0.00     0.132 A 
HETATM    2  N   UNL     1      40.193 -14.453  -0.367  1.00  0.00    -0.229 NA
HETATM    3  C   UNL     1      40.428 -13.232  -1.037  1.00  0.00     0.108 A 
HETATM    4  C   UNL     1      40.203 -13.130  -2.422  1.00  0.00     0.098 A 
HETATM    5  C   UNL     1      40.413 -11.907  -3.079  1.00  0.00     0.051 A 
HETATM    6  C   UNL     1      40.866 -10.773  -2.382  1.00  0.00    -0.019 A 
HETATM    7  C   UNL     1      41.109 -10.883  -1.011  1.00  0.00     0.032 A 
HETATM    8  C   UNL     1      40.893 -12.102  -0.357  1.00  0.00     0.064 A 
HETATM    9  C   UNL     1      41.164 -12.231   1.085  1.00  0.00     0.259 A 
HETATM   10  O   UNL     1      41.596 -11.300   1.753  1.00  0.00    -0.267 OA
HETATM   11  N   UNL     1      40.910 -13.461   1.628  1.00  0.00    -0.309 N 
HETATM   12  H   UNL     1      41.146 -13.584   2.604  1.00  0.00     0.170 HD
ENDROOT
BRANCH   1  13
HETATM   13  C   UNL     1      40.192 -15.799   1.680  1.00  0.00     0.254 C 
BRANCH  13  14
HETATM   14  O   UNL     1      40.768 -15.628   2.975  1.00  0.00    -0.344 OA
BRANCH  14  15
HETATM   15  C   UNL     1      41.777 -16.507   3.265  1.00  0.00     0.071 A 
HETATM   16  C   UNL     1      42.145 -17.367   2.231  1.00  0.00     0.037 A 
HETATM   17  C   UNL     1      43.175 -18.284   2.419  1.00  0.00     0.005 A 
HETATM   18  C   UNL     1      43.853 -18.323   3.637  1.00  0.00     0.037 A 
HETATM   19  C   UNL     1      43.513 -17.444   4.668  1.00  0.00     0.070 A 
HETATM   20  C   UNL     1      42.467 -16.534   4.481  1.00  0.00     0.073 A 
BRANCH  19  21
HETATM   21  O   UNL     1      44.273 -17.572   5.799  1.00  0.00    -0.356 OA
HETATM   22  C   UNL     1      44.600 -16.376   6.495  1.00  0.00     0.210 C 
ENDBRANCH  19  21
ENDBRANCH  14  15
ENDBRANCH  13  14
ENDBRANCH   1  13
BRANCH   4  23
HETATM   23  O   UNL     1      39.755 -14.269  -3.047  1.00  0.00    -0.354 OA
HETATM   24  C   UNL     1      38.376 -14.326  -3.383  1.00  0.00     0.210 C 
ENDBRANCH   4  23
BRANCH   6  25
HETATM   25  C   UNL     1      41.063  -9.515  -3.084  1.00  0.00     0.010 A 
HETATM   26  C   UNL     1      41.700  -8.316  -2.680  1.00  0.00     0.152 A 
HETATM   27  N   UNL     1      41.666  -7.367  -3.619  1.00  0.00    -0.187 NA
HETATM   28  N   UNL     1      41.011  -7.952  -4.632  1.00  0.00    -0.289 N 
HETATM   29  H   UNL     1      40.859  -7.416  -5.481  1.00  0.00     0.188 HD
HETATM   30  C   UNL     1      40.626  -9.234  -4.362  1.00  0.00     0.123 A 
ENDBRANCH   6  25
TORSDOF 6
ENDMDL
MODEL 4
REMARK VINA RESULT:      -7.7      1.416      2.007
REMARK  6 active torsions:
REMARK  status: ('A' for Active; 'I' for Inactive)
REMARK    1  A    between atoms: O_2  and  C_3 
REMARK    2  A    between atoms: C_7  and  O_8 
REMARK    3  A    between atoms: O_8  and  C_9 
REMARK    4  A    between atoms: C_9  and  C_10 
REMARK    5  A    between atoms: C_13  and  O_14 
REMARK    6  A    between atoms: C_17  and  C_23 
ROOT
HETATM    1  C   UNL     1      42.871 -12.893   4.878  1.00  0.00     0.132 A 
HETATM    2  N   UNL     1      42.755 -13.479   3.732  1.00  0.00    -0.229 NA
HETATM    3  C   UNL     1      42.969 -14.873   3.660  1.00  0.00     0.108 A 
HETATM    4  C   UNL     1      42.813 -15.550   2.436  1.00  0.00     0.098 A 
HETATM    5  C   UNL     1      43.052 -16.932   2.363  1.00  0.00     0.051 A 
HETATM    6  C   UNL     1      43.430 -17.667   3.500  1.00  0.00    -0.019 A 
HETATM    7  C   UNL     1      43.563 -16.996   4.718  1.00  0.00     0.032 A 
HETATM    8  C   UNL     1      43.330 -15.618   4.787  1.00  0.00     0.064 A 
HETATM    9  C   UNL     1      43.451 -14.906   6.070  1.00  0.00     0.259 A 
HETATM   10  O   UNL     1      43.739 -15.484   7.111  1.00  0.00    -0.267 OA
HETATM   11  N   UNL     1      43.213 -13.559   6.025  1.00  0.00    -0.309 N 
HETATM   12  H   UNL     1      43.234 -13.065   6.908  1.00  0.00     0.170 HD
ENDROOT
BRANCH   1  13
HETATM   13  C   UNL     1      42.677 -11.395   5.019  1.00  0.00     0.254 C 
BRANCH  13  14
HETATM   14  O   UNL     1      41.520 -11.189   5.830  1.00  0.00    -0.344 OA
BRANCH  14  15
HETATM   15  C   UNL     1      41.720 -10.354   6.896  1.00  0.00     0.071 A 
HETATM   16  C   UNL     1      40.574  -9.752   7.414  1.00  0.00     0.037 A 
HETATM   17  C   UNL     1      40.667  -8.901   8.513  1.00  0.00     0.005 A 
HETATM   18  C   UNL     1      41.908  -8.674   9.108  1.00  0.00     0.037 A 
HETATM   19  C   UNL     1      43.057  -9.299   8.616  1.00  0.00     0.070 A 
HETATM   20  C   UNL     1      42.961 -10.140   7.503  1.00  0.00     0.073 A 
BRANCH  19  21
HETATM   21  O   UNL     1      44.202  -9.009   9.308  1.00  0.00    -0.356 OA
HETATM   22  C   UNL     1      44.201  -9.288  10.703  1.00  0.00     0.210 C 
ENDBRANCH  19  21
ENDBRANCH  14  15
ENDBRANCH  13  14
ENDBRANCH   1  13
BRANCH   4  23
HETATM   23  O   UNL     1      42.449 -14.777   1.360  1.00  0.00    -0.354 OA
HETATM   24  C   UNL     1      41.124 -14.927   0.870  1.00  0.00     0.210 C 
ENDBRANCH   4  23
BRANCH   6  25
HETATM   25  C   UNL     1      43.684 -19.095   3.394  1.00  0.00     0.010 A 
HETATM   26  C   UNL     1      43.616 -19.971   2.282  1.00  0.00     0.152 A 
HETATM   27  N   UNL     1      43.917 -21.233   2.595  1.00  0.00    -0.187 NA
HETATM   28  N   UNL     1      44.184 -21.175   3.909  1.00  0.00    -0.289 N 
HETATM   29  H   UNL     1      44.446 -22.033   4.385  1.00  0.00     0.188 HD
HETATM   30  C   UNL     1      44.056 -19.921   4.434  1.00  0.00     0.123 A 
ENDBRANCH   6  25
TORSDOF 6
ENDMDL
MODEL 5
REMARK VINA RESULT:      -7.6      5.163      9.824
REMARK  6 active torsions:
REMARK  status: ('A' for Active; 'I' for Inactive)
REMARK    1  A    between atoms: O_2  and  C_3 
REMARK    2  A    between atoms: C_7  and  O_8 
REMARK    3  A    between atoms: O_8  and  C_9 
REMARK    4  A    between atoms: C_9  and  C_10 
REMARK    5  A    between atoms: C_13  and  O_14 
REMARK    6  A    between atoms: C_17  and  C_23 
ROOT
HETATM    1  C   UNL     1      40.301 -14.374   0.347  1.00  0.00     0.132 A 
HETATM    2  N   UNL     1      40.656 -13.311   0.991  1.00  0.00    -0.229 NA
HETATM    3  C   UNL     1      40.984 -12.152   0.253  1.00  0.00     0.108 A 
HETATM    4  C   UNL     1      41.338 -10.965   0.922  1.00  0.00     0.098 A 
HETATM    5  C   UNL     1      41.689  -9.822   0.185  1.00  0.00     0.051 A 
HETATM    6  C   UNL     1      41.677  -9.830  -1.221  1.00  0.00    -0.019 A 
HETATM    7  C   UNL     1      41.305 -11.003  -1.882  1.00  0.00     0.032 A 
HETATM    8  C   UNL     1      40.962 -12.143  -1.145  1.00  0.00     0.064 A 
HETATM    9  C   UNL     1      40.551 -13.379  -1.833  1.00  0.00     0.259 A 
HETATM   10  O   UNL     1      40.480 -13.451  -3.054  1.00  0.00    -0.267 OA
HETATM   11  N   UNL     1      40.247 -14.436  -1.020  1.00  0.00    -0.309 N 
HETATM   12  H   UNL     1      39.907 -15.274  -1.474  1.00  0.00     0.170 HD
ENDROOT
BRANCH   1  13
HETATM   13  C   UNL     1      39.958 -15.658   1.079  1.00  0.00     0.254 C 
BRANCH  13  14
HETATM   14  O   UNL     1      40.108 -15.407   2.476  1.00  0.00    -0.344 OA
BRANCH  14  15
HETATM   15  C   UNL     1      41.136 -16.093   3.065  1.00  0.00     0.071 A 
HETATM   16  C   UNL     1      41.252 -15.938   4.446  1.00  0.00     0.037 A 
HETATM   17  C   UNL     1      42.253 -16.610   5.143  1.00  0.00     0.005 A 
HETATM   18  C   UNL     1      43.122 -17.459   4.458  1.00  0.00     0.037 A 
HETATM   19  C   UNL     1      42.992 -17.646   3.080  1.00  0.00     0.070 A 
HETATM   20  C   UNL     1      41.997 -16.957   2.381  1.00  0.00     0.073 A 
BRANCH  19  21
HETATM   21  O   UNL     1      43.893 -18.524   2.539  1.00  0.00    -0.356 OA
HETATM   22  C   UNL     1      43.429 -19.842   2.272  1.00  0.00     0.210 C 
ENDBRANCH  19  21
ENDBRANCH  14  15
ENDBRANCH  13  14
ENDBRANCH   1  13
BRANCH   4  23
HETATM   23  O   UNL     1      41.337 -11.022   2.295  1.00  0.00    -0.354 OA
HETATM   24  C   UNL     1      42.600 -11.055   2.945  1.00  0.00     0.210 C 
ENDBRANCH   4  23
BRANCH   6  25
HETATM   25  C   UNL     1      42.058  -8.637  -1.961  1.00  0.00     0.010 A 
HETATM   26  C   UNL     1      41.610  -8.135  -3.208  1.00  0.00     0.152 A 
HETATM   27  N   UNL     1      42.216  -6.998  -3.558  1.00  0.00    -0.187 NA
HETATM   28  N   UNL     1      43.052  -6.761  -2.537  1.00  0.00    -0.289 N 
HETATM   29  H   UNL     1      43.634  -5.929  -2.574  1.00  0.00     0.188 HD
HETATM   30  C   UNL     1      42.998  -7.711  -1.558  1.00  0.00     0.123 A 
ENDBRANCH   6  25
TORSDOF 6
ENDMDL
MODEL 6
REMARK VINA RESULT:      -7.5      2.337      3.923
REMARK  6 active torsions:
REMARK  status: ('A' for Active; 'I' for Inactive)
REMARK    1  A    between atoms: O_2  and  C_3 
REMARK    2  A    between atoms: C_7  and  O_8 
REMARK    3  A    between atoms: O_8  and  C_9 
REMARK    4  A    between atoms: C_9  and  C_10 
REMARK    5  A    between atoms: C_13  and  O_14 
REMARK    6  A    between atoms: C_17  and  C_23 
ROOT
HETATM    1  C   UNL     1      40.537 -13.434   3.713  1.00  0.00     0.132 A 
HETATM    2  N   UNL     1      41.461 -13.946   4.457  1.00  0.00    -0.229 NA
HETATM    3  C   UNL     1      41.960 -15.227   4.130  1.00  0.00     0.108 A 
HETATM    4  C   UNL     1      42.993 -15.800   4.894  1.00  0.00     0.098 A 
HETATM    5  C   UNL     1      43.468 -17.084   4.581  1.00  0.00     0.051 A 
HETATM    6  C   UNL     1      42.943 -17.812   3.500  1.00  0.00    -0.019 A 
HETATM    7  C   UNL     1      41.932 -17.232   2.730  1.00  0.00     0.032 A 
HETATM    8  C   UNL     1      41.456 -15.954   3.047  1.00  0.00     0.064 A 
HETATM    9  C   UNL     1      40.403 -15.328   2.230  1.00  0.00     0.259 A 
HETATM   10  O   UNL     1      39.922 -15.884   1.250  1.00  0.00    -0.267 OA
HETATM   11  N   UNL     1      40.002 -14.083   2.632  1.00  0.00    -0.309 N 
HETATM   12  H   UNL     1      39.322 -13.615   2.048  1.00  0.00     0.170 HD
ENDROOT
BRANCH   1  13
HETATM   13  C   UNL     1      39.943 -12.073   4.024  1.00  0.00     0.254 C 
BRANCH  13  14
HETATM   14  O   UNL     1      39.474 -12.108   5.371  1.00  0.00    -0.344 OA
BRANCH  14  15
HETATM   15  C   UNL     1      39.998 -11.133   6.178  1.00  0.00     0.071 A 
HETATM   16  C   UNL     1      39.070 -10.393   6.911  1.00  0.00     0.037 A 
HETATM   17  C   UNL     1      39.503  -9.392   7.777  1.00  0.00     0.005 A 
HETATM   18  C   UNL     1      40.868  -9.149   7.926  1.00  0.00     0.037 A 
HETATM   19  C   UNL     1      41.806  -9.908   7.220  1.00  0.00     0.070 A 
HETATM   20  C   UNL     1      41.367 -10.901   6.340  1.00  0.00     0.073 A 
BRANCH  19  21
HETATM   21  O   UNL     1      43.110  -9.583   7.479  1.00  0.00    -0.356 OA
HETATM   22  C   UNL     1      44.090 -10.575   7.201  1.00  0.00     0.210 C 
ENDBRANCH  19  21
ENDBRANCH  14  15
ENDBRANCH  13  14
ENDBRANCH   1  13
BRANCH   4  23
HETATM   23  O   UNL     1      43.461 -15.043   5.942  1.00  0.00    -0.354 OA
HETATM   24  C   UNL     1      43.174 -15.502   7.255  1.00  0.00     0.210 C 
ENDBRANCH   4  23
BRANCH   6  25
HETATM   25  C   UNL     1      43.444 -19.145   3.205  1.00  0.00     0.010 A 
HETATM   26  C   UNL     1      43.458 -19.886   1.998  1.00  0.00     0.152 A 
HETATM   27  N   UNL     1      44.004 -21.097   2.138  1.00  0.00    -0.187 NA
HETATM   28  N   UNL     1      44.347 -21.138   3.433  1.00  0.00    -0.289 N 
HETATM   29  H   UNL     1      44.794 -21.980   3.787  1.00  0.00     0.188 HD
HETATM   30  C   UNL     1      44.031 -19.999   4.116  1.00  0.00     0.123 A 
ENDBRANCH   6  25
TORSDOF 6
ENDMDL
MODEL 7
REMARK VINA RESULT:      -7.4      3.619      7.057
REMARK  6 active torsions:
REMARK  status: ('A' for Active; 'I' for Inactive)
REMARK    1  A    between atoms: O_2  and  C_3 
REMARK    2  A    between atoms: C_7  and  O_8 
REMARK    3  A    between atoms: O_8  and  C_9 
REMARK    4  A    between atoms: C_9  and  C_10 
REMARK    5  A    between atoms: C_13  and  O_14 
REMARK    6  A    between atoms: C_17  and  C_23 
ROOT
HETATM    1  C   UNL     1      40.178 -13.193   2.217  1.00  0.00     0.132 A 
HETATM    2  N   UNL     1      41.153 -13.465   3.020  1.00  0.00    -0.229 NA
HETATM    3  C   UNL     1      41.689 -14.773   3.016  1.00  0.00     0.108 A 
HETATM    4  C   UNL     1      42.776 -15.094   3.849  1.00  0.00     0.098 A 
HETATM    5  C   UNL     1      43.289 -16.401   3.861  1.00  0.00     0.051 A 
HETATM    6  C   UNL     1      42.747 -17.404   3.038  1.00  0.00    -0.019 A 
HETATM    7  C   UNL     1      41.681 -17.077   2.196  1.00  0.00     0.032 A 
HETATM    8  C   UNL     1      41.168 -15.774   2.191  1.00  0.00     0.064 A 
HETATM    9  C   UNL     1      40.056 -15.416   1.294  1.00  0.00     0.259 A 
HETATM   10  O   UNL     1      39.557 -16.224   0.521  1.00  0.00    -0.267 OA
HETATM   11  N   UNL     1      39.624 -14.120   1.375  1.00  0.00    -0.309 N 
HETATM   12  H   UNL     1      38.900 -13.842   0.724  1.00  0.00     0.170 HD
ENDROOT
BRANCH   1  13
HETATM   13  C   UNL     1      39.544 -11.816   2.189  1.00  0.00     0.254 C 
BRANCH  13  14
HETATM   14  O   UNL     1      40.568 -10.881   1.849  1.00  0.00    -0.344 OA
BRANCH  14  15
HETATM   15  C   UNL     1      40.639 -10.581   0.515  1.00  0.00     0.071 A 
HETATM   16  C   UNL     1      41.672  -9.720   0.144  1.00  0.00     0.037 A 
HETATM   17  C   UNL     1      41.843  -9.369  -1.193  1.00  0.00     0.005 A 
HETATM   18  C   UNL     1      40.993  -9.902  -2.161  1.00  0.00     0.037 A 
HETATM   19  C   UNL     1      39.976 -10.791  -1.803  1.00  0.00     0.070 A 
HETATM   20  C   UNL     1      39.797 -11.128  -0.458  1.00  0.00     0.073 A 
BRANCH  19  21
HETATM   21  O   UNL     1      39.233 -11.257  -2.854  1.00  0.00    -0.356 OA
HETATM   22  C   UNL     1      38.255 -12.248  -2.563  1.00  0.00     0.210 C 
ENDBRANCH  19  21
ENDBRANCH  14  15
ENDBRANCH  13  14
ENDBRANCH   1  13
BRANCH   4  23
HETATM   23  O   UNL     1      43.258 -14.074   4.634  1.00  0.00    -0.354 OA
HETATM   24  C   UNL     1      43.246 -14.276   6.040  1.00  0.00     0.210 C 
ENDBRANCH   4  23
BRANCH   6  25
HETATM   25  C   UNL     1      43.288 -18.754   3.079  1.00  0.00     0.010 A 
HETATM   26  C   UNL     1      43.265 -19.793   2.117  1.00  0.00     0.152 A 
HETATM   27  N   UNL     1      43.871 -20.905   2.539  1.00  0.00    -0.187 NA
HETATM   28  N   UNL     1      44.290 -20.586   3.772  1.00  0.00    -0.289 N 
HETATM   29  H   UNL     1      44.792 -21.288   4.308  1.00  0.00     0.188 HD
HETATM   30  C   UNL     1      43.964 -19.313   4.144  1.00  0.00     0.123 A 
ENDBRANCH   6  25
TORSDOF 6
ENDMDL
MODEL 8
REMARK VINA RESULT:      -7.3      3.895      7.145
REMARK  6 active torsions:
REMARK  status: ('A' for Active; 'I' for Inactive)
REMARK    1  A    between atoms: O_2  and  C_3 
REMARK    2  A    between atoms: C_7  and  O_8 
REMARK    3  A    between atoms: O_8  and  C_9 
REMARK    4  A    between atoms: C_9  and  C_10 
REMARK    5  A    between atoms: C_13  and  O_14 
REMARK    6  A    between atoms: C_17  and  C_23 
ROOT
HETATM    1  C   UNL     1      42.540 -12.725   3.600  1.00  0.00     0.132 A 
HETATM    2  N   UNL     1      41.957 -13.822   3.241  1.00  0.00    -0.229 NA
HETATM    3  C   UNL     1      41.276 -13.851   2.003  1.00  0.00     0.108 A 
HETATM    4  C   UNL     1      40.663 -15.038   1.561  1.00  0.00     0.098 A 
HETATM    5  C   UNL     1      39.966 -15.057   0.343  1.00  0.00     0.051 A 
HETATM    6  C   UNL     1      39.878 -13.909  -0.464  1.00  0.00    -0.019 A 
HETATM    7  C   UNL     1      40.506 -12.738  -0.033  1.00  0.00     0.032 A 
HETATM    8  C   UNL     1      41.196 -12.720   1.185  1.00  0.00     0.064 A 
HETATM    9  C   UNL     1      41.875 -11.495   1.638  1.00  0.00     0.259 A 
HETATM   10  O   UNL     1      41.876 -10.467   0.972  1.00  0.00    -0.267 OA
HETATM   11  N   UNL     1      42.511 -11.582   2.846  1.00  0.00    -0.309 N 
HETATM   12  H   UNL     1      43.032 -10.768   3.145  1.00  0.00     0.170 HD
ENDROOT
BRANCH   1  13
HETATM   13  C   UNL     1      43.268 -12.621   4.927  1.00  0.00     0.254 C 
BRANCH  13  14
HETATM   14  O   UNL     1      42.500 -13.337   5.894  1.00  0.00    -0.344 OA
BRANCH  14  15
HETATM   15  C   UNL     1      43.005 -14.568   6.218  1.00  0.00     0.071 A 
HETATM   16  C   UNL     1      42.923 -14.918   7.565  1.00  0.00     0.037 A 
HETATM   17  C   UNL     1      43.390 -16.158   7.994  1.00  0.00     0.005 A 
HETATM   18  C   UNL     1      43.917 -17.057   7.067  1.00  0.00     0.037 A 
HETATM   19  C   UNL     1      43.974 -16.727   5.711  1.00  0.00     0.070 A 
HETATM   20  C   UNL     1      43.518 -15.475   5.286  1.00  0.00     0.073 A 
BRANCH  19  21
HETATM   21  O   UNL     1      44.490 -17.709   4.909  1.00  0.00    -0.356 OA
HETATM   22  C   UNL     1      44.033 -19.036   5.138  1.00  0.00     0.210 C 
ENDBRANCH  19  21
ENDBRANCH  14  15
ENDBRANCH  13  14
ENDBRANCH   1  13
BRANCH   4  23
HETATM   23  O   UNL     1      40.777 -16.124   2.396  1.00  0.00    -0.354 OA
HETATM   24  C   UNL     1      41.907 -16.967   2.216  1.00  0.00     0.210 C 
ENDBRANCH   4  23
BRANCH   6  25
HETATM   25  C   UNL     1      39.138 -13.951  -1.716  1.00  0.00     0.010 A 
HETATM   26  C   UNL     1      39.097 -14.931  -2.738  1.00  0.00     0.152 A 
HETATM   27  N   UNL     1      38.292 -14.595  -3.748  1.00  0.00    -0.187 NA
HETATM   28  N   UNL     1      37.808 -13.400  -3.379  1.00  0.00    -0.289 N 
HETATM   29  H   UNL     1      37.155 -12.932  -4.001  1.00  0.00     0.188 HD
HETATM   30  C   UNL     1      38.284 -12.969  -2.174  1.00  0.00     0.123 A 
ENDBRANCH   6  25
TORSDOF 6
ENDMDL
MODEL 9
REMARK VINA RESULT:      -7.3      4.711      9.164
REMARK  6 active torsions:
REMARK  status: ('A' for Active; 'I' for Inactive)
REMARK    1  A    between atoms: O_2  and  C_3 
REMARK    2  A    between atoms: C_7  and  O_8 
REMARK    3  A    between atoms: O_8  and  C_9 
REMARK    4  A    between atoms: C_9  and  C_10 
REMARK    5  A    between atoms: C_13  and  O_14 
REMARK    6  A    between atoms: C_17  and  C_23 
ROOT
HETATM    1  C   UNL     1      40.211 -14.506   1.358  1.00  0.00     0.132 A 
HETATM    2  N   UNL     1      40.672 -13.369   1.765  1.00  0.00    -0.229 NA
HETATM    3  C   UNL     1      40.878 -12.343   0.816  1.00  0.00     0.108 A 
HETATM    4  C   UNL     1      41.340 -11.080   1.229  1.00  0.00     0.098 A 
HETATM    5  C   UNL     1      41.569 -10.071   0.279  1.00  0.00     0.051 A 
HETATM    6  C   UNL     1      41.326 -10.290  -1.089  1.00  0.00    -0.019 A 
HETATM    7  C   UNL     1      40.846 -11.538  -1.493  1.00  0.00     0.032 A 
HETATM    8  C   UNL     1      40.625 -12.544  -0.545  1.00  0.00     0.064 A 
HETATM    9  C   UNL     1      40.103 -13.857  -0.960  1.00  0.00     0.259 A 
HETATM   10  O   UNL     1      39.832 -14.110  -2.128  1.00  0.00    -0.267 OA
HETATM   11  N   UNL     1      39.933 -14.771   0.043  1.00  0.00    -0.309 N 
HETATM   12  H   UNL     1      39.520 -15.658  -0.216  1.00  0.00     0.170 HD
ENDROOT
BRANCH   1  13
HETATM   13  C   UNL     1      39.989 -15.655   2.323  1.00  0.00     0.254 C 
BRANCH  13  14
HETATM   14  O   UNL     1      40.885 -16.703   1.953  1.00  0.00    -0.344 OA
BRANCH  14  15
HETATM   15  C   UNL     1      41.853 -16.973   2.883  1.00  0.00     0.071 A 
HETATM   16  C   UNL     1      42.860 -17.845   2.471  1.00  0.00     0.037 A 
HETATM   17  C   UNL     1      43.903 -18.167   3.336  1.00  0.00     0.005 A 
HETATM   18  C   UNL     1      43.948 -17.595   4.607  1.00  0.00     0.037 A 
HETATM   19  C   UNL     1      42.961 -16.695   5.017  1.00  0.00     0.070 A 
HETATM   20  C   UNL     1      41.908 -16.386   4.151  1.00  0.00     0.073 A 
BRANCH  19  21
HETATM   21  O   UNL     1      43.141 -16.189   6.276  1.00  0.00    -0.356 OA
HETATM   22  C   UNL     1      41.975 -16.004   7.069  1.00  0.00     0.210 C 
ENDBRANCH  19  21
ENDBRANCH  14  15
ENDBRANCH  13  14
ENDBRANCH   1  13
BRANCH   4  23
HETATM   23  O   UNL     1      41.565 -10.930   2.576  1.00  0.00    -0.354 OA
HETATM   24  C   UNL     1      42.880 -11.187   3.049  1.00  0.00     0.210 C 
ENDBRANCH   4  23
BRANCH   6  25
HETATM   25  C   UNL     1      41.584  -9.232  -2.054  1.00  0.00     0.010 A 
HETATM   26  C   UNL     1      42.400  -8.078  -1.970  1.00  0.00     0.152 A 
HETATM   27  N   UNL     1      42.365  -7.335  -3.079  1.00  0.00    -0.187 NA
HETATM   28  N   UNL     1      41.529  -8.010  -3.882  1.00  0.00    -0.289 N 
HETATM   29  H   UNL     1      41.340  -7.633  -4.806  1.00  0.00     0.188 HD
HETATM   30  C   UNL     1      41.033  -9.149  -3.316  1.00  0.00     0.123 A 
ENDBRANCH   6  25
TORSDOF 6
ENDMDL
MODEL 10
REMARK VINA RESULT:      -7.2      5.640     11.743
REMARK  6 active torsions:
REMARK  status: ('A' for Active; 'I' for Inactive)
REMARK    1  A    between atoms: O_2  and  C_3 
REMARK    2  A    between atoms: C_7  and  O_8 
REMARK    3  A    between atoms: O_8  and  C_9 
REMARK    4  A    between atoms: C_9  and  C_10 
REMARK    5  A    between atoms: C_13  and  O_14 
REMARK    6  A    between atoms: C_17  and  C_23 
ROOT
HETATM    1  C   UNL     1      41.450  -9.046  10.805  1.00  0.00     0.132 A 
HETATM    2  N   UNL     1      41.876  -7.968  11.378  1.00  0.00    -0.229 NA
HETATM    3  C   UNL     1      41.711  -7.835  12.775  1.00  0.00     0.108 A 
HETATM    4  C   UNL     1      42.197  -6.693  13.438  1.00  0.00     0.098 A 
HETATM    5  C   UNL     1      42.008  -6.552  14.823  1.00  0.00     0.051 A 
HETATM    6  C   UNL     1      41.354  -7.544  15.573  1.00  0.00    -0.019 A 
HETATM    7  C   UNL     1      40.891  -8.686  14.916  1.00  0.00     0.032 A 
HETATM    8  C   UNL     1      41.075  -8.822  13.535  1.00  0.00     0.064 A 
HETATM    9  C   UNL     1      40.607 -10.031  12.836  1.00  0.00     0.259 A 
HETATM   10  O   UNL     1      40.062 -10.954  13.428  1.00  0.00    -0.267 OA
HETATM   11  N   UNL     1      40.827 -10.058  11.486  1.00  0.00    -0.309 N 
HETATM   12  H   UNL     1      40.564 -10.906  11.001  1.00  0.00     0.170 HD
ENDROOT
BRANCH   1  13
HETATM   13  C   UNL     1      41.577  -9.241   9.306  1.00  0.00     0.254 C 
BRANCH  13  14
HETATM   14  O   UNL     1      42.662  -8.430   8.859  1.00  0.00    -0.344 OA
BRANCH  14  15
HETATM   15  C   UNL     1      43.734  -9.134   8.379  1.00  0.00     0.071 A 
HETATM   16  C   UNL     1      44.985  -8.567   8.616  1.00  0.00     0.037 A 
HETATM   17  C   UNL     1      46.140  -9.216   8.186  1.00  0.00     0.005 A 
HETATM   18  C   UNL     1      46.040 -10.447   7.538  1.00  0.00     0.037 A 
HETATM   19  C   UNL     1      44.792 -11.039   7.325  1.00  0.00     0.070 A 
HETATM   20  C   UNL     1      43.635 -10.377   7.745  1.00  0.00     0.073 A 
BRANCH  19  21
HETATM   21  O   UNL     1      44.840 -12.257   6.703  1.00  0.00    -0.356 OA
HETATM   22  C   UNL     1      43.770 -13.156   6.961  1.00  0.00     0.210 C 
ENDBRANCH  19  21
ENDBRANCH  14  15
ENDBRANCH  13  14
ENDBRANCH   1  13
BRANCH   4  23
HETATM   23  O   UNL     1      42.822  -5.756  12.650  1.00  0.00    -0.354 OA
HETATM   24  C   UNL     1      42.262  -4.451  12.625  1.00  0.00     0.210 C 
ENDBRANCH   4  23
BRANCH   6  25
HETATM   25  C   UNL     1      41.159  -7.367  17.004  1.00  0.00     0.010 A 
HETATM   26  C   UNL     1      39.979  -7.362  17.787  1.00  0.00     0.152 A 
HETATM   27  N   UNL     1      40.217  -7.156  19.085  1.00  0.00    -0.187 NA
HETATM   28  N   UNL     1      41.551  -7.032  19.143  1.00  0.00    -0.289 N 
HETATM   29  H   UNL     1      41.981  -6.867  20.049  1.00  0.00     0.188 HD
HETATM   30  C   UNL     1      42.161  -7.147  17.927  1.00  0.00     0.123 A 
ENDBRANCH   6  25
TORSDOF 6
ENDMDL
