MODEL 1
REMARK VINA RESULT:      -8.4      0.000      0.000
REMARK  3 active torsions:
REMARK  status: ('A' for Active; 'I' for Inactive)
REMARK    1  A    between atoms: C_9  and  C_10 
REMARK    2  A    between atoms: C_16  and  C_17 
REMARK       I    between atoms: C_17  and  N_18 
REMARK    3  A    between atoms: N_18  and  C_19 
ROOT
HETATM    1  C   UNL     1      43.797 -14.095   6.607  1.00  0.00     0.070 C 
HETATM    2  C   UNL     1      42.626 -13.596   5.800  1.00  0.00     0.037 A 
HETATM    3  N   UNL     1      42.402 -12.223   5.846  1.00  0.00    -0.191 N 
HETATM    4  C   UNL     1      41.306 -11.641   5.317  1.00  0.00     0.735 A 
HETATM    5  N   UNL     1      40.417 -12.403   4.611  1.00  0.00    -0.091 N 
HETATM    6  N   UNL     1      39.335 -11.673   4.292  1.00  0.00     0.012 NA
HETATM    7  N   UNL     1      39.616 -10.450   4.731  1.00  0.00     0.033 NA
HETATM    8  N   UNL     1      40.839 -10.417   5.376  1.00  0.00     0.030 NA
HETATM    9  C   UNL     1      40.547 -13.836   4.388  1.00  0.00     0.216 A 
HETATM   10  C   UNL     1      41.775 -14.390   5.102  1.00  0.00     0.063 A 
HETATM   11  H   UNL     1      43.022 -11.662   6.424  1.00  0.00     0.184 HD
ENDROOT
BRANCH  10  12
HETATM   12  C   UNL     1      41.892 -15.867   5.011  1.00  0.00     0.256 C 
HETATM   13  N   UNL     1      42.801 -16.283   4.066  1.00  0.00    -0.323 N 
HETATM   14  H   UNL     1      43.233 -15.560   3.504  1.00  0.00     0.169 HD
HETATM   15  O   UNL     1      41.170 -16.554   5.722  1.00  0.00    -0.267 OA
BRANCH  13  16
HETATM   16  C   UNL     1      43.191 -17.606   3.775  1.00  0.00     0.035 A 
HETATM   17  C   UNL     1      43.902 -18.422   4.657  1.00  0.00     0.029 A 
HETATM   18  C   UNL     1      44.264 -19.721   4.285  1.00  0.00     0.002 A 
HETATM   19  C   UNL     1      43.927 -20.211   3.025  1.00  0.00     0.000 A 
HETATM   20  C   UNL     1      43.220 -19.405   2.138  1.00  0.00     0.002 A 
HETATM   21  C   UNL     1      42.849 -18.111   2.513  1.00  0.00     0.029 A 
ENDBRANCH  13  16
ENDBRANCH  10  12
BRANCH   9  22
HETATM   22  C   UNL     1      40.572 -14.100   2.887  1.00  0.00     0.064 A 
HETATM   23  N   UNL     1      41.263 -13.235   2.093  1.00  0.00    -0.263 NA
HETATM   24  C   UNL     1      41.249 -13.468   0.761  1.00  0.00     0.117 A 
HETATM   25  C   UNL     1      40.582 -14.526   0.169  1.00  0.00     0.019 A 
HETATM   26  C   UNL     1      39.883 -15.402   0.988  1.00  0.00     0.003 A 
HETATM   27  C   UNL     1      39.873 -15.190   2.363  1.00  0.00     0.030 A 
ENDBRANCH   9  22
TORSDOF 3
ENDMDL
MODEL 2
REMARK VINA RESULT:      -8.2      1.820      4.143
REMARK  3 active torsions:
REMARK  status: ('A' for Active; 'I' for Inactive)
REMARK    1  A    between atoms: C_9  and  C_10 
REMARK    2  A    between atoms: C_16  and  C_17 
REMARK       I    between atoms: C_17  and  N_18 
REMARK    3  A    between atoms: N_18  and  C_19 
ROOT
HETATM    1  C   UNL     1      39.716 -15.275  -0.267  1.00  0.00     0.070 C 
HETATM    2  C   UNL     1      40.331 -14.116   0.475  1.00  0.00     0.037 A 
HETATM    3  N   UNL     1      40.211 -12.873  -0.140  1.00  0.00    -0.191 N 
HETATM    4  C   UNL     1      40.843 -11.769   0.309  1.00  0.00     0.735 A 
HETATM    5  N   UNL     1      41.556 -11.832   1.474  1.00  0.00    -0.091 N 
HETATM    6  N   UNL     1      42.220 -10.680   1.671  1.00  0.00     0.012 NA
HETATM    7  N   UNL     1      41.835  -9.897   0.668  1.00  0.00     0.033 NA
HETATM    8  N   UNL     1      40.981 -10.565  -0.191  1.00  0.00     0.030 NA
HETATM    9  C   UNL     1      41.707 -13.027   2.291  1.00  0.00     0.216 A 
HETATM   10  C   UNL     1      41.020 -14.223   1.639  1.00  0.00     0.063 A 
HETATM   11  H   UNL     1      39.739 -12.835  -1.040  1.00  0.00     0.184 HD
ENDROOT
BRANCH  10  12
HETATM   12  C   UNL     1      41.245 -15.498   2.366  1.00  0.00     0.256 C 
HETATM   13  N   UNL     1      42.515 -16.000   2.203  1.00  0.00    -0.323 N 
HETATM   14  H   UNL     1      43.123 -15.497   1.568  1.00  0.00     0.169 HD
HETATM   15  O   UNL     1      40.309 -15.989   2.985  1.00  0.00    -0.267 OA
BRANCH  13  16
HETATM   16  C   UNL     1      43.066 -17.150   2.804  1.00  0.00     0.035 A 
HETATM   17  C   UNL     1      43.113 -18.403   2.190  1.00  0.00     0.029 A 
HETATM   18  C   UNL     1      43.664 -19.500   2.862  1.00  0.00     0.002 A 
HETATM   19  C   UNL     1      44.164 -19.355   4.154  1.00  0.00     0.000 A 
HETATM   20  C   UNL     1      44.121 -18.110   4.774  1.00  0.00     0.002 A 
HETATM   21  C   UNL     1      43.580 -17.011   4.100  1.00  0.00     0.029 A 
ENDBRANCH  13  16
ENDBRANCH  10  12
BRANCH   9  22
HETATM   22  C   UNL     1      41.180 -12.738   3.691  1.00  0.00     0.064 A 
HETATM   23  N   UNL     1      42.056 -12.791   4.732  1.00  0.00    -0.263 NA
HETATM   24  C   UNL     1      41.563 -12.562   5.971  1.00  0.00     0.117 A 
HETATM   25  C   UNL     1      40.236 -12.275   6.233  1.00  0.00     0.019 A 
HETATM   26  C   UNL     1      39.352 -12.222   5.164  1.00  0.00     0.003 A 
HETATM   27  C   UNL     1      39.824 -12.456   3.876  1.00  0.00     0.030 A 
ENDBRANCH   9  22
TORSDOF 3
ENDMDL
MODEL 3
REMARK VINA RESULT:      -8.2      1.659      3.876
REMARK  3 active torsions:
REMARK  status: ('A' for Active; 'I' for Inactive)
REMARK    1  A    between atoms: C_9  and  C_10 
REMARK    2  A    between atoms: C_16  and  C_17 
REMARK       I    between atoms: C_17  and  N_18 
REMARK    3  A    between atoms: N_18  and  C_19 
ROOT
HETATM    1  C   UNL     1      40.249 -15.013   0.675  1.00  0.00     0.070 C 
HETATM    2  C   UNL     1      40.749 -14.223   1.857  1.00  0.00     0.037 A 
HETATM    3  N   UNL     1      40.042 -13.061   2.150  1.00  0.00    -0.191 N 
HETATM    4  C   UNL     1      40.455 -12.163   3.067  1.00  0.00     0.735 A 
HETATM    5  N   UNL     1      41.560 -12.437   3.824  1.00  0.00    -0.091 N 
HETATM    6  N   UNL     1      41.887 -11.367   4.569  1.00  0.00     0.012 NA
HETATM    7  N   UNL     1      40.925 -10.483   4.323  1.00  0.00     0.033 NA
HETATM    8  N   UNL     1      40.029 -10.964   3.386  1.00  0.00     0.030 NA
HETATM    9  C   UNL     1      42.363 -13.647   3.712  1.00  0.00     0.216 A 
HETATM   10  C   UNL     1      41.846 -14.541   2.589  1.00  0.00     0.063 A 
HETATM   11  H   UNL     1      39.259 -12.820   1.547  1.00  0.00     0.184 HD
ENDROOT
BRANCH  10  12
HETATM   12  C   UNL     1      42.699 -15.732   2.348  1.00  0.00     0.256 C 
HETATM   13  N   UNL     1      42.373 -16.805   3.145  1.00  0.00    -0.323 N 
HETATM   14  H   UNL     1      41.651 -16.651   3.839  1.00  0.00     0.169 HD
HETATM   15  O   UNL     1      43.604 -15.645   1.527  1.00  0.00    -0.267 OA
BRANCH  13  16
HETATM   16  C   UNL     1      42.943 -18.094   3.123  1.00  0.00     0.035 A 
HETATM   17  C   UNL     1      42.776 -19.002   2.076  1.00  0.00     0.029 A 
HETATM   18  C   UNL     1      43.363 -20.271   2.138  1.00  0.00     0.002 A 
HETATM   19  C   UNL     1      44.112 -20.644   3.251  1.00  0.00     0.000 A 
HETATM   20  C   UNL     1      44.283 -19.747   4.301  1.00  0.00     0.002 A 
HETATM   21  C   UNL     1      43.705 -18.476   4.235  1.00  0.00     0.029 A 
ENDBRANCH  13  16
ENDBRANCH  10  12
BRANCH   9  22
HETATM   22  C   UNL     1      42.383 -14.352   5.063  1.00  0.00     0.064 A 
HETATM   23  N   UNL     1      41.251 -14.990   5.472  1.00  0.00    -0.263 NA
HETATM   24  C   UNL     1      41.277 -15.584   6.686  1.00  0.00     0.117 A 
HETATM   25  C   UNL     1      42.379 -15.582   7.523  1.00  0.00     0.019 A 
HETATM   26  C   UNL     1      43.527 -14.930   7.095  1.00  0.00     0.003 A 
HETATM   27  C   UNL     1      43.534 -14.305   5.852  1.00  0.00     0.030 A 
ENDBRANCH   9  22
TORSDOF 3
ENDMDL
MODEL 4
REMARK VINA RESULT:      -8.0      2.153      2.692
REMARK  3 active torsions:
REMARK  status: ('A' for Active; 'I' for Inactive)
REMARK    1  A    between atoms: C_9  and  C_10 
REMARK    2  A    between atoms: C_16  and  C_17 
REMARK       I    between atoms: C_17  and  N_18 
REMARK    3  A    between atoms: N_18  and  C_19 
ROOT
HETATM    1  C   UNL     1      44.202 -11.729   3.875  1.00  0.00     0.070 C 
HETATM    2  C   UNL     1      42.775 -11.814   3.399  1.00  0.00     0.037 A 
HETATM    3  N   UNL     1      41.990 -10.690   3.640  1.00  0.00    -0.191 N 
HETATM    4  C   UNL     1      40.659 -10.666   3.425  1.00  0.00     0.735 A 
HETATM    5  N   UNL     1      40.053 -11.748   2.850  1.00  0.00    -0.091 N 
HETATM    6  N   UNL     1      38.719 -11.586   2.852  1.00  0.00     0.012 NA
HETATM    7  N   UNL     1      38.532 -10.367   3.350  1.00  0.00     0.033 NA
HETATM    8  N   UNL     1      39.732  -9.785   3.716  1.00  0.00     0.030 NA
HETATM    9  C   UNL     1      40.740 -12.968   2.449  1.00  0.00     0.216 A 
HETATM   10  C   UNL     1      42.219 -12.906   2.819  1.00  0.00     0.063 A 
HETATM   11  H   UNL     1      42.421  -9.909   4.129  1.00  0.00     0.184 HD
ENDROOT
BRANCH  10  12
HETATM   12  C   UNL     1      42.946 -14.172   2.544  1.00  0.00     0.256 C 
HETATM   13  N   UNL     1      42.585 -15.199   3.384  1.00  0.00    -0.323 N 
HETATM   14  H   UNL     1      41.930 -14.971   4.123  1.00  0.00     0.169 HD
HETATM   15  O   UNL     1      43.794 -14.177   1.662  1.00  0.00    -0.267 OA
BRANCH  13  16
HETATM   16  C   UNL     1      43.036 -16.534   3.351  1.00  0.00     0.035 A 
HETATM   17  C   UNL     1      42.750 -17.428   2.317  1.00  0.00     0.029 A 
HETATM   18  C   UNL     1      43.225 -18.743   2.367  1.00  0.00     0.002 A 
HETATM   19  C   UNL     1      43.980 -19.177   3.453  1.00  0.00     0.000 A 
HETATM   20  C   UNL     1      44.269 -18.295   4.489  1.00  0.00     0.002 A 
HETATM   21  C   UNL     1      43.804 -16.978   4.435  1.00  0.00     0.029 A 
ENDBRANCH  13  16
ENDBRANCH  10  12
BRANCH   9  22
HETATM   22  C   UNL     1      40.516 -13.193   0.958  1.00  0.00     0.064 A 
HETATM   23  N   UNL     1      39.938 -14.361   0.564  1.00  0.00    -0.263 NA
HETATM   24  C   UNL     1      39.775 -14.556  -0.765  1.00  0.00     0.117 A 
HETATM   25  C   UNL     1      40.156 -13.643  -1.732  1.00  0.00     0.019 A 
HETATM   26  C   UNL     1      40.743 -12.455  -1.318  1.00  0.00     0.003 A 
HETATM   27  C   UNL     1      40.929 -12.223   0.042  1.00  0.00     0.030 A 
ENDBRANCH   9  22
TORSDOF 3
ENDMDL
MODEL 5
REMARK VINA RESULT:      -7.7      2.828      5.788
REMARK  3 active torsions:
REMARK  status: ('A' for Active; 'I' for Inactive)
REMARK    1  A    between atoms: C_9  and  C_10 
REMARK    2  A    between atoms: C_16  and  C_17 
REMARK       I    between atoms: C_17  and  N_18 
REMARK    3  A    between atoms: N_18  and  C_19 
ROOT
HETATM    1  C   UNL     1      38.697 -10.487   2.586  1.00  0.00     0.070 C 
HETATM    2  C   UNL     1      39.948 -11.210   3.014  1.00  0.00     0.037 A 
HETATM    3  N   UNL     1      40.304 -11.061   4.351  1.00  0.00    -0.191 N 
HETATM    4  C   UNL     1      41.475 -11.505   4.852  1.00  0.00     0.735 A 
HETATM    5  N   UNL     1      42.317 -12.224   4.050  1.00  0.00    -0.091 N 
HETATM    6  N   UNL     1      43.480 -12.449   4.686  1.00  0.00     0.012 NA
HETATM    7  N   UNL     1      43.300 -11.939   5.900  1.00  0.00     0.033 NA
HETATM    8  N   UNL     1      42.057 -11.343   6.016  1.00  0.00     0.030 NA
HETATM    9  C   UNL     1      42.057 -12.551   2.655  1.00  0.00     0.216 A 
HETATM   10  C   UNL     1      40.748 -11.926   2.184  1.00  0.00     0.063 A 
HETATM   11  H   UNL     1      39.715 -10.471   4.934  1.00  0.00     0.184 HD
ENDROOT
BRANCH  10  12
HETATM   12  C   UNL     1      40.491 -12.123   0.735  1.00  0.00     0.256 C 
HETATM   13  N   UNL     1      39.487 -13.028   0.479  1.00  0.00    -0.323 N 
HETATM   14  H   UNL     1      39.087 -13.499   1.282  1.00  0.00     0.169 HD
HETATM   15  O   UNL     1      41.192 -11.522  -0.069  1.00  0.00    -0.267 OA
BRANCH  13  16
HETATM   16  C   UNL     1      38.959 -13.392  -0.776  1.00  0.00     0.035 A 
HETATM   17  C   UNL     1      38.003 -12.645  -1.466  1.00  0.00     0.029 A 
HETATM   18  C   UNL     1      37.518 -13.084  -2.703  1.00  0.00     0.002 A 
HETATM   19  C   UNL     1      37.979 -14.277  -3.255  1.00  0.00     0.000 A 
HETATM   20  C   UNL     1      38.932 -15.029  -2.574  1.00  0.00     0.002 A 
HETATM   21  C   UNL     1      39.423 -14.586  -1.343  1.00  0.00     0.029 A 
ENDBRANCH  13  16
ENDBRANCH  10  12
BRANCH   9  22
HETATM   22  C   UNL     1      42.076 -14.066   2.492  1.00  0.00     0.064 A 
HETATM   23  N   UNL     1      41.029 -14.780   2.991  1.00  0.00    -0.263 NA
HETATM   24  C   UNL     1      41.078 -16.126   2.864  1.00  0.00     0.117 A 
HETATM   25  C   UNL     1      42.119 -16.807   2.259  1.00  0.00     0.019 A 
HETATM   26  C   UNL     1      43.180 -16.069   1.752  1.00  0.00     0.003 A 
HETATM   27  C   UNL     1      43.164 -14.682   1.869  1.00  0.00     0.030 A 
ENDBRANCH   9  22
TORSDOF 3
ENDMDL
MODEL 6
REMARK VINA RESULT:      -7.7      2.487      5.618
REMARK  3 active torsions:
REMARK  status: ('A' for Active; 'I' for Inactive)
REMARK    1  A    between atoms: C_9  and  C_10 
REMARK    2  A    between atoms: C_16  and  C_17 
REMARK       I    between atoms: C_17  and  N_18 
REMARK    3  A    between atoms: N_18  and  C_19 
ROOT
HETATM    1  C   UNL     1      39.030 -11.344   4.119  1.00  0.00     0.070 C 
HETATM    2  C   UNL     1      40.464 -11.760   3.910  1.00  0.00     0.037 A 
HETATM    3  N   UNL     1      41.393 -11.175   4.766  1.00  0.00    -0.191 N 
HETATM    4  C   UNL     1      42.725 -11.314   4.606  1.00  0.00     0.735 A 
HETATM    5  N   UNL     1      43.200 -12.143   3.629  1.00  0.00    -0.091 N 
HETATM    6  N   UNL     1      44.537 -12.035   3.541  1.00  0.00     0.012 NA
HETATM    7  N   UNL     1      44.869 -11.205   4.525  1.00  0.00     0.033 NA
HETATM    8  N   UNL     1      43.750 -10.745   5.194  1.00  0.00     0.030 NA
HETATM    9  C   UNL     1      42.367 -12.902   2.707  1.00  0.00     0.216 A 
HETATM   10  C   UNL     1      40.889 -12.598   2.932  1.00  0.00     0.063 A 
HETATM   11  H   UNL     1      41.050 -10.506   5.451  1.00  0.00     0.184 HD
ENDROOT
BRANCH  10  12
HETATM   12  C   UNL     1      39.998 -13.251   1.941  1.00  0.00     0.256 C 
HETATM   13  N   UNL     1      40.078 -12.693   0.686  1.00  0.00    -0.323 N 
HETATM   14  H   UNL     1      40.670 -11.876   0.592  1.00  0.00     0.169 HD
HETATM   15  O   UNL     1      39.271 -14.161   2.320  1.00  0.00    -0.267 OA
BRANCH  13  16
HETATM   16  C   UNL     1      39.416 -13.113  -0.485  1.00  0.00     0.035 A 
HETATM   17  C   UNL     1      39.783 -14.237  -1.227  1.00  0.00     0.029 A 
HETATM   18  C   UNL     1      39.082 -14.579  -2.389  1.00  0.00     0.002 A 
HETATM   19  C   UNL     1      38.014 -13.795  -2.821  1.00  0.00     0.000 A 
HETATM   20  C   UNL     1      37.641 -12.673  -2.089  1.00  0.00     0.002 A 
HETATM   21  C   UNL     1      38.335 -12.337  -0.923  1.00  0.00     0.029 A 
ENDBRANCH  13  16
ENDBRANCH  10  12
BRANCH   9  22
HETATM   22  C   UNL     1      42.691 -14.384   2.856  1.00  0.00     0.064 A 
HETATM   23  N   UNL     1      42.602 -14.941   4.096  1.00  0.00    -0.263 NA
HETATM   24  C   UNL     1      42.923 -16.249   4.214  1.00  0.00     0.117 A 
HETATM   25  C   UNL     1      43.327 -17.044   3.156  1.00  0.00     0.019 A 
HETATM   26  C   UNL     1      43.413 -16.467   1.897  1.00  0.00     0.003 A 
HETATM   27  C   UNL     1      43.093 -15.121   1.740  1.00  0.00     0.030 A 
ENDBRANCH   9  22
TORSDOF 3
ENDMDL
MODEL 7
REMARK VINA RESULT:      -7.4      2.919      5.310
REMARK  3 active torsions:
REMARK  status: ('A' for Active; 'I' for Inactive)
REMARK    1  A    between atoms: C_9  and  C_10 
REMARK    2  A    between atoms: C_16  and  C_17 
REMARK       I    between atoms: C_17  and  N_18 
REMARK    3  A    between atoms: N_18  and  C_19 
ROOT
HETATM    1  C   UNL     1      41.463  -9.440   4.034  1.00  0.00     0.070 C 
HETATM    2  C   UNL     1      42.128 -10.323   5.059  1.00  0.00     0.037 A 
HETATM    3  N   UNL     1      42.290  -9.765   6.323  1.00  0.00    -0.191 N 
HETATM    4  C   UNL     1      43.007 -10.357   7.299  1.00  0.00     0.735 A 
HETATM    5  N   UNL     1      43.520 -11.607   7.090  1.00  0.00    -0.091 N 
HETATM    6  N   UNL     1      44.313 -11.959   8.117  1.00  0.00     0.012 NA
HETATM    7  N   UNL     1      44.205 -10.954   8.981  1.00  0.00     0.033 NA
HETATM    8  N   UNL     1      43.399  -9.947   8.482  1.00  0.00     0.030 NA
HETATM    9  C   UNL     1      43.365 -12.372   5.861  1.00  0.00     0.216 A 
HETATM   10  C   UNL     1      42.611 -11.566   4.809  1.00  0.00     0.063 A 
HETATM   11  H   UNL     1      41.970  -8.810   6.462  1.00  0.00     0.184 HD
ENDROOT
BRANCH  10  12
HETATM   12  C   UNL     1      42.529 -12.249   3.493  1.00  0.00     0.256 C 
HETATM   13  N   UNL     1      41.274 -12.737   3.210  1.00  0.00    -0.323 N 
HETATM   14  H   UNL     1      40.577 -12.639   3.938  1.00  0.00     0.169 HD
HETATM   15  O   UNL     1      43.550 -12.350   2.825  1.00  0.00    -0.267 OA
BRANCH  13  16
HETATM   16  C   UNL     1      40.849 -13.376   2.028  1.00  0.00     0.035 A 
HETATM   17  C   UNL     1      40.764 -12.742   0.787  1.00  0.00     0.029 A 
HETATM   18  C   UNL     1      40.315 -13.445  -0.337  1.00  0.00     0.002 A 
HETATM   19  C   UNL     1      39.942 -14.782  -0.227  1.00  0.00     0.000 A 
HETATM   20  C   UNL     1      40.022 -15.422   1.006  1.00  0.00     0.002 A 
HETATM   21  C   UNL     1      40.479 -14.724   2.127  1.00  0.00     0.029 A 
ENDBRANCH  13  16
ENDBRANCH  10  12
BRANCH   9  22
HETATM   22  C   UNL     1      42.684 -13.696   6.187  1.00  0.00     0.064 A 
HETATM   23  N   UNL     1      41.322 -13.729   6.212  1.00  0.00    -0.263 NA
HETATM   24  C   UNL     1      40.736 -14.905   6.533  1.00  0.00     0.117 A 
HETATM   25  C   UNL     1      41.434 -16.061   6.829  1.00  0.00     0.019 A 
HETATM   26  C   UNL     1      42.822 -16.016   6.799  1.00  0.00     0.003 A 
HETATM   27  C   UNL     1      43.459 -14.822   6.476  1.00  0.00     0.030 A 
ENDBRANCH   9  22
TORSDOF 3
ENDMDL
MODEL 8
REMARK VINA RESULT:      -7.3     14.881     16.841
REMARK  3 active torsions:
REMARK  status: ('A' for Active; 'I' for Inactive)
REMARK    1  A    between atoms: C_9  and  C_10 
REMARK    2  A    between atoms: C_16  and  C_17 
REMARK       I    between atoms: C_17  and  N_18 
REMARK    3  A    between atoms: N_18  and  C_19 
ROOT
HETATM    1  C   UNL     1      47.789 -28.083   2.500  1.00  0.00     0.070 C 
HETATM    2  C   UNL     1      46.730 -28.776   1.682  1.00  0.00     0.037 A 
HETATM    3  N   UNL     1      45.462 -28.827   2.254  1.00  0.00    -0.191 N 
HETATM    4  C   UNL     1      44.451 -29.549   1.730  1.00  0.00     0.735 A 
HETATM    5  N   UNL     1      44.628 -30.181   0.532  1.00  0.00    -0.091 N 
HETATM    6  N   UNL     1      43.564 -30.954   0.254  1.00  0.00     0.012 NA
HETATM    7  N   UNL     1      42.712 -30.715   1.247  1.00  0.00     0.033 NA
HETATM    8  N   UNL     1      43.253 -29.846   2.176  1.00  0.00     0.030 NA
HETATM    9  C   UNL     1      45.859 -30.154  -0.246  1.00  0.00     0.216 A 
HETATM   10  C   UNL     1      46.950 -29.380   0.487  1.00  0.00     0.063 A 
HETATM   11  H   UNL     1      45.343 -28.416   3.177  1.00  0.00     0.184 HD
ENDROOT
BRANCH  10  12
HETATM   12  C   UNL     1      48.264 -29.422  -0.202  1.00  0.00     0.256 C 
HETATM   13  N   UNL     1      48.928 -30.615  -0.035  1.00  0.00    -0.323 N 
HETATM   14  H   UNL     1      48.493 -31.293   0.579  1.00  0.00     0.169 HD
HETATM   15  O   UNL     1      48.643 -28.421  -0.797  1.00  0.00    -0.267 OA
BRANCH  13  16
HETATM   16  C   UNL     1      50.159 -30.999  -0.604  1.00  0.00     0.035 A 
HETATM   17  C   UNL     1      50.595 -30.591  -1.866  1.00  0.00     0.029 A 
HETATM   18  C   UNL     1      51.826 -31.030  -2.366  1.00  0.00     0.002 A 
HETATM   19  C   UNL     1      52.626 -31.887  -1.613  1.00  0.00     0.000 A 
HETATM   20  C   UNL     1      52.199 -32.300  -0.354  1.00  0.00     0.002 A 
HETATM   21  C   UNL     1      50.974 -31.853   0.150  1.00  0.00     0.029 A 
ENDBRANCH  13  16
ENDBRANCH  10  12
BRANCH   9  22
HETATM   22  C   UNL     1      45.558 -29.580  -1.626  1.00  0.00     0.064 A 
HETATM   23  N   UNL     1      45.608 -30.420  -2.697  1.00  0.00    -0.263 NA
HETATM   24  C   UNL     1      45.368 -29.886  -3.916  1.00  0.00     0.117 A 
HETATM   25  C   UNL     1      45.074 -28.552  -4.131  1.00  0.00     0.019 A 
HETATM   26  C   UNL     1      45.024 -27.705  -3.032  1.00  0.00     0.003 A 
HETATM   27  C   UNL     1      45.270 -28.220  -1.762  1.00  0.00     0.030 A 
ENDBRANCH   9  22
TORSDOF 3
ENDMDL
MODEL 9
REMARK VINA RESULT:      -7.2      2.316      4.762
REMARK  3 active torsions:
REMARK  status: ('A' for Active; 'I' for Inactive)
REMARK    1  A    between atoms: C_9  and  C_10 
REMARK    2  A    between atoms: C_16  and  C_17 
REMARK       I    between atoms: C_17  and  N_18 
REMARK    3  A    between atoms: N_18  and  C_19 
ROOT
HETATM    1  C   UNL     1      39.924 -16.054   0.962  1.00  0.00     0.070 C 
HETATM    2  C   UNL     1      40.148 -14.564   0.962  1.00  0.00     0.037 A 
HETATM    3  N   UNL     1      39.213 -13.813   0.255  1.00  0.00    -0.191 N 
HETATM    4  C   UNL     1      39.359 -12.493   0.022  1.00  0.00     0.735 A 
HETATM    5  N   UNL     1      40.412 -11.825   0.581  1.00  0.00    -0.091 N 
HETATM    6  N   UNL     1      40.458 -10.564   0.117  1.00  0.00     0.012 NA
HETATM    7  N   UNL     1      39.381 -10.453  -0.653  1.00  0.00     0.033 NA
HETATM    8  N   UNL     1      38.689 -11.648  -0.726  1.00  0.00     0.030 NA
HETATM    9  C   UNL     1      41.430 -12.438   1.423  1.00  0.00     0.216 A 
HETATM   10  C   UNL     1      41.204 -13.942   1.543  1.00  0.00     0.063 A 
HETATM   11  H   UNL     1      38.465 -14.314  -0.218  1.00  0.00     0.184 HD
ENDROOT
BRANCH  10  12
HETATM   12  C   UNL     1      42.281 -14.639   2.290  1.00  0.00     0.256 C 
HETATM   13  N   UNL     1      41.951 -14.905   3.599  1.00  0.00    -0.323 N 
HETATM   14  H   UNL     1      41.061 -14.547   3.923  1.00  0.00     0.169 HD
HETATM   15  O   UNL     1      43.336 -14.868   1.713  1.00  0.00    -0.267 OA
BRANCH  13  16
HETATM   16  C   UNL     1      42.719 -15.604   4.552  1.00  0.00     0.035 A 
HETATM   17  C   UNL     1      42.956 -16.979   4.506  1.00  0.00     0.029 A 
HETATM   18  C   UNL     1      43.718 -17.600   5.502  1.00  0.00     0.002 A 
HETATM   19  C   UNL     1      44.241 -16.853   6.555  1.00  0.00     0.000 A 
HETATM   20  C   UNL     1      44.010 -15.482   6.610  1.00  0.00     0.002 A 
HETATM   21  C   UNL     1      43.257 -14.860   5.610  1.00  0.00     0.029 A 
ENDBRANCH  13  16
ENDBRANCH  10  12
BRANCH   9  22
HETATM   22  C   UNL     1      41.441 -11.735   2.775  1.00  0.00     0.064 A 
HETATM   23  N   UNL     1      40.338 -11.847   3.567  1.00  0.00    -0.263 NA
HETATM   24  C   UNL     1      40.353 -11.192   4.749  1.00  0.00     0.117 A 
HETATM   25  C   UNL     1      41.416 -10.427   5.195  1.00  0.00     0.019 A 
HETATM   26  C   UNL     1      42.536 -10.321   4.380  1.00  0.00     0.003 A 
HETATM   27  C   UNL     1      42.553 -10.980   3.155  1.00  0.00     0.030 A 
ENDBRANCH   9  22
TORSDOF 3
ENDMDL
MODEL 10
REMARK VINA RESULT:      -7.0      2.363      5.373
REMARK  3 active torsions:
REMARK  status: ('A' for Active; 'I' for Inactive)
REMARK    1  A    between atoms: C_9  and  C_10 
REMARK    2  A    between atoms: C_16  and  C_17 
REMARK       I    between atoms: C_17  and  N_18 
REMARK    3  A    between atoms: N_18  and  C_19 
ROOT
HETATM    1  C   UNL     1      39.888 -10.041   5.380  1.00  0.00     0.070 C 
HETATM    2  C   UNL     1      41.102 -10.893   5.650  1.00  0.00     0.037 A 
HETATM    3  N   UNL     1      41.901 -10.485   6.714  1.00  0.00    -0.191 N 
HETATM    4  C   UNL     1      43.101 -11.038   6.983  1.00  0.00     0.735 A 
HETATM    5  N   UNL     1      43.522 -12.114   6.253  1.00  0.00    -0.091 N 
HETATM    6  N   UNL     1      44.790 -12.424   6.576  1.00  0.00     0.012 NA
HETATM    7  N   UNL     1      45.096 -11.587   7.562  1.00  0.00     0.033 NA
HETATM    8  N   UNL     1      44.055 -10.715   7.823  1.00  0.00     0.030 NA
HETATM    9  C   UNL     1      42.770 -12.725   5.166  1.00  0.00     0.216 A 
HETATM   10  C   UNL     1      41.475 -11.963   4.905  1.00  0.00     0.063 A 
HETATM   11  H   UNL     1      41.626  -9.645   7.217  1.00  0.00     0.184 HD
ENDROOT
BRANCH  10  12
HETATM   12  C   UNL     1      40.724 -12.468   3.727  1.00  0.00     0.256 C 
HETATM   13  N   UNL     1      41.406 -12.319   2.542  1.00  0.00    -0.323 N 
HETATM   14  H   UNL     1      42.295 -11.834   2.589  1.00  0.00     0.169 HD
HETATM   15  O   UNL     1      39.597 -12.913   3.902  1.00  0.00    -0.267 OA
BRANCH  13  16
HETATM   16  C   UNL     1      41.004 -12.748   1.261  1.00  0.00     0.035 A 
HETATM   17  C   UNL     1      40.824 -11.891   0.174  1.00  0.00     0.029 A 
HETATM   18  C   UNL     1      40.407 -12.395  -1.063  1.00  0.00     0.002 A 
HETATM   19  C   UNL     1      40.160 -13.757  -1.220  1.00  0.00     0.000 A 
HETATM   20  C   UNL     1      40.336 -14.619  -0.142  1.00  0.00     0.002 A 
HETATM   21  C   UNL     1      40.762 -14.117   1.091  1.00  0.00     0.029 A 
ENDBRANCH  13  16
ENDBRANCH  10  12
BRANCH   9  22
HETATM   22  C   UNL     1      42.530 -14.193   5.497  1.00  0.00     0.064 A 
HETATM   23  N   UNL     1      41.829 -14.492   6.626  1.00  0.00    -0.263 NA
HETATM   24  C   UNL     1      41.653 -15.800   6.920  1.00  0.00     0.117 A 
HETATM   25  C   UNL     1      42.137 -16.838   6.144  1.00  0.00     0.019 A 
HETATM   26  C   UNL     1      42.849 -16.522   4.995  1.00  0.00     0.003 A 
HETATM   27  C   UNL     1      43.052 -15.186   4.664  1.00  0.00     0.030 A 
ENDBRANCH   9  22
TORSDOF 3
ENDMDL
