MODEL 1
REMARK VINA RESULT:     -10.4      0.000      0.000
REMARK  6 active torsions:
REMARK  status: ('A' for Active; 'I' for Inactive)
REMARK    1  A    between atoms: C_4  and  C_5 
REMARK    2  A    between atoms: C_5  and  N_6 
REMARK    3  A    between atoms: C_14  and  C_15 
REMARK    4  A    between atoms: C_18  and  O_19 
REMARK    5  A    between atoms: O_19  and  C_20 
REMARK    6  A    between atoms: C_20  and  C_21 
ROOT
HETATM    1  N   UNL     1      42.630 -15.774   2.845  1.00  0.00    -0.063 N 
HETATM    2  H   UNL     1      42.897 -15.986   3.813  1.00  0.00     0.280 HD
HETATM    3  C   UNL     1      43.274 -14.429   2.544  1.00  0.00     0.282 C 
HETATM    4  C   UNL     1      42.651 -13.367   3.385  1.00  0.00     0.018 A 
HETATM    5  C   UNL     1      41.437 -13.483   4.037  1.00  0.00    -0.023 A 
HETATM    6  C   UNL     1      41.106 -12.273   4.729  1.00  0.00     0.073 A 
HETATM    7  C   UNL     1      42.057 -11.300   4.537  1.00  0.00     0.088 A 
HETATM    8  N   UNL     1      41.960 -10.055   5.040  1.00  0.00    -0.358 N 
HETATM    9  C   UNL     1      40.990  -9.767   6.074  1.00  0.00     0.219 C 
HETATM   10  N   UNL     1      39.895 -10.704   6.052  1.00  0.00    -0.332 N 
HETATM   11  C   UNL     1      39.942 -11.968   5.536  1.00  0.00     0.256 C 
HETATM   12  O   UNL     1      39.050 -12.783   5.744  1.00  0.00    -0.267 OA
HETATM   13  S   UNL     1      43.361 -11.835   3.586  1.00  0.00    -0.074 SA
HETATM   14  C   UNL     1      40.633 -14.748   3.983  1.00  0.00     0.068 C 
HETATM   15  C   UNL     1      41.109 -15.671   2.843  1.00  0.00     0.240 C 
HETATM   16  H   UNL     1      42.778  -9.452   5.041  1.00  0.00     0.162 HD
HETATM   17  H   UNL     1      39.109 -10.520   6.659  1.00  0.00     0.165 HD
ENDROOT
BRANCH   9  18
HETATM   18  C   UNL     1      41.677  -9.662   7.423  1.00  0.00    -0.016 A 
HETATM   19  C   UNL     1      40.952  -9.175   8.525  1.00  0.00     0.014 A 
HETATM   20  C   UNL     1      41.542  -9.063   9.790  1.00  0.00     0.037 A 
HETATM   21  C   UNL     1      42.870  -9.442   9.977  1.00  0.00     0.069 A 
HETATM   22  C   UNL     1      43.609  -9.892   8.882  1.00  0.00     0.037 A 
HETATM   23  C   UNL     1      43.024  -9.999   7.617  1.00  0.00     0.014 A 
BRANCH  21  24
HETATM   24  O   UNL     1      43.555  -9.411  11.159  1.00  0.00    -0.347 OA
BRANCH  24  25
HETATM   25  C   UNL     1      42.924 -10.015  12.288  1.00  0.00     0.214 C 
BRANCH  25  26
HETATM   26  C   UNL     1      42.657  -8.944  13.316  1.00  0.00    -0.034 A 
HETATM   27  C   UNL     1      43.385  -7.746  13.299  1.00  0.00     0.009 A 
HETATM   28  C   UNL     1      43.138  -6.755  14.251  1.00  0.00     0.001 A 
HETATM   29  C   UNL     1      42.166  -6.955  15.231  1.00  0.00     0.000 A 
HETATM   30  C   UNL     1      41.444  -8.146  15.263  1.00  0.00     0.001 A 
HETATM   31  C   UNL     1      41.690  -9.137  14.312  1.00  0.00     0.009 A 
ENDBRANCH  25  26
ENDBRANCH  24  25
ENDBRANCH  21  24
ENDBRANCH   9  18
BRANCH   1  32
HETATM   32  C   UNL     1      43.181 -16.906   2.016  1.00  0.00     0.273 C 
BRANCH  32  33
HETATM   33  C   UNL     1      43.494 -18.175   2.762  1.00  0.00    -0.033 A 
HETATM   34  C   UNL     1      43.349 -19.423   2.133  1.00  0.00     0.009 A 
HETATM   35  C   UNL     1      43.605 -20.603   2.831  1.00  0.00     0.001 A 
HETATM   36  C   UNL     1      44.013 -20.552   4.162  1.00  0.00     0.000 A 
HETATM   37  C   UNL     1      44.175 -19.322   4.794  1.00  0.00     0.001 A 
HETATM   38  C   UNL     1      43.921 -18.139   4.099  1.00  0.00     0.009 A 
ENDBRANCH  32  33
ENDBRANCH   1  32
TORSDOF 6
ENDMDL
MODEL 2
REMARK VINA RESULT:      -9.9      2.363     11.707
REMARK  6 active torsions:
REMARK  status: ('A' for Active; 'I' for Inactive)
REMARK    1  A    between atoms: C_4  and  C_5 
REMARK    2  A    between atoms: C_5  and  N_6 
REMARK    3  A    between atoms: C_14  and  C_15 
REMARK    4  A    between atoms: C_18  and  O_19 
REMARK    5  A    between atoms: O_19  and  C_20 
REMARK    6  A    between atoms: C_20  and  C_21 
ROOT
HETATM    1  N   UNL     1      40.849  -9.144  12.211  1.00  0.00    -0.063 N 
HETATM    2  H   UNL     1      40.736 -10.164  12.210  1.00  0.00     0.280 HD
HETATM    3  C   UNL     1      40.413  -8.698  10.823  1.00  0.00     0.282 C 
HETATM    4  C   UNL     1      41.365  -9.216   9.800  1.00  0.00     0.018 A 
HETATM    5  C   UNL     1      42.640  -9.682  10.067  1.00  0.00    -0.023 A 
HETATM    6  C   UNL     1      43.308 -10.073   8.862  1.00  0.00     0.073 A 
HETATM    7  C   UNL     1      42.529  -9.852   7.752  1.00  0.00     0.088 A 
HETATM    8  N   UNL     1      42.942 -10.089   6.493  1.00  0.00    -0.358 N 
HETATM    9  C   UNL     1      44.126 -10.887   6.260  1.00  0.00     0.219 C 
HETATM   10  N   UNL     1      45.011 -10.873   7.399  1.00  0.00    -0.332 N 
HETATM   11  C   UNL     1      44.640 -10.618   8.688  1.00  0.00     0.256 C 
HETATM   12  O   UNL     1      45.393 -10.835   9.631  1.00  0.00    -0.267 OA
HETATM   13  S   UNL     1      40.994  -9.232   8.141  1.00  0.00    -0.074 SA
HETATM   14  C   UNL     1      43.177  -9.743  11.466  1.00  0.00     0.068 C 
HETATM   15  C   UNL     1      42.335  -8.886  12.432  1.00  0.00     0.240 C 
HETATM   16  H   UNL     1      42.262 -10.103   5.739  1.00  0.00     0.162 HD
HETATM   17  H   UNL     1      45.917 -11.305   7.292  1.00  0.00     0.165 HD
ENDROOT
BRANCH   9  18
HETATM   18  C   UNL     1      43.738 -12.281   5.806  1.00  0.00    -0.016 A 
HETATM   19  C   UNL     1      43.940 -13.367   6.677  1.00  0.00     0.014 A 
HETATM   20  C   UNL     1      43.596 -14.671   6.303  1.00  0.00     0.037 A 
HETATM   21  C   UNL     1      43.035 -14.914   5.051  1.00  0.00     0.069 A 
HETATM   22  C   UNL     1      42.864 -13.849   4.165  1.00  0.00     0.037 A 
HETATM   23  C   UNL     1      43.213 -12.547   4.533  1.00  0.00     0.014 A 
BRANCH  21  24
HETATM   24  O   UNL     1      42.627 -16.128   4.574  1.00  0.00    -0.347 OA
BRANCH  24  25
HETATM   25  C   UNL     1      43.133 -16.526   3.300  1.00  0.00     0.214 C 
BRANCH  25  26
HETATM   26  C   UNL     1      43.391 -18.012   3.331  1.00  0.00    -0.034 A 
HETATM   27  C   UNL     1      43.920 -18.618   4.479  1.00  0.00     0.009 A 
HETATM   28  C   UNL     1      44.158 -19.994   4.506  1.00  0.00     0.001 A 
HETATM   29  C   UNL     1      43.877 -20.774   3.386  1.00  0.00     0.000 A 
HETATM   30  C   UNL     1      43.361 -20.180   2.236  1.00  0.00     0.001 A 
HETATM   31  C   UNL     1      43.122 -18.806   2.207  1.00  0.00     0.009 A 
ENDBRANCH  25  26
ENDBRANCH  24  25
ENDBRANCH  21  24
ENDBRANCH   9  18
BRANCH   1  32
HETATM   32  C   UNL     1      39.956  -8.639  13.316  1.00  0.00     0.273 C 
BRANCH  32  33
HETATM   33  C   UNL     1      40.601  -7.712  14.310  1.00  0.00    -0.033 A 
HETATM   34  C   UNL     1      41.150  -8.217  15.501  1.00  0.00     0.009 A 
HETATM   35  C   UNL     1      41.718  -7.358  16.441  1.00  0.00     0.001 A 
HETATM   36  C   UNL     1      41.751  -5.986  16.202  1.00  0.00     0.000 A 
HETATM   37  C   UNL     1      41.224  -5.472  15.020  1.00  0.00     0.001 A 
HETATM   38  C   UNL     1      40.655  -6.328  14.077  1.00  0.00     0.009 A 
ENDBRANCH  32  33
ENDBRANCH   1  32
TORSDOF 6
ENDMDL
MODEL 3
REMARK VINA RESULT:      -9.4      7.482     11.378
REMARK  6 active torsions:
REMARK  status: ('A' for Active; 'I' for Inactive)
REMARK    1  A    between atoms: C_4  and  C_5 
REMARK    2  A    between atoms: C_5  and  N_6 
REMARK    3  A    between atoms: C_14  and  C_15 
REMARK    4  A    between atoms: C_18  and  O_19 
REMARK    5  A    between atoms: O_19  and  C_20 
REMARK    6  A    between atoms: C_20  and  C_21 
ROOT
HETATM    1  N   UNL     1      41.173  -7.919  -2.879  1.00  0.00    -0.063 N 
HETATM    2  H   UNL     1      42.092  -8.262  -2.575  1.00  0.00     0.280 HD
HETATM    3  C   UNL     1      40.268  -8.091  -1.668  1.00  0.00     0.282 C 
HETATM    4  C   UNL     1      40.088  -9.541  -1.369  1.00  0.00     0.018 A 
HETATM    5  C   UNL     1      40.357 -10.572  -2.251  1.00  0.00    -0.023 A 
HETATM    6  C   UNL     1      40.044 -11.843  -1.669  1.00  0.00     0.073 A 
HETATM    7  C   UNL     1      39.525 -11.709  -0.403  1.00  0.00     0.088 A 
HETATM    8  N   UNL     1      39.105 -12.749   0.342  1.00  0.00    -0.358 N 
HETATM    9  C   UNL     1      39.467 -14.099  -0.032  1.00  0.00     0.219 C 
HETATM   10  N   UNL     1      39.770 -14.199  -1.439  1.00  0.00    -0.332 N 
HETATM   11  C   UNL     1      40.179 -13.169  -2.237  1.00  0.00     0.256 C 
HETATM   12  O   UNL     1      40.627 -13.363  -3.362  1.00  0.00    -0.267 OA
HETATM   13  S   UNL     1      39.459 -10.090   0.112  1.00  0.00    -0.074 SA
HETATM   14  C   UNL     1      40.909 -10.310  -3.621  1.00  0.00     0.068 C 
HETATM   15  C   UNL     1      40.744  -8.831  -4.023  1.00  0.00     0.240 C 
HETATM   16  H   UNL     1      38.928 -12.613   1.333  1.00  0.00     0.162 HD
HETATM   17  H   UNL     1      39.921 -15.121  -1.820  1.00  0.00     0.165 HD
ENDROOT
BRANCH   9  18
HETATM   18  C   UNL     1      40.574 -14.614   0.868  1.00  0.00    -0.016 A 
HETATM   19  C   UNL     1      40.355 -15.779   1.626  1.00  0.00     0.014 A 
HETATM   20  C   UNL     1      41.347 -16.293   2.469  1.00  0.00     0.037 A 
HETATM   21  C   UNL     1      42.582 -15.654   2.566  1.00  0.00     0.069 A 
HETATM   22  C   UNL     1      42.797 -14.478   1.846  1.00  0.00     0.037 A 
HETATM   23  C   UNL     1      41.806 -13.959   1.008  1.00  0.00     0.014 A 
BRANCH  21  24
HETATM   24  O   UNL     1      43.642 -16.066   3.323  1.00  0.00    -0.347 OA
BRANCH  24  25
HETATM   25  C   UNL     1      43.344 -16.637   4.597  1.00  0.00     0.214 C 
BRANCH  25  26
HETATM   26  C   UNL     1      43.578 -18.125   4.520  1.00  0.00    -0.034 A 
HETATM   27  C   UNL     1      43.674 -18.891   5.691  1.00  0.00     0.009 A 
HETATM   28  C   UNL     1      43.890 -20.268   5.619  1.00  0.00     0.001 A 
HETATM   29  C   UNL     1      44.020 -20.892   4.378  1.00  0.00     0.000 A 
HETATM   30  C   UNL     1      43.936 -20.138   3.209  1.00  0.00     0.001 A 
HETATM   31  C   UNL     1      43.719 -18.762   3.279  1.00  0.00     0.009 A 
ENDBRANCH  25  26
ENDBRANCH  24  25
ENDBRANCH  21  24
ENDBRANCH   9  18
BRANCH   1  32
HETATM   32  C   UNL     1      41.388  -6.480  -3.273  1.00  0.00     0.273 C 
BRANCH  32  33
HETATM   33  C   UNL     1      42.436  -5.735  -2.492  1.00  0.00    -0.033 A 
HETATM   34  C   UNL     1      43.514  -6.425  -1.911  1.00  0.00     0.009 A 
HETATM   35  C   UNL     1      44.470  -5.743  -1.158  1.00  0.00     0.001 A 
HETATM   36  C   UNL     1      44.365  -4.366  -0.979  1.00  0.00     0.000 A 
HETATM   37  C   UNL     1      43.310  -3.667  -1.560  1.00  0.00     0.001 A 
HETATM   38  C   UNL     1      42.352  -4.345  -2.315  1.00  0.00     0.009 A 
ENDBRANCH  32  33
ENDBRANCH   1  32
TORSDOF 6
ENDMDL
MODEL 4
REMARK VINA RESULT:      -9.3      2.591     11.903
REMARK  6 active torsions:
REMARK  status: ('A' for Active; 'I' for Inactive)
REMARK    1  A    between atoms: C_4  and  C_5 
REMARK    2  A    between atoms: C_5  and  N_6 
REMARK    3  A    between atoms: C_14  and  C_15 
REMARK    4  A    between atoms: C_18  and  O_19 
REMARK    5  A    between atoms: O_19  and  C_20 
REMARK    6  A    between atoms: C_20  and  C_21 
ROOT
HETATM    1  N   UNL     1      40.713  -8.337  13.045  1.00  0.00    -0.063 N 
HETATM    2  H   UNL     1      40.421  -9.318  12.974  1.00  0.00     0.280 HD
HETATM    3  C   UNL     1      40.507  -7.761  11.652  1.00  0.00     0.282 C 
HETATM    4  C   UNL     1      41.449  -8.403  10.692  1.00  0.00     0.018 A 
HETATM    5  C   UNL     1      42.587  -9.106  11.046  1.00  0.00    -0.023 A 
HETATM    6  C   UNL     1      43.293  -9.563   9.887  1.00  0.00     0.073 A 
HETATM    7  C   UNL     1      42.682  -9.156   8.725  1.00  0.00     0.088 A 
HETATM    8  N   UNL     1      43.171  -9.413   7.498  1.00  0.00    -0.358 N 
HETATM    9  C   UNL     1      44.211 -10.404   7.328  1.00  0.00     0.219 C 
HETATM   10  N   UNL     1      44.964 -10.600   8.542  1.00  0.00    -0.332 N 
HETATM   11  C   UNL     1      44.516 -10.335   9.805  1.00  0.00     0.256 C 
HETATM   12  O   UNL     1      45.119 -10.726  10.798  1.00  0.00    -0.267 OA
HETATM   13  S   UNL     1      41.251  -8.282   9.007  1.00  0.00    -0.074 SA
HETATM   14  C   UNL     1      42.960  -9.323  12.483  1.00  0.00     0.068 C 
HETATM   15  C   UNL     1      42.192  -8.366  13.417  1.00  0.00     0.240 C 
HETATM   16  H   UNL     1      42.579  -9.270   6.685  1.00  0.00     0.162 HD
HETATM   17  H   UNL     1      45.785 -11.187   8.494  1.00  0.00     0.165 HD
ENDROOT
BRANCH   9  18
HETATM   18  C   UNL     1      43.628 -11.684   6.759  1.00  0.00    -0.016 A 
HETATM   19  C   UNL     1      42.376 -11.641   6.117  1.00  0.00     0.014 A 
HETATM   20  C   UNL     1      41.799 -12.796   5.575  1.00  0.00     0.037 A 
HETATM   21  C   UNL     1      42.467 -14.016   5.658  1.00  0.00     0.069 A 
HETATM   22  C   UNL     1      43.692 -14.076   6.324  1.00  0.00     0.037 A 
HETATM   23  C   UNL     1      44.268 -12.927   6.872  1.00  0.00     0.014 A 
BRANCH  21  24
HETATM   24  O   UNL     1      42.032 -15.206   5.147  1.00  0.00    -0.347 OA
BRANCH  24  25
HETATM   25  C   UNL     1      42.213 -15.412   3.746  1.00  0.00     0.214 C 
BRANCH  25  26
HETATM   26  C   UNL     1      42.825 -16.775   3.538  1.00  0.00    -0.034 A 
HETATM   27  C   UNL     1      42.486 -17.543   2.414  1.00  0.00     0.009 A 
HETATM   28  C   UNL     1      43.052 -18.805   2.223  1.00  0.00     0.001 A 
HETATM   29  C   UNL     1      43.957 -19.313   3.155  1.00  0.00     0.000 A 
HETATM   30  C   UNL     1      44.292 -18.563   4.280  1.00  0.00     0.001 A 
HETATM   31  C   UNL     1      43.728 -17.302   4.473  1.00  0.00     0.009 A 
ENDBRANCH  25  26
ENDBRANCH  24  25
ENDBRANCH  21  24
ENDBRANCH   9  18
BRANCH   1  32
HETATM   32  C   UNL     1      39.818  -7.723  14.091  1.00  0.00     0.273 C 
BRANCH  32  33
HETATM   33  C   UNL     1      40.517  -7.068  15.252  1.00  0.00    -0.033 A 
HETATM   34  C   UNL     1      40.751  -5.682  15.252  1.00  0.00     0.009 A 
HETATM   35  C   UNL     1      41.428  -5.077  16.309  1.00  0.00     0.001 A 
HETATM   36  C   UNL     1      41.876  -5.844  17.382  1.00  0.00     0.000 A 
HETATM   37  C   UNL     1      41.639  -7.216  17.403  1.00  0.00     0.001 A 
HETATM   38  C   UNL     1      40.961  -7.826  16.347  1.00  0.00     0.009 A 
ENDBRANCH  32  33
ENDBRANCH   1  32
TORSDOF 6
ENDMDL
MODEL 5
REMARK VINA RESULT:      -9.1      1.876      2.728
REMARK  6 active torsions:
REMARK  status: ('A' for Active; 'I' for Inactive)
REMARK    1  A    between atoms: C_4  and  C_5 
REMARK    2  A    between atoms: C_5  and  N_6 
REMARK    3  A    between atoms: C_14  and  C_15 
REMARK    4  A    between atoms: C_18  and  O_19 
REMARK    5  A    between atoms: O_19  and  C_20 
REMARK    6  A    between atoms: C_20  and  C_21 
ROOT
HETATM    1  N   UNL     1      42.058 -14.310   4.320  1.00  0.00    -0.063 N 
HETATM    2  H   UNL     1      41.966 -14.731   5.252  1.00  0.00     0.280 HD
HETATM    3  C   UNL     1      42.946 -13.091   4.524  1.00  0.00     0.282 C 
HETATM    4  C   UNL     1      42.239 -12.082   5.362  1.00  0.00     0.018 A 
HETATM    5  C   UNL     1      40.875 -12.058   5.594  1.00  0.00    -0.023 A 
HETATM    6  C   UNL     1      40.511 -10.940   6.412  1.00  0.00     0.073 A 
HETATM    7  C   UNL     1      41.599 -10.161   6.723  1.00  0.00     0.088 A 
HETATM    8  N   UNL     1      41.519  -9.024   7.440  1.00  0.00    -0.358 N 
HETATM    9  C   UNL     1      40.317  -8.724   8.187  1.00  0.00     0.219 C 
HETATM   10  N   UNL     1      39.168  -9.404   7.643  1.00  0.00    -0.332 N 
HETATM   11  C   UNL     1      39.203 -10.546   6.895  1.00  0.00     0.256 C 
HETATM   12  O   UNL     1      38.187 -11.188   6.650  1.00  0.00    -0.267 OA
HETATM   13  S   UNL     1      43.052 -10.781   6.095  1.00  0.00    -0.074 SA
HETATM   14  C   UNL     1      39.964 -13.108   5.031  1.00  0.00     0.068 C 
HETATM   15  C   UNL     1      40.649 -13.904   3.902  1.00  0.00     0.240 C 
HETATM   16  H   UNL     1      42.368  -8.607   7.811  1.00  0.00     0.162 HD
HETATM   17  H   UNL     1      38.262  -9.169   8.022  1.00  0.00     0.165 HD
ENDROOT
BRANCH   9  18
HETATM   18  C   UNL     1      40.538  -8.987   9.664  1.00  0.00    -0.016 A 
HETATM   19  C   UNL     1      39.555  -9.681  10.392  1.00  0.00     0.014 A 
HETATM   20  C   UNL     1      39.717  -9.949  11.757  1.00  0.00     0.037 A 
HETATM   21  C   UNL     1      40.869  -9.532  12.419  1.00  0.00     0.069 A 
HETATM   22  C   UNL     1      41.834  -8.810  11.715  1.00  0.00     0.037 A 
HETATM   23  C   UNL     1      41.673  -8.535  10.354  1.00  0.00     0.014 A 
BRANCH  21  24
HETATM   24  O   UNL     1      41.164  -9.753  13.735  1.00  0.00    -0.347 OA
BRANCH  24  25
HETATM   25  C   UNL     1      41.974  -8.777  14.389  1.00  0.00     0.214 C 
BRANCH  25  26
HETATM   26  C   UNL     1      41.076  -7.883  15.209  1.00  0.00    -0.034 A 
HETATM   27  C   UNL     1      40.184  -7.003  14.580  1.00  0.00     0.009 A 
HETATM   28  C   UNL     1      39.355  -6.175  15.339  1.00  0.00     0.001 A 
HETATM   29  C   UNL     1      39.413  -6.215  16.732  1.00  0.00     0.000 A 
HETATM   30  C   UNL     1      40.303  -7.079  17.366  1.00  0.00     0.001 A 
HETATM   31  C   UNL     1      41.133  -7.907  16.609  1.00  0.00     0.009 A 
ENDBRANCH  25  26
ENDBRANCH  24  25
ENDBRANCH  21  24
ENDBRANCH   9  18
BRANCH   1  32
HETATM   32  C   UNL     1      42.685 -15.375   3.455  1.00  0.00     0.273 C 
BRANCH  32  33
HETATM   33  C   UNL     1      43.077 -16.646   4.159  1.00  0.00    -0.033 A 
HETATM   34  C   UNL     1      42.915 -16.767   5.550  1.00  0.00     0.009 A 
HETATM   35  C   UNL     1      43.309 -17.929   6.212  1.00  0.00     0.001 A 
HETATM   36  C   UNL     1      43.864 -18.986   5.495  1.00  0.00     0.000 A 
HETATM   37  C   UNL     1      44.018 -18.886   4.115  1.00  0.00     0.001 A 
HETATM   38  C   UNL     1      43.625 -17.725   3.448  1.00  0.00     0.009 A 
ENDBRANCH  32  33
ENDBRANCH   1  32
TORSDOF 6
ENDMDL
MODEL 6
REMARK VINA RESULT:      -9.0      2.100      3.361
REMARK  6 active torsions:
REMARK  status: ('A' for Active; 'I' for Inactive)
REMARK    1  A    between atoms: C_4  and  C_5 
REMARK    2  A    between atoms: C_5  and  N_6 
REMARK    3  A    between atoms: C_14  and  C_15 
REMARK    4  A    between atoms: C_18  and  O_19 
REMARK    5  A    between atoms: O_19  and  C_20 
REMARK    6  A    between atoms: C_20  and  C_21 
ROOT
HETATM    1  N   UNL     1      41.116 -14.405   5.730  1.00  0.00    -0.063 N 
HETATM    2  H   UNL     1      40.683 -14.366   6.660  1.00  0.00     0.280 HD
HETATM    3  C   UNL     1      42.587 -14.096   5.967  1.00  0.00     0.282 C 
HETATM    4  C   UNL     1      42.743 -12.690   6.435  1.00  0.00     0.018 A 
HETATM    5  C   UNL     1      41.786 -11.700   6.305  1.00  0.00    -0.023 A 
HETATM    6  C   UNL     1      42.261 -10.452   6.823  1.00  0.00     0.073 A 
HETATM    7  C   UNL     1      43.552 -10.549   7.281  1.00  0.00     0.088 A 
HETATM    8  N   UNL     1      44.248  -9.506   7.774  1.00  0.00    -0.358 N 
HETATM    9  C   UNL     1      43.561  -8.286   8.134  1.00  0.00     0.219 C 
HETATM   10  N   UNL     1      42.314  -8.146   7.424  1.00  0.00    -0.332 N 
HETATM   11  C   UNL     1      41.585  -9.172   6.891  1.00  0.00     0.256 C 
HETATM   12  O   UNL     1      40.437  -9.009   6.495  1.00  0.00    -0.267 OA
HETATM   13  S   UNL     1      44.180 -12.123   7.146  1.00  0.00    -0.074 SA
HETATM   14  C   UNL     1      40.445 -11.979   5.692  1.00  0.00     0.068 C 
HETATM   15  C   UNL     1      40.447 -13.307   4.909  1.00  0.00     0.240 C 
HETATM   16  H   UNL     1      45.111  -9.678   8.281  1.00  0.00     0.162 HD
HETATM   17  H   UNL     1      41.816  -7.273   7.519  1.00  0.00     0.165 HD
ENDROOT
BRANCH   9  18
HETATM   18  C   UNL     1      43.418  -8.190   9.641  1.00  0.00    -0.016 A 
HETATM   19  C   UNL     1      42.643  -7.154  10.193  1.00  0.00     0.014 A 
HETATM   20  C   UNL     1      42.481  -7.027  11.577  1.00  0.00     0.037 A 
HETATM   21  C   UNL     1      43.086  -7.939  12.439  1.00  0.00     0.069 A 
HETATM   22  C   UNL     1      43.887  -8.950  11.904  1.00  0.00     0.037 A 
HETATM   23  C   UNL     1      44.056  -9.076  10.522  1.00  0.00     0.014 A 
BRANCH  21  24
HETATM   24  O   UNL     1      42.985  -7.948  13.801  1.00  0.00    -0.347 OA
BRANCH  24  25
HETATM   25  C   UNL     1      41.918  -8.711  14.365  1.00  0.00     0.214 C 
BRANCH  25  26
HETATM   26  C   UNL     1      41.057  -7.791  15.193  1.00  0.00    -0.034 A 
HETATM   27  C   UNL     1      41.117  -7.830  16.594  1.00  0.00     0.009 A 
HETATM   28  C   UNL     1      40.318  -6.978  17.359  1.00  0.00     0.001 A 
HETATM   29  C   UNL     1      39.449  -6.085  16.734  1.00  0.00     0.000 A 
HETATM   30  C   UNL     1      39.375  -6.045  15.343  1.00  0.00     0.001 A 
HETATM   31  C   UNL     1      40.172  -6.896  14.576  1.00  0.00     0.009 A 
ENDBRANCH  25  26
ENDBRANCH  24  25
ENDBRANCH  21  24
ENDBRANCH   9  18
BRANCH   1  32
HETATM   32  C   UNL     1      40.866 -15.803   5.225  1.00  0.00     0.273 C 
BRANCH  32  33
HETATM   33  C   UNL     1      41.757 -16.266   4.104  1.00  0.00    -0.033 A 
HETATM   34  C   UNL     1      41.573 -15.773   2.801  1.00  0.00     0.009 A 
HETATM   35  C   UNL     1      42.374 -16.225   1.752  1.00  0.00     0.001 A 
HETATM   36  C   UNL     1      43.371 -17.168   1.991  1.00  0.00     0.000 A 
HETATM   37  C   UNL     1      43.574 -17.654   3.280  1.00  0.00     0.001 A 
HETATM   38  C   UNL     1      42.775 -17.205   4.333  1.00  0.00     0.009 A 
ENDBRANCH  32  33
ENDBRANCH   1  32
TORSDOF 6
ENDMDL
MODEL 7
REMARK VINA RESULT:      -9.0      5.168      9.195
REMARK  6 active torsions:
REMARK  status: ('A' for Active; 'I' for Inactive)
REMARK    1  A    between atoms: C_4  and  C_5 
REMARK    2  A    between atoms: C_5  and  N_6 
REMARK    3  A    between atoms: C_14  and  C_15 
REMARK    4  A    between atoms: C_18  and  O_19 
REMARK    5  A    between atoms: O_19  and  C_20 
REMARK    6  A    between atoms: C_20  and  C_21 
ROOT
HETATM    1  N   UNL     1      43.009 -16.152   6.292  1.00  0.00    -0.063 N 
HETATM    2  H   UNL     1      42.983 -16.255   5.271  1.00  0.00     0.280 HD
HETATM    3  C   UNL     1      41.632 -15.626   6.670  1.00  0.00     0.282 C 
HETATM    4  C   UNL     1      41.444 -14.253   6.122  1.00  0.00     0.018 A 
HETATM    5  C   UNL     1      42.463 -13.425   5.688  1.00  0.00    -0.023 A 
HETATM    6  C   UNL     1      41.951 -12.160   5.255  1.00  0.00     0.073 A 
HETATM    7  C   UNL     1      40.589 -12.080   5.415  1.00  0.00     0.088 A 
HETATM    8  N   UNL     1      39.869 -10.978   5.129  1.00  0.00    -0.358 N 
HETATM    9  C   UNL     1      40.456  -9.917   4.341  1.00  0.00     0.219 C 
HETATM   10  N   UNL     1      41.896  -9.929   4.418  1.00  0.00    -0.332 N 
HETATM   11  C   UNL     1      42.665 -11.016   4.724  1.00  0.00     0.256 C 
HETATM   12  O   UNL     1      43.880 -11.013   4.560  1.00  0.00    -0.267 OA
HETATM   13  S   UNL     1      39.914 -13.516   6.027  1.00  0.00    -0.074 SA
HETATM   14  C   UNL     1      43.896 -13.872   5.697  1.00  0.00     0.068 C 
HETATM   15  C   UNL     1      44.093 -15.119   6.582  1.00  0.00     0.240 C 
HETATM   16  H   UNL     1      38.858 -11.045   5.072  1.00  0.00     0.162 HD
HETATM   17  H   UNL     1      42.394  -9.158   3.996  1.00  0.00     0.165 HD
ENDROOT
BRANCH   9  18
HETATM   18  C   UNL     1      39.922  -9.961   2.922  1.00  0.00    -0.016 A 
HETATM   19  C   UNL     1      38.715 -10.637   2.664  1.00  0.00     0.014 A 
HETATM   20  C   UNL     1      38.182 -10.702   1.371  1.00  0.00     0.037 A 
HETATM   21  C   UNL     1      38.843 -10.087   0.311  1.00  0.00     0.069 A 
HETATM   22  C   UNL     1      40.059  -9.444   0.549  1.00  0.00     0.037 A 
HETATM   23  C   UNL     1      40.597  -9.383   1.837  1.00  0.00     0.014 A 
BRANCH  21  24
HETATM   24  O   UNL     1      38.418 -10.048  -0.988  1.00  0.00    -0.347 OA
BRANCH  24  25
HETATM   25  C   UNL     1      39.370 -10.405  -1.990  1.00  0.00     0.214 C 
BRANCH  25  26
HETATM   26  C   UNL     1      39.208 -11.872  -2.302  1.00  0.00    -0.034 A 
HETATM   27  C   UNL     1      40.331 -12.708  -2.391  1.00  0.00     0.009 A 
HETATM   28  C   UNL     1      40.180 -14.065  -2.681  1.00  0.00     0.001 A 
HETATM   29  C   UNL     1      38.909 -14.598  -2.891  1.00  0.00     0.000 A 
HETATM   30  C   UNL     1      37.788 -13.774  -2.815  1.00  0.00     0.001 A 
HETATM   31  C   UNL     1      37.936 -12.418  -2.526  1.00  0.00     0.009 A 
ENDBRANCH  25  26
ENDBRANCH  24  25
ENDBRANCH  21  24
ENDBRANCH   9  18
BRANCH   1  32
HETATM   32  C   UNL     1      43.298 -17.530   6.831  1.00  0.00     0.273 C 
BRANCH  32  33
HETATM   33  C   UNL     1      43.568 -18.594   5.802  1.00  0.00    -0.033 A 
HETATM   34  C   UNL     1      43.768 -18.246   4.456  1.00  0.00     0.009 A 
HETATM   35  C   UNL     1      43.985 -19.231   3.493  1.00  0.00     0.001 A 
HETATM   36  C   UNL     1      44.010 -20.574   3.862  1.00  0.00     0.000 A 
HETATM   37  C   UNL     1      43.828 -20.933   5.195  1.00  0.00     0.001 A 
HETATM   38  C   UNL     1      43.611 -19.950   6.162  1.00  0.00     0.009 A 
ENDBRANCH  32  33
ENDBRANCH   1  32
TORSDOF 6
ENDMDL
MODEL 8
REMARK VINA RESULT:      -8.9      4.482      6.576
REMARK  6 active torsions:
REMARK  status: ('A' for Active; 'I' for Inactive)
REMARK    1  A    between atoms: C_4  and  C_5 
REMARK    2  A    between atoms: C_5  and  N_6 
REMARK    3  A    between atoms: C_14  and  C_15 
REMARK    4  A    between atoms: C_18  and  O_19 
REMARK    5  A    between atoms: O_19  and  C_20 
REMARK    6  A    between atoms: C_20  and  C_21 
ROOT
HETATM    1  N   UNL     1      39.509 -13.073  -1.204  1.00  0.00    -0.063 N 
HETATM    2  H   UNL     1      40.479 -12.738  -1.165  1.00  0.00     0.280 HD
HETATM    3  C   UNL     1      38.782 -12.301  -0.112  1.00  0.00     0.282 C 
HETATM    4  C   UNL     1      39.303 -12.701   1.226  1.00  0.00     0.018 A 
HETATM    5  C   UNL     1      40.031 -13.849   1.483  1.00  0.00    -0.023 A 
HETATM    6  C   UNL     1      40.348 -13.957   2.876  1.00  0.00     0.073 A 
HETATM    7  C   UNL     1      39.819 -12.917   3.601  1.00  0.00     0.088 A 
HETATM    8  N   UNL     1      39.931 -12.808   4.938  1.00  0.00    -0.358 N 
HETATM    9  C   UNL     1      40.888 -13.627   5.651  1.00  0.00     0.219 C 
HETATM   10  N   UNL     1      41.212 -14.826   4.919  1.00  0.00    -0.332 N 
HETATM   11  C   UNL     1      41.095 -14.988   3.568  1.00  0.00     0.256 C 
HETATM   12  O   UNL     1      41.589 -15.948   2.988  1.00  0.00    -0.267 OA
HETATM   13  S   UNL     1      38.995 -11.791   2.629  1.00  0.00    -0.074 SA
HETATM   14  C   UNL     1      40.405 -14.804   0.389  1.00  0.00     0.068 C 
HETATM   15  C   UNL     1      39.567 -14.562  -0.883  1.00  0.00     0.240 C 
HETATM   16  H   UNL     1      39.704 -11.927   5.388  1.00  0.00     0.162 HD
HETATM   17  H   UNL     1      41.782 -15.519   5.385  1.00  0.00     0.165 HD
ENDROOT
BRANCH   9  18
HETATM   18  C   UNL     1      42.100 -12.801   6.037  1.00  0.00    -0.016 A 
HETATM   19  C   UNL     1      42.030 -11.399   5.952  1.00  0.00     0.014 A 
HETATM   20  C   UNL     1      43.123 -10.595   6.300  1.00  0.00     0.037 A 
HETATM   21  C   UNL     1      44.306 -11.180   6.745  1.00  0.00     0.069 A 
HETATM   22  C   UNL     1      44.399 -12.572   6.798  1.00  0.00     0.037 A 
HETATM   23  C   UNL     1      43.312 -13.377   6.446  1.00  0.00     0.014 A 
BRANCH  21  24
HETATM   24  O   UNL     1      45.431 -10.514   7.143  1.00  0.00    -0.347 OA
BRANCH  24  25
HETATM   25  C   UNL     1      45.748 -10.554   8.534  1.00  0.00     0.214 C 
BRANCH  25  26
HETATM   26  C   UNL     1      44.866  -9.565   9.254  1.00  0.00    -0.034 A 
HETATM   27  C   UNL     1      44.568  -8.324   8.674  1.00  0.00     0.009 A 
HETATM   28  C   UNL     1      43.751  -7.409   9.341  1.00  0.00     0.001 A 
HETATM   29  C   UNL     1      43.230  -7.723  10.596  1.00  0.00     0.000 A 
HETATM   30  C   UNL     1      43.528  -8.949  11.186  1.00  0.00     0.001 A 
HETATM   31  C   UNL     1      44.344  -9.865  10.521  1.00  0.00     0.009 A 
ENDBRANCH  25  26
ENDBRANCH  24  25
ENDBRANCH  21  24
ENDBRANCH   9  18
BRANCH   1  32
HETATM   32  C   UNL     1      39.025 -12.751  -2.595  1.00  0.00     0.273 C 
BRANCH  32  33
HETATM   33  C   UNL     1      39.309 -11.357  -3.084  1.00  0.00    -0.033 A 
HETATM   34  C   UNL     1      40.633 -10.931  -3.285  1.00  0.00     0.009 A 
HETATM   35  C   UNL     1      40.903  -9.629  -3.705  1.00  0.00     0.001 A 
HETATM   36  C   UNL     1      39.857  -8.738  -3.934  1.00  0.00     0.000 A 
HETATM   37  C   UNL     1      38.540  -9.150  -3.752  1.00  0.00     0.001 A 
HETATM   38  C   UNL     1      38.265 -10.453  -3.333  1.00  0.00     0.009 A 
ENDBRANCH  32  33
ENDBRANCH   1  32
TORSDOF 6
ENDMDL
MODEL 9
REMARK VINA RESULT:      -8.8      5.713     10.115
REMARK  6 active torsions:
REMARK  status: ('A' for Active; 'I' for Inactive)
REMARK    1  A    between atoms: C_4  and  C_5 
REMARK    2  A    between atoms: C_5  and  N_6 
REMARK    3  A    between atoms: C_14  and  C_15 
REMARK    4  A    between atoms: C_18  and  O_19 
REMARK    5  A    between atoms: O_19  and  C_20 
REMARK    6  A    between atoms: C_20  and  C_21 
ROOT
HETATM    1  N   UNL     1      43.461 -16.081   4.750  1.00  0.00    -0.063 N 
HETATM    2  H   UNL     1      43.997 -15.713   3.956  1.00  0.00     0.280 HD
HETATM    3  C   UNL     1      42.126 -16.510   4.159  1.00  0.00     0.282 C 
HETATM    4  C   UNL     1      41.377 -15.316   3.674  1.00  0.00     0.018 A 
HETATM    5  C   UNL     1      41.644 -14.009   4.041  1.00  0.00    -0.023 A 
HETATM    6  C   UNL     1      40.720 -13.103   3.428  1.00  0.00     0.073 A 
HETATM    7  C   UNL     1      39.788 -13.764   2.665  1.00  0.00     0.088 A 
HETATM    8  N   UNL     1      38.779 -13.146   2.021  1.00  0.00    -0.358 N 
HETATM    9  C   UNL     1      38.805 -11.711   1.847  1.00  0.00     0.219 C 
HETATM   10  N   UNL     1      39.626 -11.068   2.843  1.00  0.00    -0.332 N 
HETATM   11  C   UNL     1      40.645 -11.660   3.534  1.00  0.00     0.256 C 
HETATM   12  O   UNL     1      41.437 -11.004   4.202  1.00  0.00    -0.267 OA
HETATM   13  S   UNL     1      40.038 -15.445   2.634  1.00  0.00    -0.074 SA
HETATM   14  C   UNL     1      42.776 -13.668   4.964  1.00  0.00     0.068 C 
HETATM   15  C   UNL     1      43.288 -14.913   5.715  1.00  0.00     0.240 C 
HETATM   16  H   UNL     1      38.253 -13.653   1.316  1.00  0.00     0.162 HD
HETATM   17  H   UNL     1      39.616 -10.059   2.878  1.00  0.00     0.165 HD
ENDROOT
BRANCH   9  18
HETATM   18  C   UNL     1      39.192 -11.363   0.422  1.00  0.00    -0.016 A 
HETATM   19  C   UNL     1      38.262 -11.575  -0.612  1.00  0.00     0.014 A 
HETATM   20  C   UNL     1      38.573 -11.267  -1.942  1.00  0.00     0.037 A 
HETATM   21  C   UNL     1      39.819 -10.734  -2.263  1.00  0.00     0.069 A 
HETATM   22  C   UNL     1      40.762 -10.553  -1.249  1.00  0.00     0.037 A 
HETATM   23  C   UNL     1      40.457 -10.865   0.078  1.00  0.00     0.014 A 
BRANCH  21  24
HETATM   24  O   UNL     1      40.238 -10.362  -3.509  1.00  0.00    -0.347 OA
BRANCH  24  25
HETATM   25  C   UNL     1      39.633  -9.199  -4.074  1.00  0.00     0.214 C 
BRANCH  25  26
HETATM   26  C   UNL     1      40.727  -8.262  -4.523  1.00  0.00    -0.034 A 
HETATM   27  C   UNL     1      40.658  -7.638  -5.777  1.00  0.00     0.009 A 
HETATM   28  C   UNL     1      41.671  -6.771  -6.192  1.00  0.00     0.001 A 
HETATM   29  C   UNL     1      42.764  -6.525  -5.362  1.00  0.00     0.000 A 
HETATM   30  C   UNL     1      42.847  -7.148  -4.119  1.00  0.00     0.001 A 
HETATM   31  C   UNL     1      41.836  -8.015  -3.702  1.00  0.00     0.009 A 
ENDBRANCH  25  26
ENDBRANCH  24  25
ENDBRANCH  21  24
ENDBRANCH   9  18
BRANCH   1  32
HETATM   32  C   UNL     1      44.277 -17.226   5.294  1.00  0.00     0.273 C 
BRANCH  32  33
HETATM   33  C   UNL     1      44.131 -18.537   4.571  1.00  0.00    -0.033 A 
HETATM   34  C   UNL     1      44.057 -18.571   3.168  1.00  0.00     0.009 A 
HETATM   35  C   UNL     1      43.888 -19.781   2.495  1.00  0.00     0.001 A 
HETATM   36  C   UNL     1      43.797 -20.971   3.212  1.00  0.00     0.000 A 
HETATM   37  C   UNL     1      43.882 -20.955   4.602  1.00  0.00     0.001 A 
HETATM   38  C   UNL     1      44.052 -19.747   5.279  1.00  0.00     0.009 A 
ENDBRANCH  32  33
ENDBRANCH   1  32
TORSDOF 6
ENDMDL
MODEL 10
REMARK VINA RESULT:      -8.8      5.372      9.497
REMARK  6 active torsions:
REMARK  status: ('A' for Active; 'I' for Inactive)
REMARK    1  A    between atoms: C_4  and  C_5 
REMARK    2  A    between atoms: C_5  and  N_6 
REMARK    3  A    between atoms: C_14  and  C_15 
REMARK    4  A    between atoms: C_18  and  O_19 
REMARK    5  A    between atoms: O_19  and  C_20 
REMARK    6  A    between atoms: C_20  and  C_21 
ROOT
HETATM    1  N   UNL     1      43.662 -16.155   4.990  1.00  0.00    -0.063 N 
HETATM    2  H   UNL     1      44.146 -15.645   4.242  1.00  0.00     0.280 HD
HETATM    3  C   UNL     1      42.322 -16.557   4.391  1.00  0.00     0.282 C 
HETATM    4  C   UNL     1      41.500 -15.342   4.124  1.00  0.00     0.018 A 
HETATM    5  C   UNL     1      41.726 -14.094   4.677  1.00  0.00    -0.023 A 
HETATM    6  C   UNL     1      40.736 -13.153   4.245  1.00  0.00     0.073 A 
HETATM    7  C   UNL     1      39.800 -13.737   3.426  1.00  0.00     0.088 A 
HETATM    8  N   UNL     1      38.737 -13.081   2.924  1.00  0.00    -0.358 N 
HETATM    9  C   UNL     1      38.693 -11.636   2.971  1.00  0.00     0.219 C 
HETATM   10  N   UNL     1      39.528 -11.111   4.022  1.00  0.00    -0.332 N 
HETATM   11  C   UNL     1      40.603 -11.748   4.575  1.00  0.00     0.256 C 
HETATM   12  O   UNL     1      41.394 -11.163   5.305  1.00  0.00    -0.267 OA
HETATM   13  S   UNL     1      40.123 -15.380   3.128  1.00  0.00    -0.074 SA
HETATM   14  C   UNL     1      42.883 -13.840   5.597  1.00  0.00     0.068 C 
HETATM   15  C   UNL     1      43.482 -15.158   6.129  1.00  0.00     0.240 C 
HETATM   16  H   UNL     1      38.203 -13.501   2.169  1.00  0.00     0.162 HD
HETATM   17  H   UNL     1      39.476 -10.120   4.211  1.00  0.00     0.165 HD
ENDROOT
BRANCH   9  18
HETATM   18  C   UNL     1      38.999 -11.057   1.602  1.00  0.00    -0.016 A 
HETATM   19  C   UNL     1      40.299 -11.183   1.079  1.00  0.00     0.014 A 
HETATM   20  C   UNL     1      40.627 -10.667  -0.180  1.00  0.00     0.037 A 
HETATM   21  C   UNL     1      39.659 -10.019  -0.944  1.00  0.00     0.069 A 
HETATM   22  C   UNL     1      38.376  -9.856  -0.419  1.00  0.00     0.037 A 
HETATM   23  C   UNL     1      38.046 -10.365   0.840  1.00  0.00     0.014 A 
BRANCH  21  24
HETATM   24  O   UNL     1      39.838  -9.499  -2.195  1.00  0.00    -0.347 OA
BRANCH  24  25
HETATM   25  C   UNL     1      39.171 -10.158  -3.271  1.00  0.00     0.214 C 
BRANCH  25  26
HETATM   26  C   UNL     1      39.266 -11.647  -3.052  1.00  0.00    -0.034 A 
HETATM   27  C   UNL     1      38.117 -12.397  -2.759  1.00  0.00     0.009 A 
HETATM   28  C   UNL     1      38.206 -13.776  -2.556  1.00  0.00     0.001 A 
HETATM   29  C   UNL     1      39.442 -14.416  -2.636  1.00  0.00     0.000 A 
HETATM   30  C   UNL     1      40.591 -13.678  -2.916  1.00  0.00     0.001 A 
HETATM   31  C   UNL     1      40.504 -12.301  -3.120  1.00  0.00     0.009 A 
ENDBRANCH  25  26
ENDBRANCH  24  25
ENDBRANCH  21  24
ENDBRANCH   9  18
BRANCH   1  32
HETATM   32  C   UNL     1      44.551 -17.327   5.321  1.00  0.00     0.273 C 
BRANCH  32  33
HETATM   33  C   UNL     1      44.257 -18.604   4.582  1.00  0.00    -0.033 A 
HETATM   34  C   UNL     1      44.069 -19.806   5.286  1.00  0.00     0.009 A 
HETATM   35  C   UNL     1      43.829 -20.998   4.603  1.00  0.00     0.001 A 
HETATM   36  C   UNL     1      43.768 -21.006   3.212  1.00  0.00     0.000 A 
HETATM   37  C   UNL     1      43.938 -19.820   2.501  1.00  0.00     0.001 A 
HETATM   38  C   UNL     1      44.178 -18.625   3.180  1.00  0.00     0.009 A 
ENDBRANCH  32  33
ENDBRANCH   1  32
TORSDOF 6
ENDMDL
