MODEL 1
REMARK VINA RESULT:      -8.5      0.000      0.000
REMARK  4 active torsions:
REMARK  status: ('A' for Active; 'I' for Inactive)
REMARK    1  A    between atoms: C_6  and  N_7 
REMARK       I    between atoms: N_7  and  C_8 
REMARK    2  A    between atoms: C_8  and  C_9 
REMARK    3  A    between atoms: C_10  and  C_11 
REMARK    4  A    between atoms: C_14  and  O_15 
ROOT
HETATM    1  C   UNL     1      41.066 -12.128   3.284  1.00  0.00     0.131 C 
HETATM    2  C   UNL     1      41.748 -13.203   4.170  1.00  0.00     0.177 C 
HETATM    3  N   UNL     1      42.862 -12.610   4.903  1.00  0.00    -0.088 N 
HETATM    4  C   UNL     1      43.474 -11.433   4.578  1.00  0.00     0.721 A 
HETATM    5  N   UNL     1      43.047 -10.678   3.551  1.00  0.00    -0.218 N 
HETATM    6  C   UNL     1      42.086 -11.198   2.581  1.00  0.00     0.111 C 
HETATM    7  C   UNL     1      41.399  -9.984   1.939  1.00  0.00     0.034 C 
HETATM    8  N   UNL     1      43.344 -13.114   6.058  1.00  0.00    -0.149 NA
HETATM    9  C   UNL     1      44.324 -12.240   6.314  1.00  0.00     0.275 A 
HETATM   10  N   UNL     1      44.432 -11.196   5.435  1.00  0.00    -0.055 NA
HETATM   11  H   UNL     1      43.678  -9.944   3.235  1.00  0.00     0.178 HD
ENDROOT
BRANCH   1  12
HETATM   12  C   UNL     1      40.086 -12.765   2.308  1.00  0.00     0.230 C 
HETATM   13  N   UNL     1      40.588 -12.847   1.019  1.00  0.00    -0.326 N 
HETATM   14  H   UNL     1      41.549 -12.566   0.881  1.00  0.00     0.169 HD
HETATM   15  O   UNL     1      38.984 -13.149   2.686  1.00  0.00    -0.273 OA
BRANCH  13  16
HETATM   16  C   UNL     1      39.934 -13.341  -0.138  1.00  0.00     0.040 A 
HETATM   17  C   UNL     1      39.344 -12.420  -1.031  1.00  0.00    -0.035 A 
HETATM   18  C   UNL     1      38.699 -12.893  -2.190  1.00  0.00     0.015 A 
HETATM   19  C   UNL     1      39.378 -10.932  -0.800  1.00  0.00     0.050 C 
HETATM   20  C   UNL     1      38.615 -14.261  -2.469  1.00  0.00    -0.061 A 
HETATM   21  C   UNL     1      37.959 -14.752  -3.724  1.00  0.00     0.048 C 
HETATM   22  C   UNL     1      39.203 -15.161  -1.582  1.00  0.00     0.009 A 
HETATM   23  C   UNL     1      39.848 -14.707  -0.428  1.00  0.00     0.030 A 
ENDBRANCH  13  16
ENDBRANCH   1  12
BRANCH   2  24
HETATM   24  C   UNL     1      42.184 -14.530   3.553  1.00  0.00    -0.032 A 
HETATM   25  C   UNL     1      43.143 -14.647   2.540  1.00  0.00     0.012 A 
HETATM   26  C   UNL     1      43.496 -15.901   2.028  1.00  0.00     0.037 A 
HETATM   27  C   UNL     1      42.917 -17.069   2.520  1.00  0.00     0.068 A 
HETATM   28  C   UNL     1      41.976 -16.974   3.540  1.00  0.00     0.037 A 
HETATM   29  C   UNL     1      41.617 -15.720   4.049  1.00  0.00     0.012 A 
BRANCH  27  30
HETATM   30  O   UNL     1      43.356 -18.222   1.930  1.00  0.00    -0.356 OA
HETATM   31  C   UNL     1      43.869 -19.229   2.792  1.00  0.00     0.210 C 
ENDBRANCH  27  30
ENDBRANCH   2  24
TORSDOF 4
ENDMDL
MODEL 2
REMARK VINA RESULT:      -8.4      2.646      6.458
REMARK  4 active torsions:
REMARK  status: ('A' for Active; 'I' for Inactive)
REMARK    1  A    between atoms: C_6  and  N_7 
REMARK       I    between atoms: N_7  and  C_8 
REMARK    2  A    between atoms: C_8  and  C_9 
REMARK    3  A    between atoms: C_10  and  C_11 
REMARK    4  A    between atoms: C_14  and  O_15 
ROOT
HETATM    1  C   UNL     1      41.141 -13.665   3.026  1.00  0.00     0.131 C 
HETATM    2  C   UNL     1      41.097 -12.866   4.355  1.00  0.00     0.177 C 
HETATM    3  N   UNL     1      40.256 -11.685   4.198  1.00  0.00    -0.088 N 
HETATM    4  C   UNL     1      39.895 -11.135   3.001  1.00  0.00     0.721 A 
HETATM    5  N   UNL     1      40.259 -11.691   1.832  1.00  0.00    -0.218 N 
HETATM    6  C   UNL     1      41.265 -12.750   1.782  1.00  0.00     0.111 C 
HETATM    7  C   UNL     1      41.029 -13.528   0.479  1.00  0.00     0.034 C 
HETATM    8  N   UNL     1      39.647 -11.063   5.229  1.00  0.00    -0.149 NA
HETATM    9  C   UNL     1      39.020 -10.074   4.581  1.00  0.00     0.275 A 
HETATM   10  N   UNL     1      39.143 -10.088   3.218  1.00  0.00    -0.055 NA
HETATM   11  H   UNL     1      40.148 -11.113   1.001  1.00  0.00     0.178 HD
ENDROOT
BRANCH   1  12
HETATM   12  C   UNL     1      42.217 -14.741   3.070  1.00  0.00     0.230 C 
HETATM   13  N   UNL     1      41.811 -15.880   3.748  1.00  0.00    -0.326 N 
HETATM   14  H   UNL     1      40.850 -15.913   4.056  1.00  0.00     0.169 HD
HETATM   15  O   UNL     1      43.309 -14.560   2.540  1.00  0.00    -0.273 OA
BRANCH  13  16
HETATM   16  C   UNL     1      42.569 -17.049   4.013  1.00  0.00     0.040 A 
HETATM   17  C   UNL     1      42.842 -17.391   5.356  1.00  0.00    -0.035 A 
HETATM   18  C   UNL     1      43.585 -18.554   5.638  1.00  0.00     0.015 A 
HETATM   19  C   UNL     1      42.364 -16.560   6.518  1.00  0.00     0.050 C 
HETATM   20  C   UNL     1      44.073 -19.372   4.614  1.00  0.00    -0.061 A 
HETATM   21  C   UNL     1      44.831 -20.627   4.926  1.00  0.00     0.048 C 
HETATM   22  C   UNL     1      43.796 -19.026   3.293  1.00  0.00     0.009 A 
HETATM   23  C   UNL     1      43.058 -17.876   2.997  1.00  0.00     0.030 A 
ENDBRANCH  13  16
ENDBRANCH   1  12
BRANCH   2  24
HETATM   24  C   UNL     1      42.401 -12.483   5.053  1.00  0.00    -0.032 A 
HETATM   25  C   UNL     1      43.337 -11.584   4.527  1.00  0.00     0.012 A 
HETATM   26  C   UNL     1      44.508 -11.277   5.230  1.00  0.00     0.037 A 
HETATM   27  C   UNL     1      44.769 -11.842   6.477  1.00  0.00     0.068 A 
HETATM   28  C   UNL     1      43.841 -12.722   7.024  1.00  0.00     0.037 A 
HETATM   29  C   UNL     1      42.672 -13.035   6.319  1.00  0.00     0.012 A 
BRANCH  27  30
HETATM   30  O   UNL     1      45.948 -11.452   7.050  1.00  0.00    -0.356 OA
HETATM   31  C   UNL     1      45.911 -10.288   7.866  1.00  0.00     0.210 C 
ENDBRANCH  27  30
ENDBRANCH   2  24
TORSDOF 4
ENDMDL
MODEL 3
REMARK VINA RESULT:      -8.0     16.252     18.754
REMARK  4 active torsions:
REMARK  status: ('A' for Active; 'I' for Inactive)
REMARK    1  A    between atoms: C_6  and  N_7 
REMARK       I    between atoms: N_7  and  C_8 
REMARK    2  A    between atoms: C_8  and  C_9 
REMARK    3  A    between atoms: C_10  and  C_11 
REMARK    4  A    between atoms: C_14  and  O_15 
ROOT
HETATM    1  C   UNL     1      46.129 -28.594   0.393  1.00  0.00     0.131 C 
HETATM    2  C   UNL     1      46.697 -28.704  -1.046  1.00  0.00     0.177 C 
HETATM    3  N   UNL     1      45.620 -28.993  -1.987  1.00  0.00    -0.088 N 
HETATM    4  C   UNL     1      44.395 -29.490  -1.643  1.00  0.00     0.721 A 
HETATM    5  N   UNL     1      44.058 -29.710  -0.361  1.00  0.00    -0.218 N 
HETATM    6  C   UNL     1      45.064 -29.677   0.699  1.00  0.00     0.111 C 
HETATM    7  C   UNL     1      44.320 -29.388   2.011  1.00  0.00     0.034 C 
HETATM    8  N   UNL     1      45.681 -28.696  -3.301  1.00  0.00    -0.149 NA
HETATM    9  C   UNL     1      44.488 -29.146  -3.707  1.00  0.00     0.275 A 
HETATM   10  N   UNL     1      43.672 -29.633  -2.723  1.00  0.00    -0.055 NA
HETATM   11  H   UNL     1      43.231 -30.281  -0.201  1.00  0.00     0.178 HD
ENDROOT
BRANCH   1  12
HETATM   12  C   UNL     1      47.250 -28.568   1.423  1.00  0.00     0.230 C 
HETATM   13  N   UNL     1      47.726 -29.833   1.731  1.00  0.00    -0.326 N 
HETATM   14  H   UNL     1      47.355 -30.606   1.197  1.00  0.00     0.169 HD
HETATM   15  O   UNL     1      47.648 -27.507   1.892  1.00  0.00    -0.273 OA
BRANCH  13  16
HETATM   16  C   UNL     1      48.728 -30.178   2.672  1.00  0.00     0.040 A 
HETATM   17  C   UNL     1      48.334 -30.635   3.949  1.00  0.00    -0.035 A 
HETATM   18  C   UNL     1      49.316 -30.992   4.893  1.00  0.00     0.015 A 
HETATM   19  C   UNL     1      46.888 -30.767   4.352  1.00  0.00     0.050 C 
HETATM   20  C   UNL     1      50.679 -30.887   4.598  1.00  0.00    -0.061 A 
HETATM   21  C   UNL     1      51.717 -31.304   5.596  1.00  0.00     0.048 C 
HETATM   22  C   UNL     1      51.058 -30.437   3.335  1.00  0.00     0.009 A 
HETATM   23  C   UNL     1      50.094 -30.081   2.387  1.00  0.00     0.030 A 
ENDBRANCH  13  16
ENDBRANCH   1  12
BRANCH   2  24
HETATM   24  C   UNL     1      47.886 -29.623  -1.325  1.00  0.00    -0.032 A 
HETATM   25  C   UNL     1      49.215 -29.189  -1.384  1.00  0.00     0.012 A 
HETATM   26  C   UNL     1      50.253 -30.093  -1.638  1.00  0.00     0.037 A 
HETATM   27  C   UNL     1      49.997 -31.451  -1.824  1.00  0.00     0.068 A 
HETATM   28  C   UNL     1      48.684 -31.903  -1.748  1.00  0.00     0.037 A 
HETATM   29  C   UNL     1      47.644 -30.999  -1.501  1.00  0.00     0.012 A 
BRANCH  27  30
HETATM   30  O   UNL     1      51.104 -32.218  -2.062  1.00  0.00    -0.356 OA
HETATM   31  C   UNL     1      52.337 -31.531  -2.228  1.00  0.00     0.210 C 
ENDBRANCH  27  30
ENDBRANCH   2  24
TORSDOF 4
ENDMDL
MODEL 4
REMARK VINA RESULT:      -7.9     16.154     18.209
REMARK  4 active torsions:
REMARK  status: ('A' for Active; 'I' for Inactive)
REMARK    1  A    between atoms: C_6  and  N_7 
REMARK       I    between atoms: N_7  and  C_8 
REMARK    2  A    between atoms: C_8  and  C_9 
REMARK    3  A    between atoms: C_10  and  C_11 
REMARK    4  A    between atoms: C_14  and  O_15 
ROOT
HETATM    1  C   UNL     1      45.526 -29.305   2.114  1.00  0.00     0.131 C 
HETATM    2  C   UNL     1      44.249 -29.243   1.236  1.00  0.00     0.177 C 
HETATM    3  N   UNL     1      43.110 -29.778   1.975  1.00  0.00    -0.088 N 
HETATM    4  C   UNL     1      43.201 -30.575   3.082  1.00  0.00     0.721 A 
HETATM    5  N   UNL     1      44.389 -30.894   3.623  1.00  0.00    -0.218 N 
HETATM    6  C   UNL     1      45.638 -30.627   2.914  1.00  0.00     0.111 C 
HETATM    7  C   UNL     1      46.747 -30.557   3.974  1.00  0.00     0.034 C 
HETATM    8  N   UNL     1      41.829 -29.453   1.705  1.00  0.00    -0.149 NA
HETATM    9  C   UNL     1      41.194 -30.183   2.630  1.00  0.00     0.275 A 
HETATM   10  N   UNL     1      41.998 -30.878   3.492  1.00  0.00    -0.055 NA
HETATM   11  H   UNL     1      44.389 -31.659   4.296  1.00  0.00     0.178 HD
ENDROOT
BRANCH   1  12
HETATM   12  C   UNL     1      46.772 -29.014   1.288  1.00  0.00     0.230 C 
HETATM   13  N   UNL     1      47.306 -30.152   0.703  1.00  0.00    -0.326 N 
HETATM   14  H   UNL     1      46.786 -31.011   0.810  1.00  0.00     0.169 HD
HETATM   15  O   UNL     1      47.205 -27.871   1.186  1.00  0.00    -0.273 OA
BRANCH  13  16
HETATM   16  C   UNL     1      48.478 -30.252  -0.090  1.00  0.00     0.040 A 
HETATM   17  C   UNL     1      49.675 -30.687   0.519  1.00  0.00    -0.035 A 
HETATM   18  C   UNL     1      50.846 -30.802  -0.256  1.00  0.00     0.015 A 
HETATM   19  C   UNL     1      49.758 -31.046   1.979  1.00  0.00     0.050 C 
HETATM   20  C   UNL     1      50.852 -30.478  -1.616  1.00  0.00    -0.061 A 
HETATM   21  C   UNL     1      52.093 -30.638  -2.441  1.00  0.00     0.048 C 
HETATM   22  C   UNL     1      49.664 -30.051  -2.208  1.00  0.00     0.009 A 
HETATM   23  C   UNL     1      48.494 -29.933  -1.452  1.00  0.00     0.030 A 
ENDBRANCH  13  16
ENDBRANCH   1  12
BRANCH   2  24
HETATM   24  C   UNL     1      44.268 -29.827  -0.175  1.00  0.00    -0.032 A 
HETATM   25  C   UNL     1      44.121 -31.189  -0.463  1.00  0.00     0.012 A 
HETATM   26  C   UNL     1      44.145 -31.649  -1.784  1.00  0.00     0.037 A 
HETATM   27  C   UNL     1      44.297 -30.766  -2.852  1.00  0.00     0.068 A 
HETATM   28  C   UNL     1      44.424 -29.407  -2.586  1.00  0.00     0.037 A 
HETATM   29  C   UNL     1      44.409 -28.945  -1.265  1.00  0.00     0.012 A 
BRANCH  27  30
HETATM   30  O   UNL     1      44.300 -31.352  -4.088  1.00  0.00    -0.356 OA
HETATM   31  C   UNL     1      44.118 -30.492  -5.206  1.00  0.00     0.210 C 
ENDBRANCH  27  30
ENDBRANCH   2  24
TORSDOF 4
ENDMDL
MODEL 5
REMARK VINA RESULT:      -7.8      3.121      6.903
REMARK  4 active torsions:
REMARK  status: ('A' for Active; 'I' for Inactive)
REMARK    1  A    between atoms: C_6  and  N_7 
REMARK       I    between atoms: N_7  and  C_8 
REMARK    2  A    between atoms: C_8  and  C_9 
REMARK    3  A    between atoms: C_10  and  C_11 
REMARK    4  A    between atoms: C_14  and  O_15 
ROOT
HETATM    1  C   UNL     1      42.390 -16.631   5.330  1.00  0.00     0.131 C 
HETATM    2  C   UNL     1      41.918 -16.934   3.883  1.00  0.00     0.177 C 
HETATM    3  N   UNL     1      42.779 -17.946   3.280  1.00  0.00    -0.088 N 
HETATM    4  C   UNL     1      44.024 -18.282   3.730  1.00  0.00     0.721 A 
HETATM    5  N   UNL     1      44.549 -17.721   4.833  1.00  0.00    -0.218 N 
HETATM    6  C   UNL     1      43.932 -16.549   5.451  1.00  0.00     0.111 C 
HETATM    7  C   UNL     1      44.386 -16.526   6.918  1.00  0.00     0.034 C 
HETATM    8  N   UNL     1      42.389 -18.745   2.265  1.00  0.00    -0.149 NA
HETATM    9  C   UNL     1      43.500 -19.468   2.085  1.00  0.00     0.275 A 
HETATM   10  N   UNL     1      44.519 -19.219   2.964  1.00  0.00    -0.055 NA
HETATM   11  H   UNL     1      45.549 -17.852   4.976  1.00  0.00     0.178 HD
ENDROOT
BRANCH   1  12
HETATM   12  C   UNL     1      41.694 -15.396   5.884  1.00  0.00     0.230 C 
HETATM   13  N   UNL     1      42.332 -14.216   5.533  1.00  0.00    -0.326 N 
HETATM   14  H   UNL     1      43.114 -14.288   4.897  1.00  0.00     0.169 HD
HETATM   15  O   UNL     1      40.676 -15.499   6.561  1.00  0.00    -0.273 OA
BRANCH  13  16
HETATM   16  C   UNL     1      41.983 -12.895   5.910  1.00  0.00     0.040 A 
HETATM   17  C   UNL     1      42.977 -12.062   6.469  1.00  0.00    -0.035 A 
HETATM   18  C   UNL     1      42.650 -10.743   6.840  1.00  0.00     0.015 A 
HETATM   19  C   UNL     1      44.394 -12.524   6.685  1.00  0.00     0.050 C 
HETATM   20  C   UNL     1      41.354 -10.243   6.681  1.00  0.00    -0.061 A 
HETATM   21  C   UNL     1      41.024  -8.827   7.044  1.00  0.00     0.048 C 
HETATM   22  C   UNL     1      40.380 -11.073   6.126  1.00  0.00     0.009 A 
HETATM   23  C   UNL     1      40.690 -12.384   5.752  1.00  0.00     0.030 A 
ENDBRANCH  13  16
ENDBRANCH   1  12
BRANCH   2  24
HETATM   24  C   UNL     1      41.704 -15.786   2.898  1.00  0.00    -0.032 A 
HETATM   25  C   UNL     1      42.739 -15.011   2.361  1.00  0.00     0.012 A 
HETATM   26  C   UNL     1      42.464 -13.977   1.458  1.00  0.00     0.037 A 
HETATM   27  C   UNL     1      41.159 -13.699   1.054  1.00  0.00     0.068 A 
HETATM   28  C   UNL     1      40.121 -14.473   1.563  1.00  0.00     0.037 A 
HETATM   29  C   UNL     1      40.392 -15.502   2.472  1.00  0.00     0.012 A 
BRANCH  27  30
HETATM   30  O   UNL     1      41.038 -12.666   0.168  1.00  0.00    -0.356 OA
HETATM   31  C   UNL     1      40.418 -12.958  -1.077  1.00  0.00     0.210 C 
ENDBRANCH  27  30
ENDBRANCH   2  24
TORSDOF 4
ENDMDL
MODEL 6
REMARK VINA RESULT:      -7.8      2.348      6.053
REMARK  4 active torsions:
REMARK  status: ('A' for Active; 'I' for Inactive)
REMARK    1  A    between atoms: C_6  and  N_7 
REMARK       I    between atoms: N_7  and  C_8 
REMARK    2  A    between atoms: C_8  and  C_9 
REMARK    3  A    between atoms: C_10  and  C_11 
REMARK    4  A    between atoms: C_14  and  O_15 
ROOT
HETATM    1  C   UNL     1      41.944 -13.235   4.965  1.00  0.00     0.131 C 
HETATM    2  C   UNL     1      41.512 -12.002   4.128  1.00  0.00     0.177 C 
HETATM    3  N   UNL     1      40.627 -11.151   4.916  1.00  0.00    -0.088 N 
HETATM    4  C   UNL     1      39.954 -11.548   6.036  1.00  0.00     0.721 A 
HETATM    5  N   UNL     1      40.101 -12.783   6.546  1.00  0.00    -0.218 N 
HETATM    6  C   UNL     1      40.778 -13.835   5.790  1.00  0.00     0.111 C 
HETATM    7  C   UNL     1      41.277 -14.868   6.811  1.00  0.00     0.034 C 
HETATM    8  N   UNL     1      40.460  -9.833   4.681  1.00  0.00    -0.149 NA
HETATM    9  C   UNL     1      39.580  -9.525   5.642  1.00  0.00     0.275 A 
HETATM   10  N   UNL     1      39.251 -10.544   6.493  1.00  0.00    -0.055 NA
HETATM   11  H   UNL     1      39.411 -13.074   7.235  1.00  0.00     0.178 HD
ENDROOT
BRANCH   1  12
HETATM   12  C   UNL     1      42.636 -14.273   4.091  1.00  0.00     0.230 C 
HETATM   13  N   UNL     1      42.182 -15.561   4.325  1.00  0.00    -0.326 N 
HETATM   14  H   UNL     1      41.407 -15.666   4.964  1.00  0.00     0.169 HD
HETATM   15  O   UNL     1      43.496 -13.940   3.282  1.00  0.00    -0.273 OA
BRANCH  13  16
HETATM   16  C   UNL     1      42.634 -16.764   3.725  1.00  0.00     0.040 A 
HETATM   17  C   UNL     1      43.657 -17.499   4.363  1.00  0.00    -0.035 A 
HETATM   18  C   UNL     1      44.111 -18.701   3.786  1.00  0.00     0.015 A 
HETATM   19  C   UNL     1      44.289 -17.055   5.656  1.00  0.00     0.050 C 
HETATM   20  C   UNL     1      43.582 -19.175   2.582  1.00  0.00    -0.061 A 
HETATM   21  C   UNL     1      44.046 -20.474   1.994  1.00  0.00     0.048 C 
HETATM   22  C   UNL     1      42.571 -18.442   1.961  1.00  0.00     0.009 A 
HETATM   23  C   UNL     1      42.109 -17.248   2.523  1.00  0.00     0.030 A 
ENDBRANCH  13  16
ENDBRANCH   1  12
BRANCH   2  24
HETATM   24  C   UNL     1      40.929 -12.199   2.730  1.00  0.00    -0.032 A 
HETATM   25  C   UNL     1      39.783 -12.956   2.458  1.00  0.00     0.012 A 
HETATM   26  C   UNL     1      39.304 -13.087   1.149  1.00  0.00     0.037 A 
HETATM   27  C   UNL     1      39.942 -12.455   0.083  1.00  0.00     0.068 A 
HETATM   28  C   UNL     1      41.070 -11.682   0.337  1.00  0.00     0.037 A 
HETATM   29  C   UNL     1      41.555 -11.557   1.644  1.00  0.00     0.012 A 
BRANCH  27  30
HETATM   30  O   UNL     1      39.366 -12.667  -1.139  1.00  0.00    -0.356 OA
HETATM   31  C   UNL     1      39.105 -14.017  -1.500  1.00  0.00     0.210 C 
ENDBRANCH  27  30
ENDBRANCH   2  24
TORSDOF 4
ENDMDL
MODEL 7
REMARK VINA RESULT:      -7.8      2.186      6.026
REMARK  4 active torsions:
REMARK  status: ('A' for Active; 'I' for Inactive)
REMARK    1  A    between atoms: C_6  and  N_7 
REMARK       I    between atoms: N_7  and  C_8 
REMARK    2  A    between atoms: C_8  and  C_9 
REMARK    3  A    between atoms: C_10  and  C_11 
REMARK    4  A    between atoms: C_14  and  O_15 
ROOT
HETATM    1  C   UNL     1      40.713 -12.167   3.380  1.00  0.00     0.131 C 
HETATM    2  C   UNL     1      40.833 -11.460   2.004  1.00  0.00     0.177 C 
HETATM    3  N   UNL     1      40.468 -10.053   2.135  1.00  0.00    -0.088 N 
HETATM    4  C   UNL     1      39.753  -9.523   3.171  1.00  0.00     0.721 A 
HETATM    5  N   UNL     1      39.360 -10.276   4.213  1.00  0.00    -0.218 N 
HETATM    6  C   UNL     1      39.450 -11.734   4.167  1.00  0.00     0.111 C 
HETATM    7  C   UNL     1      39.491 -12.225   5.621  1.00  0.00     0.034 C 
HETATM    8  N   UNL     1      40.895  -9.092   1.289  1.00  0.00    -0.149 NA
HETATM    9  C   UNL     1      40.303  -8.018   1.822  1.00  0.00     0.275 A 
HETATM   10  N   UNL     1      39.600  -8.240   2.976  1.00  0.00    -0.055 NA
HETATM   11  H   UNL     1      38.652  -9.872   4.823  1.00  0.00     0.178 HD
ENDROOT
BRANCH   1  12
HETATM   12  C   UNL     1      40.817 -13.679   3.228  1.00  0.00     0.230 C 
HETATM   13  N   UNL     1      42.119 -14.141   3.342  1.00  0.00    -0.326 N 
HETATM   14  H   UNL     1      42.827 -13.465   3.591  1.00  0.00     0.169 HD
HETATM   15  O   UNL     1      39.817 -14.361   3.029  1.00  0.00    -0.273 OA
BRANCH  13  16
HETATM   16  C   UNL     1      42.581 -15.476   3.211  1.00  0.00     0.040 A 
HETATM   17  C   UNL     1      42.937 -16.188   4.377  1.00  0.00    -0.035 A 
HETATM   18  C   UNL     1      43.388 -17.518   4.266  1.00  0.00     0.015 A 
HETATM   19  C   UNL     1      42.850 -15.586   5.755  1.00  0.00     0.050 C 
HETATM   20  C   UNL     1      43.506 -18.145   3.022  1.00  0.00    -0.061 A 
HETATM   21  C   UNL     1      43.952 -19.572   2.917  1.00  0.00     0.048 C 
HETATM   22  C   UNL     1      43.150 -17.433   1.878  1.00  0.00     0.009 A 
HETATM   23  C   UNL     1      42.699 -16.113   1.972  1.00  0.00     0.030 A 
ENDBRANCH  13  16
ENDBRANCH   1  12
BRANCH   2  24
HETATM   24  C   UNL     1      40.145 -12.060   0.779  1.00  0.00    -0.032 A 
HETATM   25  C   UNL     1      40.767 -12.933  -0.120  1.00  0.00     0.012 A 
HETATM   26  C   UNL     1      40.069 -13.448  -1.219  1.00  0.00     0.037 A 
HETATM   27  C   UNL     1      38.732 -13.121  -1.441  1.00  0.00     0.068 A 
HETATM   28  C   UNL     1      38.092 -12.270  -0.546  1.00  0.00     0.037 A 
HETATM   29  C   UNL     1      38.791 -11.748   0.550  1.00  0.00     0.012 A 
BRANCH  27  30
HETATM   30  O   UNL     1      38.175 -13.696  -2.548  1.00  0.00    -0.356 OA
HETATM   31  C   UNL     1      38.645 -14.989  -2.905  1.00  0.00     0.210 C 
ENDBRANCH  27  30
ENDBRANCH   2  24
TORSDOF 4
ENDMDL
MODEL 8
REMARK VINA RESULT:      -7.6      2.406      4.988
REMARK  4 active torsions:
REMARK  status: ('A' for Active; 'I' for Inactive)
REMARK    1  A    between atoms: C_6  and  N_7 
REMARK       I    between atoms: N_7  and  C_8 
REMARK    2  A    between atoms: C_8  and  C_9 
REMARK    3  A    between atoms: C_10  and  C_11 
REMARK    4  A    between atoms: C_14  and  O_15 
ROOT
HETATM    1  C   UNL     1      42.425 -14.689   3.629  1.00  0.00     0.131 C 
HETATM    2  C   UNL     1      42.489 -13.843   4.928  1.00  0.00     0.177 C 
HETATM    3  N   UNL     1      42.673 -14.717   6.082  1.00  0.00    -0.088 N 
HETATM    4  C   UNL     1      42.423 -16.060   6.094  1.00  0.00     0.721 A 
HETATM    5  N   UNL     1      42.024 -16.711   4.988  1.00  0.00    -0.218 N 
HETATM    6  C   UNL     1      41.589 -15.982   3.798  1.00  0.00     0.111 C 
HETATM    7  C   UNL     1      41.764 -16.932   2.604  1.00  0.00     0.034 C 
HETATM    8  N   UNL     1      43.218 -14.306   7.246  1.00  0.00    -0.149 NA
HETATM    9  C   UNL     1      43.164 -15.441   7.953  1.00  0.00     0.275 A 
HETATM   10  N   UNL     1      42.689 -16.535   7.282  1.00  0.00    -0.055 NA
HETATM   11  H   UNL     1      41.647 -17.647   5.125  1.00  0.00     0.178 HD
ENDROOT
BRANCH   1  12
HETATM   12  C   UNL     1      41.962 -13.844   2.449  1.00  0.00     0.230 C 
HETATM   13  N   UNL     1      40.740 -14.255   1.940  1.00  0.00    -0.326 N 
HETATM   14  H   UNL     1      40.258 -14.990   2.439  1.00  0.00     0.169 HD
HETATM   15  O   UNL     1      42.643 -12.909   2.041  1.00  0.00    -0.273 OA
BRANCH  13  16
HETATM   16  C   UNL     1      40.041 -13.726   0.826  1.00  0.00     0.040 A 
HETATM   17  C   UNL     1      39.307 -12.530   0.991  1.00  0.00    -0.035 A 
HETATM   18  C   UNL     1      38.615 -11.984  -0.108  1.00  0.00     0.015 A 
HETATM   19  C   UNL     1      39.235 -11.797   2.304  1.00  0.00     0.050 C 
HETATM   20  C   UNL     1      38.625 -12.611  -1.358  1.00  0.00    -0.061 A 
HETATM   21  C   UNL     1      37.915 -12.003  -2.530  1.00  0.00     0.048 C 
HETATM   22  C   UNL     1      39.354 -13.789  -1.510  1.00  0.00     0.009 A 
HETATM   23  C   UNL     1      40.047 -14.342  -0.429  1.00  0.00     0.030 A 
ENDBRANCH  13  16
ENDBRANCH   1  12
BRANCH   2  24
HETATM   24  C   UNL     1      41.392 -12.821   5.224  1.00  0.00    -0.032 A 
HETATM   25  C   UNL     1      40.094 -13.158   5.622  1.00  0.00     0.012 A 
HETATM   26  C   UNL     1      39.143 -12.164   5.882  1.00  0.00     0.037 A 
HETATM   27  C   UNL     1      39.464 -10.812   5.767  1.00  0.00     0.068 A 
HETATM   28  C   UNL     1      40.756 -10.459   5.391  1.00  0.00     0.037 A 
HETATM   29  C   UNL     1      41.706 -11.452   5.124  1.00  0.00     0.012 A 
BRANCH  27  30
HETATM   30  O   UNL     1      38.442  -9.951   6.052  1.00  0.00    -0.356 OA
HETATM   31  C   UNL     1      38.340  -8.786   5.244  1.00  0.00     0.210 C 
ENDBRANCH  27  30
ENDBRANCH   2  24
TORSDOF 4
ENDMDL
MODEL 9
REMARK VINA RESULT:      -7.5      2.943      5.818
REMARK  4 active torsions:
REMARK  status: ('A' for Active; 'I' for Inactive)
REMARK    1  A    between atoms: C_6  and  N_7 
REMARK       I    between atoms: N_7  and  C_8 
REMARK    2  A    between atoms: C_8  and  C_9 
REMARK    3  A    between atoms: C_10  and  C_11 
REMARK    4  A    between atoms: C_14  and  O_15 
ROOT
HETATM    1  C   UNL     1      40.677 -11.797   3.446  1.00  0.00     0.131 C 
HETATM    2  C   UNL     1      40.613 -11.493   4.966  1.00  0.00     0.177 C 
HETATM    3  N   UNL     1      39.843 -10.276   5.198  1.00  0.00    -0.088 N 
HETATM    4  C   UNL     1      39.569  -9.331   4.251  1.00  0.00     0.721 A 
HETATM    5  N   UNL     1      39.958  -9.482   2.973  1.00  0.00    -0.218 N 
HETATM    6  C   UNL     1      40.908 -10.525   2.591  1.00  0.00     0.111 C 
HETATM    7  C   UNL     1      40.694 -10.799   1.096  1.00  0.00     0.034 C 
HETATM    8  N   UNL     1      39.221 -10.001   6.363  1.00  0.00    -0.149 NA
HETATM    9  C   UNL     1      38.678  -8.812   6.074  1.00  0.00     0.275 A 
HETATM   10  N   UNL     1      38.864  -8.372   4.792  1.00  0.00    -0.055 NA
HETATM   11  H   UNL     1      39.917  -8.651   2.386  1.00  0.00     0.178 HD
ENDROOT
BRANCH   1  12
HETATM   12  C   UNL     1      41.692 -12.892   3.149  1.00  0.00     0.230 C 
HETATM   13  N   UNL     1      41.222 -14.159   3.459  1.00  0.00    -0.326 N 
HETATM   14  H   UNL     1      40.259 -14.231   3.757  1.00  0.00     0.169 HD
HETATM   15  O   UNL     1      42.793 -12.619   2.683  1.00  0.00    -0.273 OA
BRANCH  13  16
HETATM   16  C   UNL     1      41.912 -15.392   3.351  1.00  0.00     0.040 A 
HETATM   17  C   UNL     1      41.527 -16.301   2.341  1.00  0.00    -0.035 A 
HETATM   18  C   UNL     1      42.210 -17.526   2.212  1.00  0.00     0.015 A 
HETATM   19  C   UNL     1      40.408 -16.012   1.375  1.00  0.00     0.050 C 
HETATM   20  C   UNL     1      43.253 -17.872   3.077  1.00  0.00    -0.061 A 
HETATM   21  C   UNL     1      43.997 -19.162   2.910  1.00  0.00     0.048 C 
HETATM   22  C   UNL     1      43.626 -16.967   4.070  1.00  0.00     0.009 A 
HETATM   23  C   UNL     1      42.960 -15.746   4.208  1.00  0.00     0.030 A 
ENDBRANCH  13  16
ENDBRANCH   1  12
BRANCH   2  24
HETATM   24  C   UNL     1      41.901 -11.455   5.787  1.00  0.00    -0.032 A 
HETATM   25  C   UNL     1      42.585 -10.279   6.118  1.00  0.00     0.012 A 
HETATM   26  C   UNL     1      43.758 -10.324   6.881  1.00  0.00     0.037 A 
HETATM   27  C   UNL     1      44.269 -11.534   7.346  1.00  0.00     0.068 A 
HETATM   28  C   UNL     1      43.592 -12.710   7.044  1.00  0.00     0.037 A 
HETATM   29  C   UNL     1      42.422 -12.668   6.275  1.00  0.00     0.012 A 
BRANCH  27  30
HETATM   30  O   UNL     1      45.418 -11.429   8.080  1.00  0.00    -0.356 OA
HETATM   31  C   UNL     1      46.293 -10.357   7.753  1.00  0.00     0.210 C 
ENDBRANCH  27  30
ENDBRANCH   2  24
TORSDOF 4
ENDMDL
MODEL 10
REMARK VINA RESULT:      -7.4      2.939      5.776
REMARK  4 active torsions:
REMARK  status: ('A' for Active; 'I' for Inactive)
REMARK    1  A    between atoms: C_6  and  N_7 
REMARK       I    between atoms: N_7  and  C_8 
REMARK    2  A    between atoms: C_8  and  C_9 
REMARK    3  A    between atoms: C_10  and  C_11 
REMARK    4  A    between atoms: C_14  and  O_15 
ROOT
HETATM    1  C   UNL     1      41.914 -15.560   6.041  1.00  0.00     0.131 C 
HETATM    2  C   UNL     1      41.830 -16.532   4.834  1.00  0.00     0.177 C 
HETATM    3  N   UNL     1      43.067 -17.299   4.727  1.00  0.00    -0.088 N 
HETATM    4  C   UNL     1      44.253 -16.956   5.310  1.00  0.00     0.721 A 
HETATM    5  N   UNL     1      44.363 -15.874   6.099  1.00  0.00    -0.218 N 
HETATM    6  C   UNL     1      43.298 -14.875   6.162  1.00  0.00     0.111 C 
HETATM    7  C   UNL     1      43.453 -14.140   7.501  1.00  0.00     0.034 C 
HETATM    8  N   UNL     1      43.145 -18.502   4.119  1.00  0.00    -0.149 NA
HETATM    9  C   UNL     1      44.445 -18.772   4.285  1.00  0.00     0.275 A 
HETATM   10  N   UNL     1      45.154 -17.855   5.012  1.00  0.00    -0.055 NA
HETATM   11  H   UNL     1      45.308 -15.561   6.311  1.00  0.00     0.178 HD
ENDROOT
BRANCH   1  12
HETATM   12  C   UNL     1      40.766 -14.560   6.018  1.00  0.00     0.230 C 
HETATM   13  N   UNL     1      41.128 -13.339   5.472  1.00  0.00    -0.326 N 
HETATM   14  H   UNL     1      42.057 -13.268   5.081  1.00  0.00     0.169 HD
HETATM   15  O   UNL     1      39.658 -14.865   6.449  1.00  0.00    -0.273 OA
BRANCH  13  16
HETATM   16  C   UNL     1      40.327 -12.177   5.336  1.00  0.00     0.040 A 
HETATM   17  C   UNL     1      40.336 -11.486   4.104  1.00  0.00    -0.035 A 
HETATM   18  C   UNL     1      39.538 -10.335   3.948  1.00  0.00     0.015 A 
HETATM   19  C   UNL     1      41.167 -11.932   2.930  1.00  0.00     0.050 C 
HETATM   20  C   UNL     1      38.747  -9.852   4.995  1.00  0.00    -0.061 A 
HETATM   21  C   UNL     1      37.873  -8.648   4.807  1.00  0.00     0.048 C 
HETATM   22  C   UNL     1      38.744 -10.542   6.205  1.00  0.00     0.009 A 
HETATM   23  C   UNL     1      39.529 -11.687   6.375  1.00  0.00     0.030 A 
ENDBRANCH  13  16
ENDBRANCH   1  12
BRANCH   2  24
HETATM   24  C   UNL     1      41.431 -16.001   3.459  1.00  0.00    -0.032 A 
HETATM   25  C   UNL     1      40.113 -15.954   2.989  1.00  0.00     0.012 A 
HETATM   26  C   UNL     1      39.823 -15.447   1.717  1.00  0.00     0.037 A 
HETATM   27  C   UNL     1      40.833 -14.961   0.888  1.00  0.00     0.068 A 
HETATM   28  C   UNL     1      42.146 -14.982   1.346  1.00  0.00     0.037 A 
HETATM   29  C   UNL     1      42.438 -15.495   2.616  1.00  0.00     0.012 A 
BRANCH  27  30
HETATM   30  O   UNL     1      40.408 -14.495  -0.325  1.00  0.00    -0.356 OA
HETATM   31  C   UNL     1      39.722 -13.250  -0.329  1.00  0.00     0.210 C 
ENDBRANCH  27  30
ENDBRANCH   2  24
TORSDOF 4
ENDMDL
