MODEL 1
REMARK VINA RESULT:      -9.1      0.000      0.000
REMARK  3 active torsions:
REMARK  status: ('A' for Active; 'I' for Inactive)
REMARK    1  A    between atoms: N_4  and  C_5 
REMARK    2  A    between atoms: C_5  and  C_6 
REMARK       I    between atoms: C_6  and  N_7 
REMARK    3  A    between atoms: N_7  and  C_8 
ROOT
HETATM    1  C   UNL     1      41.826 -12.206   3.540  1.00  0.00     0.257 C 
ENDROOT
BRANCH   1   2
HETATM    2  N   UNL     1      41.236 -12.596   2.258  1.00  0.00    -0.225 N 
HETATM    3  N   UNL     1      40.730 -13.876   2.207  1.00  0.00    -0.173 NA
HETATM    4  C   UNL     1      40.361 -14.374   1.068  1.00  0.00     0.062 A 
HETATM    5  C   UNL     1      39.833 -15.791   1.065  1.00  0.00     0.073 C 
HETATM    6  C   UNL     1      40.451 -13.638  -0.206  1.00  0.00     0.006 A 
HETATM    7  C   UNL     1      40.977 -12.352  -0.158  1.00  0.00     0.046 A 
HETATM    8  C   UNL     1      40.046 -14.181  -1.432  1.00  0.00     0.014 A 
HETATM    9  C   UNL     1      41.433 -11.804   1.133  1.00  0.00     0.275 A 
HETATM   10  C   UNL     1      41.091 -11.594  -1.330  1.00  0.00     0.018 A 
HETATM   11  O   UNL     1      41.954 -10.689   1.172  1.00  0.00    -0.266 OA
HETATM   12  C   UNL     1      40.684 -12.133  -2.551  1.00  0.00     0.001 A 
HETATM   13  C   UNL     1      40.166 -13.426  -2.601  1.00  0.00     0.001 A 
ENDBRANCH   1   2
BRANCH   1  14
HETATM   14  C   UNL     1      41.971 -13.315   4.587  1.00  0.00     0.238 C 
HETATM   15  N   UNL     1      42.785 -14.367   4.234  1.00  0.00    -0.351 N 
HETATM   16  H   UNL     1      43.259 -14.337   3.331  1.00  0.00     0.163 HD
HETATM   17  O   UNL     1      41.279 -13.339   5.604  1.00  0.00    -0.272 OA
BRANCH  15  18
HETATM   18  C   UNL     1      42.803 -15.596   4.987  1.00  0.00     0.118 C 
HETATM   19  C   UNL     1      43.152 -16.803   4.160  1.00  0.00    -0.029 A 
HETATM   20  C   UNL     1      43.985 -17.668   4.881  1.00  0.00    -0.050 A 
HETATM   21  C   UNL     1      42.704 -17.145   2.891  1.00  0.00     0.010 A 
HETATM   22  C   UNL     1      44.390 -18.882   4.352  1.00  0.00     0.007 A 
HETATM   23  C   UNL     1      44.275 -17.114   6.242  1.00  0.00     0.041 C 
HETATM   24  C   UNL     1      43.956 -19.223   3.069  1.00  0.00     0.001 A 
HETATM   25  C   UNL     1      43.121 -18.360   2.343  1.00  0.00     0.001 A 
HETATM   26  C   UNL     1      43.917 -15.634   6.049  1.00  0.00     0.034 C 
ENDBRANCH  15  18
ENDBRANCH   1  14
TORSDOF 3
ENDMDL
MODEL 2
REMARK VINA RESULT:      -9.0      3.907      7.108
REMARK  3 active torsions:
REMARK  status: ('A' for Active; 'I' for Inactive)
REMARK    1  A    between atoms: N_4  and  C_5 
REMARK    2  A    between atoms: C_5  and  C_6 
REMARK       I    between atoms: C_6  and  N_7 
REMARK    3  A    between atoms: N_7  and  C_8 
ROOT
HETATM    1  C   UNL     1      42.246 -12.905   4.514  1.00  0.00     0.257 C 
ENDROOT
BRANCH   1   2
HETATM    2  N   UNL     1      42.550 -14.337   4.508  1.00  0.00    -0.225 N 
HETATM    3  N   UNL     1      43.255 -14.794   5.599  1.00  0.00    -0.173 NA
HETATM    4  C   UNL     1      43.732 -16.000   5.594  1.00  0.00     0.062 A 
HETATM    5  C   UNL     1      44.518 -16.444   6.807  1.00  0.00     0.073 C 
HETATM    6  C   UNL     1      43.562 -16.934   4.466  1.00  0.00     0.006 A 
HETATM    7  C   UNL     1      42.864 -16.468   3.358  1.00  0.00     0.046 A 
HETATM    8  C   UNL     1      44.075 -18.237   4.470  1.00  0.00     0.014 A 
HETATM    9  C   UNL     1      42.358 -15.083   3.351  1.00  0.00     0.275 A 
HETATM   10  C   UNL     1      42.663 -17.302   2.251  1.00  0.00     0.018 A 
HETATM   11  O   UNL     1      41.791 -14.646   2.349  1.00  0.00    -0.266 OA
HETATM   12  C   UNL     1      43.171 -18.601   2.255  1.00  0.00     0.001 A 
HETATM   13  C   UNL     1      43.880 -19.066   3.362  1.00  0.00     0.001 A 
ENDBRANCH   1   2
BRANCH   1  14
HETATM   14  C   UNL     1      43.407 -11.964   4.850  1.00  0.00     0.238 C 
HETATM   15  N   UNL     1      43.664 -11.787   6.190  1.00  0.00    -0.351 N 
HETATM   16  H   UNL     1      43.101 -12.301   6.868  1.00  0.00     0.163 HD
HETATM   17  O   UNL     1      43.965 -11.290   3.984  1.00  0.00    -0.272 OA
BRANCH  15  18
HETATM   18  C   UNL     1      44.531 -10.736   6.661  1.00  0.00     0.118 C 
HETATM   19  C   UNL     1      44.230 -10.295   8.067  1.00  0.00    -0.029 A 
HETATM   20  C   UNL     1      45.418 -10.047   8.768  1.00  0.00    -0.050 A 
HETATM   21  C   UNL     1      42.997 -10.058   8.658  1.00  0.00     0.010 A 
HETATM   22  C   UNL     1      45.398  -9.565  10.067  1.00  0.00     0.007 A 
HETATM   23  C   UNL     1      46.611 -10.311   7.903  1.00  0.00     0.041 C 
HETATM   24  C   UNL     1      44.159  -9.342  10.671  1.00  0.00     0.001 A 
HETATM   25  C   UNL     1      42.967  -9.588   9.973  1.00  0.00     0.001 A 
HETATM   26  C   UNL     1      45.997 -11.185   6.801  1.00  0.00     0.034 C 
ENDBRANCH  15  18
ENDBRANCH   1  14
TORSDOF 3
ENDMDL
MODEL 3
REMARK VINA RESULT:      -8.9      3.953      7.051
REMARK  3 active torsions:
REMARK  status: ('A' for Active; 'I' for Inactive)
REMARK    1  A    between atoms: N_4  and  C_5 
REMARK    2  A    between atoms: C_5  and  C_6 
REMARK       I    between atoms: C_6  and  N_7 
REMARK    3  A    between atoms: N_7  and  C_8 
ROOT
HETATM    1  C   UNL     1      41.763 -13.622   5.983  1.00  0.00     0.257 C 
ENDROOT
BRANCH   1   2
HETATM    2  N   UNL     1      42.127 -14.657   5.015  1.00  0.00    -0.225 N 
HETATM    3  N   UNL     1      41.301 -14.756   3.918  1.00  0.00    -0.173 NA
HETATM    4  C   UNL     1      41.430 -15.759   3.106  1.00  0.00     0.062 A 
HETATM    5  C   UNL     1      40.483 -15.831   1.930  1.00  0.00     0.073 C 
HETATM    6  C   UNL     1      42.430 -16.827   3.290  1.00  0.00     0.006 A 
HETATM    7  C   UNL     1      43.254 -16.737   4.406  1.00  0.00     0.046 A 
HETATM    8  C   UNL     1      42.568 -17.905   2.406  1.00  0.00     0.014 A 
HETATM    9  C   UNL     1      43.078 -15.616   5.348  1.00  0.00     0.275 A 
HETATM   10  C   UNL     1      44.228 -17.715   4.643  1.00  0.00     0.018 A 
HETATM   11  O   UNL     1      43.764 -15.564   6.369  1.00  0.00    -0.266 OA
HETATM   12  C   UNL     1      44.368 -18.788   3.761  1.00  0.00     0.001 A 
HETATM   13  C   UNL     1      43.535 -18.883   2.647  1.00  0.00     0.001 A 
ENDBRANCH   1   2
BRANCH   1  14
HETATM   14  C   UNL     1      42.566 -12.319   5.920  1.00  0.00     0.238 C 
HETATM   15  N   UNL     1      43.683 -12.267   6.721  1.00  0.00    -0.351 N 
HETATM   16  H   UNL     1      43.927 -13.088   7.275  1.00  0.00     0.163 HD
HETATM   17  O   UNL     1      42.148 -11.330   5.317  1.00  0.00    -0.272 OA
BRANCH  15  18
HETATM   18  C   UNL     1      44.374 -11.028   6.975  1.00  0.00     0.118 C 
HETATM   19  C   UNL     1      44.241 -10.545   8.393  1.00  0.00    -0.029 A 
HETATM   20  C   UNL     1      45.453 -10.005   8.844  1.00  0.00    -0.050 A 
HETATM   21  C   UNL     1      43.110 -10.517   9.198  1.00  0.00     0.010 A 
HETATM   22  C   UNL     1      45.561  -9.435  10.102  1.00  0.00     0.007 A 
HETATM   23  C   UNL     1      46.501 -10.090   7.779  1.00  0.00     0.041 C 
HETATM   24  C   UNL     1      44.430  -9.420  10.921  1.00  0.00     0.001 A 
HETATM   25  C   UNL     1      43.214  -9.958  10.473  1.00  0.00     0.001 A 
HETATM   26  C   UNL     1      45.904 -11.156   6.851  1.00  0.00     0.034 C 
ENDBRANCH  15  18
ENDBRANCH   1  14
TORSDOF 3
ENDMDL
MODEL 4
REMARK VINA RESULT:      -8.4      1.802      7.611
REMARK  3 active torsions:
REMARK  status: ('A' for Active; 'I' for Inactive)
REMARK    1  A    between atoms: N_4  and  C_5 
REMARK    2  A    between atoms: C_5  and  C_6 
REMARK       I    between atoms: C_6  and  N_7 
REMARK    3  A    between atoms: N_7  and  C_8 
ROOT
HETATM    1  C   UNL     1      43.038 -14.135   2.629  1.00  0.00     0.257 C 
ENDROOT
BRANCH   1   2
HETATM    2  N   UNL     1      43.131 -15.474   3.213  1.00  0.00    -0.225 N 
HETATM    3  N   UNL     1      43.445 -15.511   4.553  1.00  0.00    -0.173 NA
HETATM    4  C   UNL     1      43.734 -16.645   5.112  1.00  0.00     0.062 A 
HETATM    5  C   UNL     1      44.093 -16.628   6.580  1.00  0.00     0.073 C 
HETATM    6  C   UNL     1      43.748 -17.928   4.384  1.00  0.00     0.006 A 
HETATM    7  C   UNL     1      43.446 -17.888   3.027  1.00  0.00     0.046 A 
HETATM    8  C   UNL     1      44.056 -19.150   4.995  1.00  0.00     0.014 A 
HETATM    9  C   UNL     1      43.157 -16.592   2.387  1.00  0.00     0.275 A 
HETATM   10  C   UNL     1      43.438 -19.069   2.273  1.00  0.00     0.018 A 
HETATM   11  O   UNL     1      42.948 -16.543   1.175  1.00  0.00    -0.266 OA
HETATM   12  C   UNL     1      43.742 -20.287   2.882  1.00  0.00     0.001 A 
HETATM   13  C   UNL     1      44.054 -20.325   4.240  1.00  0.00     0.001 A 
ENDBRANCH   1   2
BRANCH   1  14
HETATM   14  C   UNL     1      41.682 -13.747   2.030  1.00  0.00     0.238 C 
HETATM   15  N   UNL     1      41.595 -13.809   0.658  1.00  0.00    -0.351 N 
HETATM   16  H   UNL     1      42.407 -14.131   0.131  1.00  0.00     0.163 HD
HETATM   17  O   UNL     1      40.786 -13.258   2.719  1.00  0.00    -0.272 OA
BRANCH  15  18
HETATM   18  C   UNL     1      40.491 -13.220  -0.057  1.00  0.00     0.118 C 
HETATM   19  C   UNL     1      40.823 -11.897  -0.692  1.00  0.00    -0.029 A 
HETATM   20  C   UNL     1      40.229 -11.797  -1.956  1.00  0.00    -0.050 A 
HETATM   21  C   UNL     1      41.537 -10.833  -0.158  1.00  0.00     0.010 A 
HETATM   22  C   UNL     1      40.337 -10.640  -2.711  1.00  0.00     0.007 A 
HETATM   23  C   UNL     1      39.461 -13.040  -2.283  1.00  0.00     0.041 C 
HETATM   24  C   UNL     1      41.069  -9.573  -2.185  1.00  0.00     0.001 A 
HETATM   25  C   UNL     1      41.665  -9.669  -0.918  1.00  0.00     0.001 A 
HETATM   26  C   UNL     1      40.068 -14.040  -1.290  1.00  0.00     0.034 C 
ENDBRANCH  15  18
ENDBRANCH   1  14
TORSDOF 3
ENDMDL
MODEL 5
REMARK VINA RESULT:      -8.4      2.855      6.952
REMARK  3 active torsions:
REMARK  status: ('A' for Active; 'I' for Inactive)
REMARK    1  A    between atoms: N_4  and  C_5 
REMARK    2  A    between atoms: C_5  and  C_6 
REMARK       I    between atoms: C_6  and  N_7 
REMARK    3  A    between atoms: N_7  and  C_8 
ROOT
HETATM    1  C   UNL     1      43.090 -15.592   7.023  1.00  0.00     0.257 C 
ENDROOT
BRANCH   1   2
HETATM    2  N   UNL     1      43.404 -16.506   5.922  1.00  0.00    -0.225 N 
HETATM    3  N   UNL     1      43.286 -15.970   4.660  1.00  0.00    -0.173 NA
HETATM    4  C   UNL     1      43.357 -16.747   3.624  1.00  0.00     0.062 A 
HETATM    5  C   UNL     1      43.199 -16.111   2.262  1.00  0.00     0.073 C 
HETATM    6  C   UNL     1      43.563 -18.205   3.717  1.00  0.00     0.006 A 
HETATM    7  C   UNL     1      43.666 -18.748   4.993  1.00  0.00     0.046 A 
HETATM    8  C   UNL     1      43.645 -19.038   2.594  1.00  0.00     0.014 A 
HETATM    9  C   UNL     1      43.544 -17.867   6.168  1.00  0.00     0.275 A 
HETATM   10  C   UNL     1      43.864 -20.126   5.156  1.00  0.00     0.018 A 
HETATM   11  O   UNL     1      43.575 -18.351   7.300  1.00  0.00    -0.266 OA
HETATM   12  C   UNL     1      43.949 -20.956   4.038  1.00  0.00     0.001 A 
HETATM   13  C   UNL     1      43.836 -20.412   2.760  1.00  0.00     0.001 A 
ENDBRANCH   1   2
BRANCH   1  14
HETATM   14  C   UNL     1      42.900 -14.119   6.650  1.00  0.00     0.238 C 
HETATM   15  N   UNL     1      41.665 -13.785   6.143  1.00  0.00    -0.351 N 
HETATM   16  H   UNL     1      40.952 -14.512   6.074  1.00  0.00     0.163 HD
HETATM   17  O   UNL     1      43.840 -13.324   6.652  1.00  0.00    -0.272 OA
BRANCH  15  18
HETATM   18  C   UNL     1      41.429 -12.517   5.500  1.00  0.00     0.118 C 
HETATM   19  C   UNL     1      40.604 -12.623   4.247  1.00  0.00    -0.029 A 
HETATM   20  C   UNL     1      39.699 -11.556   4.163  1.00  0.00    -0.050 A 
HETATM   21  C   UNL     1      40.699 -13.553   3.221  1.00  0.00     0.010 A 
HETATM   22  C   UNL     1      38.873 -11.400   3.062  1.00  0.00     0.007 A 
HETATM   23  C   UNL     1      39.829 -10.654   5.351  1.00  0.00     0.041 C 
HETATM   24  C   UNL     1      38.953 -12.344   2.035  1.00  0.00     0.001 A 
HETATM   25  C   UNL     1      39.858 -13.413   2.114  1.00  0.00     0.001 A 
HETATM   26  C   UNL     1      40.559 -11.568   6.345  1.00  0.00     0.034 C 
ENDBRANCH  15  18
ENDBRANCH   1  14
TORSDOF 3
ENDMDL
MODEL 6
REMARK VINA RESULT:      -8.3      3.947      6.430
REMARK  3 active torsions:
REMARK  status: ('A' for Active; 'I' for Inactive)
REMARK    1  A    between atoms: N_4  and  C_5 
REMARK    2  A    between atoms: C_5  and  C_6 
REMARK       I    between atoms: C_6  and  N_7 
REMARK    3  A    between atoms: N_7  and  C_8 
ROOT
HETATM    1  C   UNL     1      41.647 -12.538   5.298  1.00  0.00     0.257 C 
ENDROOT
BRANCH   1   2
HETATM    2  N   UNL     1      42.247 -11.600   6.249  1.00  0.00    -0.225 N 
HETATM    3  N   UNL     1      41.406 -10.615   6.716  1.00  0.00    -0.173 NA
HETATM    4  C   UNL     1      41.892  -9.633   7.410  1.00  0.00     0.062 A 
HETATM    5  C   UNL     1      40.928  -8.567   7.880  1.00  0.00     0.073 C 
HETATM    6  C   UNL     1      43.324  -9.502   7.737  1.00  0.00     0.006 A 
HETATM    7  C   UNL     1      44.176 -10.488   7.252  1.00  0.00     0.046 A 
HETATM    8  C   UNL     1      43.841  -8.441   8.491  1.00  0.00     0.014 A 
HETATM    9  C   UNL     1      43.626 -11.581   6.430  1.00  0.00     0.275 A 
HETATM   10  C   UNL     1      45.549 -10.428   7.526  1.00  0.00     0.018 A 
HETATM   11  O   UNL     1      44.384 -12.423   5.948  1.00  0.00    -0.266 OA
HETATM   12  C   UNL     1      46.064  -9.373   8.279  1.00  0.00     0.001 A 
HETATM   13  C   UNL     1      45.211  -8.380   8.758  1.00  0.00     0.001 A 
ENDBRANCH   1   2
BRANCH   1  14
HETATM   14  C   UNL     1      41.424 -13.967   5.802  1.00  0.00     0.238 C 
HETATM   15  N   UNL     1      42.484 -14.830   5.639  1.00  0.00    -0.351 N 
HETATM   16  H   UNL     1      43.348 -14.472   5.231  1.00  0.00     0.163 HD
HETATM   17  O   UNL     1      40.318 -14.356   6.177  1.00  0.00    -0.272 OA
BRANCH  15  18
HETATM   18  C   UNL     1      42.333 -16.253   5.808  1.00  0.00     0.118 C 
HETATM   19  C   UNL     1      42.928 -17.058   4.685  1.00  0.00    -0.029 A 
HETATM   20  C   UNL     1      43.560 -18.204   5.184  1.00  0.00    -0.050 A 
HETATM   21  C   UNL     1      42.850 -16.830   3.318  1.00  0.00     0.010 A 
HETATM   22  C   UNL     1      44.128 -19.139   4.334  1.00  0.00     0.007 A 
HETATM   23  C   UNL     1      43.456 -18.262   6.676  1.00  0.00     0.041 C 
HETATM   24  C   UNL     1      44.067 -18.905   2.958  1.00  0.00     0.001 A 
HETATM   25  C   UNL     1      43.434 -17.759   2.454  1.00  0.00     0.001 A 
HETATM   26  C   UNL     1      43.120 -16.802   7.012  1.00  0.00     0.034 C 
ENDBRANCH  15  18
ENDBRANCH   1  14
TORSDOF 3
ENDMDL
MODEL 7
REMARK VINA RESULT:      -8.2      3.911      6.330
REMARK  3 active torsions:
REMARK  status: ('A' for Active; 'I' for Inactive)
REMARK    1  A    between atoms: N_4  and  C_5 
REMARK    2  A    between atoms: C_5  and  C_6 
REMARK       I    between atoms: C_6  and  N_7 
REMARK    3  A    between atoms: N_7  and  C_8 
ROOT
HETATM    1  C   UNL     1      40.799 -12.311   5.470  1.00  0.00     0.257 C 
ENDROOT
BRANCH   1   2
HETATM    2  N   UNL     1      41.744 -11.367   6.069  1.00  0.00    -0.225 N 
HETATM    3  N   UNL     1      43.051 -11.795   6.122  1.00  0.00    -0.173 NA
HETATM    4  C   UNL     1      43.922 -11.114   6.800  1.00  0.00     0.062 A 
HETATM    5  C   UNL     1      45.338 -11.640   6.844  1.00  0.00     0.073 C 
HETATM    6  C   UNL     1      43.591  -9.879   7.536  1.00  0.00     0.006 A 
HETATM    7  C   UNL     1      42.267  -9.455   7.496  1.00  0.00     0.046 A 
HETATM    8  C   UNL     1      44.537  -9.146   8.262  1.00  0.00     0.014 A 
HETATM    9  C   UNL     1      41.272 -10.254   6.757  1.00  0.00     0.275 A 
HETATM   10  C   UNL     1      41.881  -8.290   8.170  1.00  0.00     0.018 A 
HETATM   11  O   UNL     1      40.089  -9.916   6.768  1.00  0.00    -0.266 OA
HETATM   12  C   UNL     1      42.824  -7.557   8.891  1.00  0.00     0.001 A 
HETATM   13  C   UNL     1      44.149  -7.987   8.939  1.00  0.00     0.001 A 
ENDBRANCH   1   2
BRANCH   1  14
HETATM   14  C   UNL     1      40.820 -13.739   6.026  1.00  0.00     0.238 C 
HETATM   15  N   UNL     1      41.919 -14.495   5.688  1.00  0.00    -0.351 N 
HETATM   16  H   UNL     1      42.655 -14.064   5.127  1.00  0.00     0.163 HD
HETATM   17  O   UNL     1      39.845 -14.225   6.598  1.00  0.00    -0.272 OA
BRANCH  15  18
HETATM   18  C   UNL     1      41.951 -15.919   5.901  1.00  0.00     0.118 C 
HETATM   19  C   UNL     1      42.599 -16.681   4.777  1.00  0.00    -0.029 A 
HETATM   20  C   UNL     1      43.386 -17.725   5.281  1.00  0.00    -0.050 A 
HETATM   21  C   UNL     1      42.443 -16.508   3.409  1.00  0.00     0.010 A 
HETATM   22  C   UNL     1      44.033 -18.610   4.434  1.00  0.00     0.007 A 
HETATM   23  C   UNL     1      43.344 -17.747   6.778  1.00  0.00     0.041 C 
HETATM   24  C   UNL     1      43.893 -18.429   3.056  1.00  0.00     0.001 A 
HETATM   25  C   UNL     1      43.105 -17.386   2.547  1.00  0.00     0.001 A 
HETATM   26  C   UNL     1      42.844 -16.330   7.087  1.00  0.00     0.034 C 
ENDBRANCH  15  18
ENDBRANCH   1  14
TORSDOF 3
ENDMDL
MODEL 8
REMARK VINA RESULT:      -8.2      2.155      7.858
REMARK  3 active torsions:
REMARK  status: ('A' for Active; 'I' for Inactive)
REMARK    1  A    between atoms: N_4  and  C_5 
REMARK    2  A    between atoms: C_5  and  C_6 
REMARK       I    between atoms: C_6  and  N_7 
REMARK    3  A    between atoms: N_7  and  C_8 
ROOT
HETATM    1  C   UNL     1      42.378 -14.613   1.436  1.00  0.00     0.257 C 
ENDROOT
BRANCH   1   2
HETATM    2  N   UNL     1      42.836 -15.498   2.508  1.00  0.00    -0.225 N 
HETATM    3  N   UNL     1      43.088 -16.798   2.133  1.00  0.00    -0.173 NA
HETATM    4  C   UNL     1      43.314 -17.696   3.041  1.00  0.00     0.062 A 
HETATM    5  C   UNL     1      43.563 -19.112   2.576  1.00  0.00     0.073 C 
HETATM    6  C   UNL     1      43.318 -17.403   4.487  1.00  0.00     0.006 A 
HETATM    7  C   UNL     1      43.048 -16.093   4.867  1.00  0.00     0.046 A 
HETATM    8  C   UNL     1      43.569 -18.376   5.462  1.00  0.00     0.014 A 
HETATM    9  C   UNL     1      42.752 -15.084   3.834  1.00  0.00     0.275 A 
HETATM   10  C   UNL     1      43.038 -15.743   6.224  1.00  0.00     0.018 A 
HETATM   11  O   UNL     1      42.454 -13.938   4.168  1.00  0.00    -0.266 OA
HETATM   12  C   UNL     1      43.290 -16.711   7.196  1.00  0.00     0.001 A 
HETATM   13  C   UNL     1      43.551 -18.026   6.815  1.00  0.00     0.001 A 
ENDBRANCH   1   2
BRANCH   1  14
HETATM   14  C   UNL     1      41.001 -14.924   0.840  1.00  0.00     0.238 C 
HETATM   15  N   UNL     1      40.772 -14.428  -0.423  1.00  0.00    -0.351 N 
HETATM   16  H   UNL     1      41.521 -13.920  -0.893  1.00  0.00     0.163 HD
HETATM   17  O   UNL     1      40.108 -15.442   1.510  1.00  0.00    -0.272 OA
BRANCH  15  18
HETATM   18  C   UNL     1      39.450 -14.402  -0.996  1.00  0.00     0.118 C 
HETATM   19  C   UNL     1      38.838 -13.028  -1.033  1.00  0.00    -0.029 A 
HETATM   20  C   UNL     1      38.134 -12.836  -2.229  1.00  0.00    -0.050 A 
HETATM   21  C   UNL     1      38.841 -12.050  -0.049  1.00  0.00     0.010 A 
HETATM   22  C   UNL     1      37.428 -11.669  -2.468  1.00  0.00     0.007 A 
HETATM   23  C   UNL     1      38.223 -14.052  -3.099  1.00  0.00     0.041 C 
HETATM   24  C   UNL     1      37.443 -10.674  -1.487  1.00  0.00     0.001 A 
HETATM   25  C   UNL     1      38.145 -10.862  -0.287  1.00  0.00     0.001 A 
HETATM   26  C   UNL     1      39.435 -14.771  -2.491  1.00  0.00     0.034 C 
ENDBRANCH  15  18
ENDBRANCH   1  14
TORSDOF 3
ENDMDL
MODEL 9
REMARK VINA RESULT:      -8.1      2.457      2.945
REMARK  3 active torsions:
REMARK  status: ('A' for Active; 'I' for Inactive)
REMARK    1  A    between atoms: N_4  and  C_5 
REMARK    2  A    between atoms: C_5  and  C_6 
REMARK       I    between atoms: C_6  and  N_7 
REMARK    3  A    between atoms: N_7  and  C_8 
ROOT
HETATM    1  C   UNL     1      41.069 -13.742   0.493  1.00  0.00     0.257 C 
ENDROOT
BRANCH   1   2
HETATM    2  N   UNL     1      39.858 -13.400  -0.254  1.00  0.00    -0.225 N 
HETATM    3  N   UNL     1      39.540 -14.255  -1.286  1.00  0.00    -0.173 NA
HETATM    4  C   UNL     1      38.600 -13.932  -2.119  1.00  0.00     0.062 A 
HETATM    5  C   UNL     1      38.307 -14.896  -3.246  1.00  0.00     0.073 C 
HETATM    6  C   UNL     1      37.831 -12.677  -2.028  1.00  0.00     0.006 A 
HETATM    7  C   UNL     1      38.163 -11.806  -0.996  1.00  0.00     0.046 A 
HETATM    8  C   UNL     1      36.813 -12.338  -2.928  1.00  0.00     0.014 A 
HETATM    9  C   UNL     1      39.259 -12.157  -0.075  1.00  0.00     0.275 A 
HETATM   10  C   UNL     1      37.472 -10.596  -0.848  1.00  0.00     0.018 A 
HETATM   11  O   UNL     1      39.596 -11.364   0.803  1.00  0.00    -0.266 OA
HETATM   12  C   UNL     1      36.456 -10.259  -1.743  1.00  0.00     0.001 A 
HETATM   13  C   UNL     1      36.131 -11.128  -2.783  1.00  0.00     0.001 A 
ENDBRANCH   1   2
BRANCH   1  14
HETATM   14  C   UNL     1      40.862 -14.466   1.828  1.00  0.00     0.238 C 
HETATM   15  N   UNL     1      42.000 -14.684   2.571  1.00  0.00    -0.351 N 
HETATM   16  H   UNL     1      42.890 -14.334   2.217  1.00  0.00     0.163 HD
HETATM   17  O   UNL     1      39.777 -14.960   2.135  1.00  0.00    -0.272 OA
BRANCH  15  18
HETATM   18  C   UNL     1      42.005 -15.580   3.700  1.00  0.00     0.118 C 
HETATM   19  C   UNL     1      42.672 -16.898   3.417  1.00  0.00    -0.029 A 
HETATM   20  C   UNL     1      43.429 -17.312   4.521  1.00  0.00    -0.050 A 
HETATM   21  C   UNL     1      42.557 -17.706   2.295  1.00  0.00     0.010 A 
HETATM   22  C   UNL     1      44.086 -18.531   4.525  1.00  0.00     0.007 A 
HETATM   23  C   UNL     1      43.347 -16.308   5.628  1.00  0.00     0.041 C 
HETATM   24  C   UNL     1      43.987 -19.340   3.391  1.00  0.00     0.001 A 
HETATM   25  C   UNL     1      43.229 -18.931   2.283  1.00  0.00     0.001 A 
HETATM   26  C   UNL     1      42.858 -15.064   4.873  1.00  0.00     0.034 C 
ENDBRANCH  15  18
ENDBRANCH   1  14
TORSDOF 3
ENDMDL
MODEL 10
REMARK VINA RESULT:      -8.1      4.853      7.453
REMARK  3 active torsions:
REMARK  status: ('A' for Active; 'I' for Inactive)
REMARK    1  A    between atoms: N_4  and  C_5 
REMARK    2  A    between atoms: C_5  and  C_6 
REMARK       I    between atoms: C_6  and  N_7 
REMARK    3  A    between atoms: N_7  and  C_8 
ROOT
HETATM    1  C   UNL     1      41.872 -11.626   5.599  1.00  0.00     0.257 C 
ENDROOT
BRANCH   1   2
HETATM    2  N   UNL     1      42.002 -12.976   5.047  1.00  0.00    -0.225 N 
HETATM    3  N   UNL     1      41.950 -13.997   5.968  1.00  0.00    -0.173 NA
HETATM    4  C   UNL     1      42.243 -15.206   5.603  1.00  0.00     0.062 A 
HETATM    5  C   UNL     1      42.192 -16.286   6.659  1.00  0.00     0.073 C 
HETATM    6  C   UNL     1      42.637 -15.564   4.227  1.00  0.00     0.006 A 
HETATM    7  C   UNL     1      42.705 -14.530   3.300  1.00  0.00     0.046 A 
HETATM    8  C   UNL     1      42.946 -16.873   3.837  1.00  0.00     0.014 A 
HETATM    9  C   UNL     1      42.410 -13.151   3.729  1.00  0.00     0.275 A 
HETATM   10  C   UNL     1      43.070 -14.798   1.974  1.00  0.00     0.018 A 
HETATM   11  O   UNL     1      42.526 -12.224   2.927  1.00  0.00    -0.266 OA
HETATM   12  C   UNL     1      43.376 -16.102   1.584  1.00  0.00     0.001 A 
HETATM   13  C   UNL     1      43.317 -17.137   2.516  1.00  0.00     0.001 A 
ENDBRANCH   1   2
BRANCH   1  14
HETATM   14  C   UNL     1      43.065 -11.105   6.407  1.00  0.00     0.238 C 
HETATM   15  N   UNL     1      42.769 -10.604   7.654  1.00  0.00    -0.351 N 
HETATM   16  H   UNL     1      41.801 -10.634   7.975  1.00  0.00     0.163 HD
HETATM   17  O   UNL     1      44.185 -10.994   5.908  1.00  0.00    -0.272 OA
BRANCH  15  18
HETATM   18  C   UNL     1      43.728  -9.838   8.408  1.00  0.00     0.118 C 
HETATM   19  C   UNL     1      43.133  -9.130   9.594  1.00  0.00    -0.029 A 
HETATM   20  C   UNL     1      44.006  -9.186  10.689  1.00  0.00    -0.050 A 
HETATM   21  C   UNL     1      41.940  -8.425   9.676  1.00  0.00     0.010 A 
HETATM   22  C   UNL     1      43.706  -8.548  11.881  1.00  0.00     0.007 A 
HETATM   23  C   UNL     1      45.250  -9.942  10.338  1.00  0.00     0.041 C 
HETATM   24  C   UNL     1      42.499  -7.852  11.973  1.00  0.00     0.001 A 
HETATM   25  C   UNL     1      41.622  -7.791  10.879  1.00  0.00     0.001 A 
HETATM   26  C   UNL     1      44.793 -10.715   9.093  1.00  0.00     0.034 C 
ENDBRANCH  15  18
ENDBRANCH   1  14
TORSDOF 3
ENDMDL
