MODEL 1
REMARK VINA RESULT:      -8.6      0.000      0.000
REMARK  11 active torsions:
REMARK  status: ('A' for Active; 'I' for Inactive)
REMARK    1  A    between atoms: C_2  and  O_3 
REMARK    2  A    between atoms: O_3  and  C_4 
REMARK    3  A    between atoms: C_5  and  O_6 
REMARK    4  A    between atoms: C_9  and  C_10 
REMARK    5  A    between atoms: N_11  and  C_12 
REMARK    6  A    between atoms: C_12  and  C_13 
REMARK    7  A    between atoms: C_13  and  C_14 
REMARK    8  A    between atoms: C_14  and  N_15 
REMARK    9  A    between atoms: C_27  and  O_28 
REMARK   10  A    between atoms: C_27  and  C_29 
REMARK   11  A    between atoms: C_30  and  C_31 
ROOT
HETATM    1  C   UNL     1      41.302 -13.007   3.922  1.00  0.00     0.161 C 
HETATM    2  N   UNL     1      41.534 -11.593   4.231  1.00  0.00    -0.332 N 
HETATM    3  C   UNL     1      40.743 -11.124   5.254  1.00  0.00     0.295 C 
HETATM    4  O   UNL     1      40.713  -9.984   5.677  1.00  0.00    -0.264 OA
HETATM    5  C   UNL     1      40.441 -13.502   5.057  1.00  0.00     0.058 C 
HETATM    6  C   UNL     1      39.917 -12.310   5.756  1.00  0.00     0.250 C 
HETATM    7  O   UNL     1      39.033 -12.265   6.581  1.00  0.00    -0.282 OA
HETATM    8  C   UNL     1      40.291 -14.730   5.576  1.00  0.00     0.078 C 
ENDROOT
BRANCH   1   9
HETATM    9  C   UNL     1      40.654 -13.155   2.554  1.00  0.00    -0.028 A 
HETATM   10  C   UNL     1      41.133 -14.135   1.668  1.00  0.00     0.012 A 
HETATM   11  C   UNL     1      40.580 -14.276   0.396  1.00  0.00     0.040 A 
HETATM   12  C   UNL     1      39.559 -13.426  -0.003  1.00  0.00     0.099 A 
HETATM   13  C   UNL     1      39.062 -12.434   0.843  1.00  0.00     0.102 A 
HETATM   14  C   UNL     1      39.590 -12.322   2.132  1.00  0.00     0.049 A 
BRANCH  12  15
HETATM   15  O   UNL     1      39.053 -13.578  -1.264  1.00  0.00    -0.358 OA
HETATM   16  H   UNL     1      38.785 -14.515  -1.335  1.00  0.00     0.218 HD
ENDBRANCH  12  15
BRANCH  13  17
HETATM   17  O   UNL     1      38.078 -11.649   0.303  1.00  0.00    -0.349 OA
BRANCH  17  18
HETATM   18  C   UNL     1      37.048 -11.197   1.178  1.00  0.00     0.171 C 
HETATM   19  C   UNL     1      36.379  -9.992   0.542  1.00  0.00     0.034 C 
ENDBRANCH  17  18
ENDBRANCH  13  17
ENDBRANCH   1   9
BRANCH   2  20
HETATM   20  C   UNL     1      42.620 -10.830   3.638  1.00  0.00     0.129 C 
BRANCH  20  21
HETATM   21  C   UNL     1      44.010 -11.457   3.780  1.00  0.00     0.048 C 
BRANCH  21  22
HETATM   22  C   UNL     1      44.316 -12.216   5.072  1.00  0.00     0.236 C 
BRANCH  22  23
HETATM   23  N   UNL     1      44.522 -11.341   6.278  1.00  0.00    -0.067 N 
HETATM   24  H   UNL     1      44.273 -10.368   6.003  1.00  0.00     0.280 HD
HETATM   25  C   UNL     1      43.722 -11.735   7.507  1.00  0.00     0.261 C 
HETATM   26  C   UNL     1      44.021 -10.769   8.659  1.00  0.00     0.195 C 
HETATM   27  O   UNL     1      45.422 -10.738   8.954  1.00  0.00    -0.388 OA
HETATM   28  C   UNL     1      46.182 -10.284   7.828  1.00  0.00     0.195 C 
HETATM   29  C   UNL     1      46.008 -11.236   6.641  1.00  0.00     0.261 C 
ENDBRANCH  22  23
ENDBRANCH  21  22
ENDBRANCH  20  21
ENDBRANCH   2  20
BRANCH   8  30
HETATM   30  O   UNL     1      39.513 -14.986   6.689  1.00  0.00    -0.360 OA
HETATM   31  H   UNL     1      40.076 -15.211   7.458  1.00  0.00     0.217 HD
ENDBRANCH   8  30
BRANCH   8  32
HETATM   32  C   UNL     1      40.990 -15.896   5.066  1.00  0.00     0.038 C 
HETATM   33  C   UNL     1      42.306 -15.940   4.805  1.00  0.00     0.014 C 
BRANCH  33  34
HETATM   34  C   UNL     1      42.915 -17.094   4.140  1.00  0.00    -0.036 A 
HETATM   35  C   UNL     1      42.528 -17.403   2.831  1.00  0.00     0.011 A 
HETATM   36  C   UNL     1      43.070 -18.512   2.177  1.00  0.00     0.001 A 
HETATM   37  C   UNL     1      44.008 -19.312   2.827  1.00  0.00     0.000 A 
HETATM   38  C   UNL     1      44.406 -19.003   4.128  1.00  0.00     0.001 A 
HETATM   39  C   UNL     1      43.860 -17.898   4.785  1.00  0.00     0.011 A 
ENDBRANCH  33  34
ENDBRANCH   8  32
TORSDOF 11
ENDMDL
MODEL 2
REMARK VINA RESULT:      -8.6      2.367      5.551
REMARK  11 active torsions:
REMARK  status: ('A' for Active; 'I' for Inactive)
REMARK    1  A    between atoms: C_2  and  O_3 
REMARK    2  A    between atoms: O_3  and  C_4 
REMARK    3  A    between atoms: C_5  and  O_6 
REMARK    4  A    between atoms: C_9  and  C_10 
REMARK    5  A    between atoms: N_11  and  C_12 
REMARK    6  A    between atoms: C_12  and  C_13 
REMARK    7  A    between atoms: C_13  and  C_14 
REMARK    8  A    between atoms: C_14  and  N_15 
REMARK    9  A    between atoms: C_27  and  O_28 
REMARK   10  A    between atoms: C_27  and  C_29 
REMARK   11  A    between atoms: C_30  and  C_31 
ROOT
HETATM    1  C   UNL     1      41.307 -13.379   4.089  1.00  0.00     0.161 C 
HETATM    2  N   UNL     1      40.153 -12.494   4.272  1.00  0.00    -0.332 N 
HETATM    3  C   UNL     1      39.617 -12.049   3.086  1.00  0.00     0.295 C 
HETATM    4  O   UNL     1      38.684 -11.278   2.961  1.00  0.00    -0.264 OA
HETATM    5  C   UNL     1      41.311 -13.690   2.613  1.00  0.00     0.058 C 
HETATM    6  C   UNL     1      40.415 -12.711   1.962  1.00  0.00     0.250 C 
HETATM    7  O   UNL     1      40.304 -12.484   0.778  1.00  0.00    -0.282 OA
HETATM    8  C   UNL     1      41.790 -14.746   1.938  1.00  0.00     0.078 C 
ENDROOT
BRANCH   1   9
HETATM    9  C   UNL     1      42.581 -12.702   4.573  1.00  0.00    -0.028 A 
HETATM   10  C   UNL     1      43.461 -12.141   3.633  1.00  0.00     0.012 A 
HETATM   11  C   UNL     1      44.651 -11.540   4.042  1.00  0.00     0.040 A 
HETATM   12  C   UNL     1      44.975 -11.514   5.390  1.00  0.00     0.099 A 
HETATM   13  C   UNL     1      44.132 -12.069   6.354  1.00  0.00     0.102 A 
HETATM   14  C   UNL     1      42.921 -12.635   5.945  1.00  0.00     0.049 A 
BRANCH  12  15
HETATM   15  O   UNL     1      46.158 -10.934   5.756  1.00  0.00    -0.358 OA
HETATM   16  H   UNL     1      46.617 -11.590   6.316  1.00  0.00     0.218 HD
ENDBRANCH  12  15
BRANCH  13  17
HETATM   17  O   UNL     1      44.597 -12.001   7.641  1.00  0.00    -0.349 OA
BRANCH  17  18
HETATM   18  C   UNL     1      44.091 -10.952   8.464  1.00  0.00     0.171 C 
HETATM   19  C   UNL     1      45.269 -10.232   9.093  1.00  0.00     0.034 C 
ENDBRANCH  17  18
ENDBRANCH  13  17
ENDBRANCH   1   9
BRANCH   2  20
HETATM   20  C   UNL     1      39.536 -12.270   5.569  1.00  0.00     0.129 C 
BRANCH  20  21
HETATM   21  C   UNL     1      39.769 -10.882   6.170  1.00  0.00     0.048 C 
BRANCH  21  22
HETATM   22  C   UNL     1      38.998 -10.523   7.442  1.00  0.00     0.236 C 
BRANCH  22  23
HETATM   23  N   UNL     1      39.863 -10.137   8.610  1.00  0.00    -0.067 N 
HETATM   24  H   UNL     1      40.501 -10.936   8.803  1.00  0.00     0.280 HD
HETATM   25  C   UNL     1      40.685  -8.875   8.415  1.00  0.00     0.261 C 
HETATM   26  C   UNL     1      41.518  -8.593   9.672  1.00  0.00     0.195 C 
HETATM   27  O   UNL     1      40.682  -8.481  10.828  1.00  0.00    -0.388 OA
HETATM   28  C   UNL     1      39.964  -9.696  11.074  1.00  0.00     0.195 C 
HETATM   29  C   UNL     1      39.039 -10.023   9.898  1.00  0.00     0.261 C 
ENDBRANCH  22  23
ENDBRANCH  21  22
ENDBRANCH  20  21
ENDBRANCH   2  20
BRANCH   8  30
HETATM   30  O   UNL     1      41.623 -14.906   0.576  1.00  0.00    -0.360 OA
HETATM   31  H   UNL     1      42.415 -15.323   0.179  1.00  0.00     0.217 HD
ENDBRANCH   8  30
BRANCH   8  32
HETATM   32  C   UNL     1      42.463 -15.859   2.584  1.00  0.00     0.038 C 
HETATM   33  C   UNL     1      42.642 -17.067   2.026  1.00  0.00     0.014 C 
BRANCH  33  34
HETATM   34  C   UNL     1      43.182 -18.191   2.793  1.00  0.00    -0.036 A 
HETATM   35  C   UNL     1      43.220 -19.459   2.203  1.00  0.00     0.011 A 
HETATM   36  C   UNL     1      43.705 -20.556   2.918  1.00  0.00     0.001 A 
HETATM   37  C   UNL     1      44.163 -20.388   4.223  1.00  0.00     0.000 A 
HETATM   38  C   UNL     1      44.138 -19.125   4.815  1.00  0.00     0.001 A 
HETATM   39  C   UNL     1      43.648 -18.028   4.102  1.00  0.00     0.011 A 
ENDBRANCH  33  34
ENDBRANCH   8  32
TORSDOF 11
ENDMDL
MODEL 3
REMARK VINA RESULT:      -7.8      1.549      2.332
REMARK  11 active torsions:
REMARK  status: ('A' for Active; 'I' for Inactive)
REMARK    1  A    between atoms: C_2  and  O_3 
REMARK    2  A    between atoms: O_3  and  C_4 
REMARK    3  A    between atoms: C_5  and  O_6 
REMARK    4  A    between atoms: C_9  and  C_10 
REMARK    5  A    between atoms: N_11  and  C_12 
REMARK    6  A    between atoms: C_12  and  C_13 
REMARK    7  A    between atoms: C_13  and  C_14 
REMARK    8  A    between atoms: C_14  and  N_15 
REMARK    9  A    between atoms: C_27  and  O_28 
REMARK   10  A    between atoms: C_27  and  C_29 
REMARK   11  A    between atoms: C_30  and  C_31 
ROOT
HETATM    1  C   UNL     1      41.916 -12.539   4.681  1.00  0.00     0.161 C 
HETATM    2  N   UNL     1      42.254 -11.307   5.402  1.00  0.00    -0.332 N 
HETATM    3  C   UNL     1      41.327 -10.966   6.359  1.00  0.00     0.295 C 
HETATM    4  O   UNL     1      41.351  -9.977   7.066  1.00  0.00    -0.264 OA
HETATM    5  C   UNL     1      40.774 -13.131   5.467  1.00  0.00     0.058 C 
HETATM    6  C   UNL     1      40.267 -12.070   6.363  1.00  0.00     0.250 C 
HETATM    7  O   UNL     1      39.238 -12.069   7.000  1.00  0.00    -0.282 OA
HETATM    8  C   UNL     1      40.360 -14.401   5.595  1.00  0.00     0.078 C 
ENDROOT
BRANCH   1   9
HETATM    9  C   UNL     1      41.566 -12.230   3.233  1.00  0.00    -0.028 A 
HETATM   10  C   UNL     1      42.120 -11.093   2.620  1.00  0.00     0.012 A 
HETATM   11  C   UNL     1      41.796 -10.766   1.303  1.00  0.00     0.040 A 
HETATM   12  C   UNL     1      40.903 -11.562   0.602  1.00  0.00     0.099 A 
HETATM   13  C   UNL     1      40.324 -12.693   1.179  1.00  0.00     0.102 A 
HETATM   14  C   UNL     1      40.682 -13.042   2.484  1.00  0.00     0.049 A 
BRANCH  12  15
HETATM   15  O   UNL     1      40.592 -11.202  -0.680  1.00  0.00    -0.358 OA
HETATM   16  H   UNL     1      39.618 -11.127  -0.709  1.00  0.00     0.218 HD
ENDBRANCH  12  15
BRANCH  13  17
HETATM   17  O   UNL     1      39.436 -13.363   0.379  1.00  0.00    -0.349 OA
BRANCH  17  18
HETATM   18  C   UNL     1      39.909 -14.533  -0.286  1.00  0.00     0.171 C 
HETATM   19  C   UNL     1      39.386 -14.512  -1.710  1.00  0.00     0.034 C 
ENDBRANCH  17  18
ENDBRANCH  13  17
ENDBRANCH   1   9
BRANCH   2  20
HETATM   20  C   UNL     1      43.531 -10.632   5.242  1.00  0.00     0.129 C 
BRANCH  20  21
HETATM   21  C   UNL     1      44.747 -11.403   5.760  1.00  0.00     0.048 C 
BRANCH  21  22
HETATM   22  C   UNL     1      45.398 -10.913   7.055  1.00  0.00     0.236 C 
BRANCH  22  23
HETATM   23  N   UNL     1      44.504 -10.075   7.926  1.00  0.00    -0.067 N 
HETATM   24  H   UNL     1      43.672  -9.814   7.359  1.00  0.00     0.280 HD
HETATM   25  C   UNL     1      44.045 -10.743   9.211  1.00  0.00     0.261 C 
HETATM   26  C   UNL     1      43.145  -9.787  10.005  1.00  0.00     0.195 C 
HETATM   27  O   UNL     1      43.821  -8.557  10.285  1.00  0.00    -0.388 OA
HETATM   28  C   UNL     1      44.184  -7.874   9.080  1.00  0.00     0.195 C 
HETATM   29  C   UNL     1      45.151  -8.723   8.249  1.00  0.00     0.261 C 
ENDBRANCH  22  23
ENDBRANCH  21  22
ENDBRANCH  20  21
ENDBRANCH   2  20
BRANCH   8  30
HETATM   30  O   UNL     1      39.333 -14.776   6.440  1.00  0.00    -0.360 OA
HETATM   31  H   UNL     1      38.540 -14.223   6.284  1.00  0.00     0.217 HD
ENDBRANCH   8  30
BRANCH   8  32
HETATM   32  C   UNL     1      40.999 -15.514   4.916  1.00  0.00     0.038 C 
HETATM   33  C   UNL     1      42.165 -16.064   5.288  1.00  0.00     0.014 C 
BRANCH  33  34
HETATM   34  C   UNL     1      42.831 -17.074   4.463  1.00  0.00    -0.036 A 
HETATM   35  C   UNL     1      43.809 -17.889   5.046  1.00  0.00     0.011 A 
HETATM   36  C   UNL     1      44.481 -18.843   4.281  1.00  0.00     0.001 A 
HETATM   37  C   UNL     1      44.173 -18.994   2.930  1.00  0.00     0.000 A 
HETATM   38  C   UNL     1      43.193 -18.193   2.344  1.00  0.00     0.001 A 
HETATM   39  C   UNL     1      42.523 -17.233   3.108  1.00  0.00     0.011 A 
ENDBRANCH  33  34
ENDBRANCH   8  32
TORSDOF 11
ENDMDL
MODEL 4
REMARK VINA RESULT:      -7.8      2.803      5.324
REMARK  11 active torsions:
REMARK  status: ('A' for Active; 'I' for Inactive)
REMARK    1  A    between atoms: C_2  and  O_3 
REMARK    2  A    between atoms: O_3  and  C_4 
REMARK    3  A    between atoms: C_5  and  O_6 
REMARK    4  A    between atoms: C_9  and  C_10 
REMARK    5  A    between atoms: N_11  and  C_12 
REMARK    6  A    between atoms: C_12  and  C_13 
REMARK    7  A    between atoms: C_13  and  C_14 
REMARK    8  A    between atoms: C_14  and  N_15 
REMARK    9  A    between atoms: C_27  and  O_28 
REMARK   10  A    between atoms: C_27  and  C_29 
REMARK   11  A    between atoms: C_30  and  C_31 
ROOT
HETATM    1  C   UNL     1      42.044 -12.918   4.609  1.00  0.00     0.161 C 
HETATM    2  N   UNL     1      42.898 -12.866   5.799  1.00  0.00    -0.332 N 
HETATM    3  C   UNL     1      42.935 -14.052   6.495  1.00  0.00     0.295 C 
HETATM    4  O   UNL     1      43.534 -14.261   7.532  1.00  0.00    -0.264 OA
HETATM    5  C   UNL     1      41.722 -14.383   4.443  1.00  0.00     0.058 C 
HETATM    6  C   UNL     1      42.082 -15.052   5.711  1.00  0.00     0.250 C 
HETATM    7  O   UNL     1      41.792 -16.173   6.063  1.00  0.00    -0.282 OA
HETATM    8  C   UNL     1      41.400 -15.094   3.352  1.00  0.00     0.078 C 
ENDROOT
BRANCH   1   9
HETATM    9  C   UNL     1      40.815 -12.041   4.796  1.00  0.00    -0.028 A 
HETATM   10  C   UNL     1      40.334 -11.291   3.708  1.00  0.00     0.012 A 
HETATM   11  C   UNL     1      39.228 -10.455   3.855  1.00  0.00     0.040 A 
HETATM   12  C   UNL     1      38.610 -10.349   5.092  1.00  0.00     0.099 A 
HETATM   13  C   UNL     1      39.064 -11.069   6.198  1.00  0.00     0.102 A 
HETATM   14  C   UNL     1      40.146 -11.937   6.039  1.00  0.00     0.049 A 
BRANCH  12  15
HETATM   15  O   UNL     1      37.541  -9.505   5.206  1.00  0.00    -0.358 OA
HETATM   16  H   UNL     1      37.887  -8.686   5.612  1.00  0.00     0.218 HD
ENDBRANCH  12  15
BRANCH  13  17
HETATM   17  O   UNL     1      38.378 -10.839   7.361  1.00  0.00    -0.349 OA
BRANCH  17  18
HETATM   18  C   UNL     1      39.127 -10.373   8.481  1.00  0.00     0.171 C 
HETATM   19  C   UNL     1      39.517  -8.929   8.224  1.00  0.00     0.034 C 
ENDBRANCH  17  18
ENDBRANCH  13  17
ENDBRANCH   1   9
BRANCH   2  20
HETATM   20  C   UNL     1      43.758 -11.732   6.096  1.00  0.00     0.129 C 
BRANCH  20  21
HETATM   21  C   UNL     1      43.258 -10.809   7.209  1.00  0.00     0.048 C 
BRANCH  21  22
HETATM   22  C   UNL     1      44.016 -10.826   8.538  1.00  0.00     0.236 C 
BRANCH  22  23
HETATM   23  N   UNL     1      43.214 -10.363   9.722  1.00  0.00    -0.067 N 
HETATM   24  H   UNL     1      42.254 -10.752   9.619  1.00  0.00     0.280 HD
HETATM   25  C   UNL     1      43.773 -10.761  11.077  1.00  0.00     0.261 C 
HETATM   26  C   UNL     1      42.867 -10.230  12.194  1.00  0.00     0.195 C 
HETATM   27  O   UNL     1      42.718  -8.808  12.104  1.00  0.00    -0.388 OA
HETATM   28  C   UNL     1      42.111  -8.425  10.865  1.00  0.00     0.195 C 
HETATM   29  C   UNL     1      42.988  -8.847   9.682  1.00  0.00     0.261 C 
ENDBRANCH  22  23
ENDBRANCH  21  22
ENDBRANCH  20  21
ENDBRANCH   2  20
BRANCH   8  30
HETATM   30  O   UNL     1      41.223 -16.464   3.373  1.00  0.00    -0.360 OA
HETATM   31  H   UNL     1      40.271 -16.687   3.429  1.00  0.00     0.217 HD
ENDBRANCH   8  30
BRANCH   8  32
HETATM   32  C   UNL     1      41.281 -14.505   2.030  1.00  0.00     0.038 C 
HETATM   33  C   UNL     1      40.138 -14.437   1.328  1.00  0.00     0.014 C 
BRANCH  33  34
HETATM   34  C   UNL     1      40.123 -13.979  -0.063  1.00  0.00    -0.036 A 
HETATM   35  C   UNL     1      39.491 -14.770  -1.030  1.00  0.00     0.011 A 
HETATM   36  C   UNL     1      39.481 -14.375  -2.369  1.00  0.00     0.001 A 
HETATM   37  C   UNL     1      40.096 -13.182  -2.746  1.00  0.00     0.000 A 
HETATM   38  C   UNL     1      40.719 -12.384  -1.786  1.00  0.00     0.001 A 
HETATM   39  C   UNL     1      40.734 -12.781  -0.447  1.00  0.00     0.011 A 
ENDBRANCH  33  34
ENDBRANCH   8  32
TORSDOF 11
ENDMDL
MODEL 5
REMARK VINA RESULT:      -7.7      2.329      5.225
REMARK  11 active torsions:
REMARK  status: ('A' for Active; 'I' for Inactive)
REMARK    1  A    between atoms: C_2  and  O_3 
REMARK    2  A    between atoms: O_3  and  C_4 
REMARK    3  A    between atoms: C_5  and  O_6 
REMARK    4  A    between atoms: C_9  and  C_10 
REMARK    5  A    between atoms: N_11  and  C_12 
REMARK    6  A    between atoms: C_12  and  C_13 
REMARK    7  A    between atoms: C_13  and  C_14 
REMARK    8  A    between atoms: C_14  and  N_15 
REMARK    9  A    between atoms: C_27  and  O_28 
REMARK   10  A    between atoms: C_27  and  C_29 
REMARK   11  A    between atoms: C_30  and  C_31 
ROOT
HETATM    1  C   UNL     1      40.475 -13.262   3.314  1.00  0.00     0.161 C 
HETATM    2  N   UNL     1      39.427 -12.239   3.378  1.00  0.00    -0.332 N 
HETATM    3  C   UNL     1      39.160 -11.657   2.161  1.00  0.00     0.295 C 
HETATM    4  O   UNL     1      38.368 -10.760   1.949  1.00  0.00    -0.264 OA
HETATM    5  C   UNL     1      40.690 -13.486   1.838  1.00  0.00     0.058 C 
HETATM    6  C   UNL     1      40.049 -12.357   1.131  1.00  0.00     0.250 C 
HETATM    7  O   UNL     1      40.170 -12.051  -0.033  1.00  0.00    -0.282 OA
HETATM    8  C   UNL     1      41.139 -14.558   1.168  1.00  0.00     0.078 C 
ENDROOT
BRANCH   1   9
HETATM    9  C   UNL     1      41.722 -12.795   4.049  1.00  0.00    -0.028 A 
HETATM   10  C   UNL     1      42.374 -11.625   3.623  1.00  0.00     0.012 A 
HETATM   11  C   UNL     1      43.536 -11.187   4.257  1.00  0.00     0.040 A 
HETATM   12  C   UNL     1      44.062 -11.926   5.306  1.00  0.00     0.099 A 
HETATM   13  C   UNL     1      43.451 -13.098   5.752  1.00  0.00     0.102 A 
HETATM   14  C   UNL     1      42.264 -13.513   5.142  1.00  0.00     0.049 A 
BRANCH  12  15
HETATM   15  O   UNL     1      45.214 -11.479   5.892  1.00  0.00    -0.358 OA
HETATM   16  H   UNL     1      45.420 -12.118   6.602  1.00  0.00     0.218 HD
ENDBRANCH  12  15
BRANCH  13  17
HETATM   17  O   UNL     1      44.101 -13.740   6.773  1.00  0.00    -0.349 OA
BRANCH  17  18
HETATM   18  C   UNL     1      43.999 -15.162   6.821  1.00  0.00     0.171 C 
HETATM   19  C   UNL     1      43.043 -15.530   7.941  1.00  0.00     0.034 C 
ENDBRANCH  17  18
ENDBRANCH  13  17
ENDBRANCH   1   9
BRANCH   2  20
HETATM   20  C   UNL     1      38.632 -12.006   4.573  1.00  0.00     0.129 C 
BRANCH  20  21
HETATM   21  C   UNL     1      39.005 -10.755   5.371  1.00  0.00     0.048 C 
BRANCH  21  22
HETATM   22  C   UNL     1      39.899 -10.939   6.599  1.00  0.00     0.236 C 
BRANCH  22  23
HETATM   23  N   UNL     1      40.438  -9.660   7.177  1.00  0.00    -0.067 N 
HETATM   24  H   UNL     1      40.320  -8.918   6.457  1.00  0.00     0.280 HD
HETATM   25  C   UNL     1      39.784  -9.210   8.472  1.00  0.00     0.261 C 
HETATM   26  C   UNL     1      40.422  -7.902   8.954  1.00  0.00     0.195 C 
HETATM   27  O   UNL     1      41.836  -8.051   9.124  1.00  0.00    -0.388 OA
HETATM   28  C   UNL     1      42.477  -8.391   7.890  1.00  0.00     0.195 C 
HETATM   29  C   UNL     1      41.958  -9.733   7.365  1.00  0.00     0.261 C 
ENDBRANCH  22  23
ENDBRANCH  21  22
ENDBRANCH  20  21
ENDBRANCH   2  20
BRANCH   8  30
HETATM   30  O   UNL     1      41.188 -14.615  -0.212  1.00  0.00    -0.360 OA
HETATM   31  H   UNL     1      40.317 -14.387  -0.596  1.00  0.00     0.217 HD
ENDBRANCH   8  30
BRANCH   8  32
HETATM   32  C   UNL     1      41.547 -15.787   1.823  1.00  0.00     0.038 C 
HETATM   33  C   UNL     1      42.775 -16.017   2.314  1.00  0.00     0.014 C 
BRANCH  33  34
HETATM   34  C   UNL     1      43.164 -17.337   2.814  1.00  0.00    -0.036 A 
HETATM   35  C   UNL     1      43.687 -17.445   4.107  1.00  0.00     0.011 A 
HETATM   36  C   UNL     1      44.091 -18.686   4.605  1.00  0.00     0.001 A 
HETATM   37  C   UNL     1      43.966 -19.826   3.813  1.00  0.00     0.000 A 
HETATM   38  C   UNL     1      43.436 -19.728   2.526  1.00  0.00     0.001 A 
HETATM   39  C   UNL     1      43.037 -18.486   2.026  1.00  0.00     0.011 A 
ENDBRANCH  33  34
ENDBRANCH   8  32
TORSDOF 11
ENDMDL
MODEL 6
REMARK VINA RESULT:      -7.7      4.089      9.370
REMARK  11 active torsions:
REMARK  status: ('A' for Active; 'I' for Inactive)
REMARK    1  A    between atoms: C_2  and  O_3 
REMARK    2  A    between atoms: O_3  and  C_4 
REMARK    3  A    between atoms: C_5  and  O_6 
REMARK    4  A    between atoms: C_9  and  C_10 
REMARK    5  A    between atoms: N_11  and  C_12 
REMARK    6  A    between atoms: C_12  and  C_13 
REMARK    7  A    between atoms: C_13  and  C_14 
REMARK    8  A    between atoms: C_14  and  N_15 
REMARK    9  A    between atoms: C_27  and  O_28 
REMARK   10  A    between atoms: C_27  and  C_29 
REMARK   11  A    between atoms: C_30  and  C_31 
ROOT
HETATM    1  C   UNL     1      40.839  -8.336   8.624  1.00  0.00     0.161 C 
HETATM    2  N   UNL     1      40.286  -8.147   7.280  1.00  0.00    -0.332 N 
HETATM    3  C   UNL     1      39.399  -9.132   6.913  1.00  0.00     0.295 C 
HETATM    4  O   UNL     1      38.832  -9.230   5.842  1.00  0.00    -0.264 OA
HETATM    5  C   UNL     1      39.999  -9.436   9.223  1.00  0.00     0.058 C 
HETATM    6  C   UNL     1      39.262 -10.074   8.112  1.00  0.00     0.250 C 
HETATM    7  O   UNL     1      38.648 -11.116   8.134  1.00  0.00    -0.282 OA
HETATM    8  C   UNL     1      39.707  -9.722  10.502  1.00  0.00     0.078 C 
ENDROOT
BRANCH   1   9
HETATM    9  C   UNL     1      42.321  -8.673   8.549  1.00  0.00    -0.028 A 
HETATM   10  C   UNL     1      43.267  -7.640   8.663  1.00  0.00     0.012 A 
HETATM   11  C   UNL     1      44.632  -7.911   8.569  1.00  0.00     0.040 A 
HETATM   12  C   UNL     1      45.056  -9.212   8.341  1.00  0.00     0.099 A 
HETATM   13  C   UNL     1      44.148 -10.263   8.211  1.00  0.00     0.102 A 
HETATM   14  C   UNL     1      42.783  -9.995   8.347  1.00  0.00     0.049 A 
BRANCH  12  15
HETATM   15  O   UNL     1      46.400  -9.440   8.234  1.00  0.00    -0.358 OA
HETATM   16  H   UNL     1      46.811  -8.563   8.109  1.00  0.00     0.218 HD
ENDBRANCH  12  15
BRANCH  13  17
HETATM   17  O   UNL     1      44.708 -11.486   7.954  1.00  0.00    -0.349 OA
BRANCH  17  18
HETATM   18  C   UNL     1      44.598 -11.990   6.625  1.00  0.00     0.171 C 
HETATM   19  C   UNL     1      43.792 -13.275   6.671  1.00  0.00     0.034 C 
ENDBRANCH  17  18
ENDBRANCH  13  17
ENDBRANCH   1   9
BRANCH   2  20
HETATM   20  C   UNL     1      40.517  -6.941   6.501  1.00  0.00     0.129 C 
BRANCH  20  21
HETATM   21  C   UNL     1      41.549  -7.077   5.380  1.00  0.00     0.048 C 
BRANCH  21  22
HETATM   22  C   UNL     1      41.031  -7.374   3.971  1.00  0.00     0.236 C 
BRANCH  22  23
HETATM   23  N   UNL     1      41.493  -8.684   3.398  1.00  0.00    -0.067 N 
HETATM   24  H   UNL     1      42.240  -8.475   2.703  1.00  0.00     0.280 HD
HETATM   25  C   UNL     1      42.020  -9.684   4.413  1.00  0.00     0.261 C 
HETATM   26  C   UNL     1      42.456 -10.971   3.703  1.00  0.00     0.195 C 
HETATM   27  O   UNL     1      41.377 -11.534   2.949  1.00  0.00    -0.388 OA
HETATM   28  C   UNL     1      40.927 -10.634   1.930  1.00  0.00     0.195 C 
HETATM   29  C   UNL     1      40.396  -9.339   2.550  1.00  0.00     0.261 C 
ENDBRANCH  22  23
ENDBRANCH  21  22
ENDBRANCH  20  21
ENDBRANCH   2  20
BRANCH   8  30
HETATM   30  O   UNL     1      38.835 -10.730  10.866  1.00  0.00    -0.360 OA
HETATM   31  H   UNL     1      38.530 -10.604  11.788  1.00  0.00     0.217 HD
ENDBRANCH   8  30
BRANCH   8  32
HETATM   32  C   UNL     1      40.219  -8.953  11.622  1.00  0.00     0.038 C 
HETATM   33  C   UNL     1      41.427  -9.133  12.179  1.00  0.00     0.014 C 
BRANCH  33  34
HETATM   34  C   UNL     1      41.814  -8.436  13.407  1.00  0.00    -0.036 A 
HETATM   35  C   UNL     1      41.082  -8.668  14.577  1.00  0.00     0.011 A 
HETATM   36  C   UNL     1      41.408  -8.000  15.759  1.00  0.00     0.001 A 
HETATM   37  C   UNL     1      42.473  -7.101  15.778  1.00  0.00     0.000 A 
HETATM   38  C   UNL     1      43.214  -6.872  14.618  1.00  0.00     0.001 A 
HETATM   39  C   UNL     1      42.885  -7.537  13.434  1.00  0.00     0.011 A 
ENDBRANCH  33  34
ENDBRANCH   8  32
TORSDOF 11
ENDMDL
MODEL 7
REMARK VINA RESULT:      -7.6      3.068      6.157
REMARK  11 active torsions:
REMARK  status: ('A' for Active; 'I' for Inactive)
REMARK    1  A    between atoms: C_2  and  O_3 
REMARK    2  A    between atoms: O_3  and  C_4 
REMARK    3  A    between atoms: C_5  and  O_6 
REMARK    4  A    between atoms: C_9  and  C_10 
REMARK    5  A    between atoms: N_11  and  C_12 
REMARK    6  A    between atoms: C_12  and  C_13 
REMARK    7  A    between atoms: C_13  and  C_14 
REMARK    8  A    between atoms: C_14  and  N_15 
REMARK    9  A    between atoms: C_27  and  O_28 
REMARK   10  A    between atoms: C_27  and  C_29 
REMARK   11  A    between atoms: C_30  and  C_31 
ROOT
HETATM    1  C   UNL     1      40.889 -11.720   5.488  1.00  0.00     0.161 C 
HETATM    2  N   UNL     1      39.896 -10.717   5.887  1.00  0.00    -0.332 N 
HETATM    3  C   UNL     1      39.598  -9.820   4.888  1.00  0.00     0.295 C 
HETATM    4  O   UNL     1      38.840  -8.873   4.972  1.00  0.00    -0.264 OA
HETATM    5  C   UNL     1      41.020 -11.544   3.995  1.00  0.00     0.058 C 
HETATM    6  C   UNL     1      40.400 -10.246   3.656  1.00  0.00     0.250 C 
HETATM    7  O   UNL     1      40.478  -9.640   2.611  1.00  0.00    -0.282 OA
HETATM    8  C   UNL     1      41.384 -12.409   3.037  1.00  0.00     0.078 C 
ENDROOT
BRANCH   1   9
HETATM    9  C   UNL     1      42.193 -11.510   6.244  1.00  0.00    -0.028 A 
HETATM   10  C   UNL     1      43.061 -12.599   6.432  1.00  0.00     0.012 A 
HETATM   11  C   UNL     1      44.249 -12.447   7.145  1.00  0.00     0.040 A 
HETATM   12  C   UNL     1      44.565 -11.211   7.691  1.00  0.00     0.099 A 
HETATM   13  C   UNL     1      43.724 -10.109   7.535  1.00  0.00     0.102 A 
HETATM   14  C   UNL     1      42.555 -10.253   6.785  1.00  0.00     0.049 A 
BRANCH  12  15
HETATM   15  O   UNL     1      45.728 -11.102   8.402  1.00  0.00    -0.358 OA
HETATM   16  H   UNL     1      45.540 -10.476   9.128  1.00  0.00     0.218 HD
ENDBRANCH  12  15
BRANCH  13  17
HETATM   17  O   UNL     1      44.148  -8.963   8.156  1.00  0.00    -0.349 OA
BRANCH  17  18
HETATM   18  C   UNL     1      43.347  -8.465   9.225  1.00  0.00     0.171 C 
HETATM   19  C   UNL     1      43.941  -8.956  10.532  1.00  0.00     0.034 C 
ENDBRANCH  17  18
ENDBRANCH  13  17
ENDBRANCH   1   9
BRANCH   2  20
HETATM   20  C   UNL     1      39.174 -10.790   7.146  1.00  0.00     0.129 C 
BRANCH  20  21
HETATM   21  C   UNL     1      39.534  -9.709   8.167  1.00  0.00     0.048 C 
BRANCH  21  22
HETATM   22  C   UNL     1      39.076  -9.919   9.612  1.00  0.00     0.236 C 
BRANCH  22  23
HETATM   23  N   UNL     1      40.010  -9.366  10.651  1.00  0.00    -0.067 N 
HETATM   24  H   UNL     1      40.978  -9.625  10.369  1.00  0.00     0.280 HD
HETATM   25  C   UNL     1      39.933  -7.863  10.856  1.00  0.00     0.261 C 
HETATM   26  C   UNL     1      40.931  -7.429  11.936  1.00  0.00     0.195 C 
HETATM   27  O   UNL     1      40.691  -8.122  13.166  1.00  0.00    -0.388 OA
HETATM   28  C   UNL     1      40.845  -9.536  13.007  1.00  0.00     0.195 C 
HETATM   29  C   UNL     1      39.831 -10.080  11.996  1.00  0.00     0.261 C 
ENDBRANCH  22  23
ENDBRANCH  21  22
ENDBRANCH  20  21
ENDBRANCH   2  20
BRANCH   8  30
HETATM   30  O   UNL     1      41.361 -12.094   1.692  1.00  0.00    -0.360 OA
HETATM   31  H   UNL     1      40.506 -12.355   1.292  1.00  0.00     0.217 HD
ENDBRANCH   8  30
BRANCH   8  32
HETATM   32  C   UNL     1      41.764 -13.783   3.313  1.00  0.00     0.038 C 
HETATM   33  C   UNL     1      42.939 -14.331   2.967  1.00  0.00     0.014 C 
BRANCH  33  34
HETATM   34  C   UNL     1      43.191 -15.765   3.130  1.00  0.00    -0.036 A 
HETATM   35  C   UNL     1      43.084 -16.603   2.015  1.00  0.00     0.011 A 
HETATM   36  C   UNL     1      43.293 -17.978   2.142  1.00  0.00     0.001 A 
HETATM   37  C   UNL     1      43.617 -18.520   3.385  1.00  0.00     0.000 A 
HETATM   38  C   UNL     1      43.734 -17.688   4.499  1.00  0.00     0.001 A 
HETATM   39  C   UNL     1      43.521 -16.313   4.374  1.00  0.00     0.011 A 
ENDBRANCH  33  34
ENDBRANCH   8  32
TORSDOF 11
ENDMDL
MODEL 8
REMARK VINA RESULT:      -7.6      2.698      4.636
REMARK  11 active torsions:
REMARK  status: ('A' for Active; 'I' for Inactive)
REMARK    1  A    between atoms: C_2  and  O_3 
REMARK    2  A    between atoms: O_3  and  C_4 
REMARK    3  A    between atoms: C_5  and  O_6 
REMARK    4  A    between atoms: C_9  and  C_10 
REMARK    5  A    between atoms: N_11  and  C_12 
REMARK    6  A    between atoms: C_12  and  C_13 
REMARK    7  A    between atoms: C_13  and  C_14 
REMARK    8  A    between atoms: C_14  and  N_15 
REMARK    9  A    between atoms: C_27  and  O_28 
REMARK   10  A    between atoms: C_27  and  C_29 
REMARK   11  A    between atoms: C_30  and  C_31 
ROOT
HETATM    1  C   UNL     1      40.520 -11.451   3.930  1.00  0.00     0.161 C 
HETATM    2  N   UNL     1      40.523 -10.073   4.429  1.00  0.00    -0.332 N 
HETATM    3  C   UNL     1      39.788  -9.910   5.580  1.00  0.00     0.295 C 
HETATM    4  O   UNL     1      39.598  -8.865   6.173  1.00  0.00    -0.264 OA
HETATM    5  C   UNL     1      39.907 -12.254   5.050  1.00  0.00     0.058 C 
HETATM    6  C   UNL     1      39.261 -11.293   5.968  1.00  0.00     0.250 C 
HETATM    7  O   UNL     1      38.489 -11.536   6.868  1.00  0.00    -0.282 OA
HETATM    8  C   UNL     1      40.050 -13.545   5.387  1.00  0.00     0.078 C 
ENDROOT
BRANCH   1   9
HETATM    9  C   UNL     1      39.751 -11.544   2.621  1.00  0.00    -0.028 A 
HETATM   10  C   UNL     1      38.468 -10.976   2.536  1.00  0.00     0.012 A 
HETATM   11  C   UNL     1      37.725 -11.069   1.360  1.00  0.00     0.040 A 
HETATM   12  C   UNL     1      38.252 -11.746   0.270  1.00  0.00     0.099 A 
HETATM   13  C   UNL     1      39.517 -12.332   0.318  1.00  0.00     0.102 A 
HETATM   14  C   UNL     1      40.277 -12.202   1.484  1.00  0.00     0.049 A 
BRANCH  12  15
HETATM   15  O   UNL     1      37.489 -11.836  -0.860  1.00  0.00    -0.358 OA
HETATM   16  H   UNL     1      38.068 -11.564  -1.598  1.00  0.00     0.218 HD
ENDBRANCH  12  15
BRANCH  13  17
HETATM   17  O   UNL     1      39.893 -12.996  -0.820  1.00  0.00    -0.349 OA
BRANCH  17  18
HETATM   18  C   UNL     1      39.743 -14.414  -0.829  1.00  0.00     0.171 C 
HETATM   19  C   UNL     1      39.013 -14.805  -2.101  1.00  0.00     0.034 C 
ENDBRANCH  17  18
ENDBRANCH  13  17
ENDBRANCH   1   9
BRANCH   2  20
HETATM   20  C   UNL     1      41.371  -9.037   3.862  1.00  0.00     0.129 C 
BRANCH  20  21
HETATM   21  C   UNL     1      40.628  -7.824   3.298  1.00  0.00     0.048 C 
BRANCH  21  22
HETATM   22  C   UNL     1      40.146  -7.900   1.847  1.00  0.00     0.236 C 
BRANCH  22  23
HETATM   23  N   UNL     1      41.246  -7.924   0.823  1.00  0.00    -0.067 N 
HETATM   24  H   UNL     1      42.144  -8.051   1.333  1.00  0.00     0.280 HD
HETATM   25  C   UNL     1      41.116  -9.002  -0.239  1.00  0.00     0.261 C 
HETATM   26  C   UNL     1      42.295  -8.918  -1.217  1.00  0.00     0.195 C 
HETATM   27  O   UNL     1      42.374  -7.620  -1.817  1.00  0.00    -0.388 OA
HETATM   28  C   UNL     1      42.583  -6.602  -0.833  1.00  0.00     0.195 C 
HETATM   29  C   UNL     1      41.411  -6.555   0.153  1.00  0.00     0.261 C 
ENDBRANCH  22  23
ENDBRANCH  21  22
ENDBRANCH  20  21
ENDBRANCH   2  20
BRANCH   8  30
HETATM   30  O   UNL     1      39.472 -14.096   6.515  1.00  0.00    -0.360 OA
HETATM   31  H   UNL     1      38.623 -14.527   6.290  1.00  0.00     0.217 HD
ENDBRANCH   8  30
BRANCH   8  32
HETATM   32  C   UNL     1      40.886 -14.470   4.642  1.00  0.00     0.038 C 
HETATM   33  C   UNL     1      41.039 -15.769   4.944  1.00  0.00     0.014 C 
BRANCH  33  34
HETATM   34  C   UNL     1      42.023 -16.603   4.251  1.00  0.00    -0.036 A 
HETATM   35  C   UNL     1      41.900 -16.790   2.869  1.00  0.00     0.011 A 
HETATM   36  C   UNL     1      42.806 -17.601   2.183  1.00  0.00     0.001 A 
HETATM   37  C   UNL     1      43.845 -18.223   2.874  1.00  0.00     0.000 A 
HETATM   38  C   UNL     1      43.979 -18.033   4.250  1.00  0.00     0.001 A 
HETATM   39  C   UNL     1      43.069 -17.226   4.938  1.00  0.00     0.011 A 
ENDBRANCH  33  34
ENDBRANCH   8  32
TORSDOF 11
ENDMDL
MODEL 9
REMARK VINA RESULT:      -7.5      3.223      8.101
REMARK  11 active torsions:
REMARK  status: ('A' for Active; 'I' for Inactive)
REMARK    1  A    between atoms: C_2  and  O_3 
REMARK    2  A    between atoms: O_3  and  C_4 
REMARK    3  A    between atoms: C_5  and  O_6 
REMARK    4  A    between atoms: C_9  and  C_10 
REMARK    5  A    between atoms: N_11  and  C_12 
REMARK    6  A    between atoms: C_12  and  C_13 
REMARK    7  A    between atoms: C_13  and  C_14 
REMARK    8  A    between atoms: C_14  and  N_15 
REMARK    9  A    between atoms: C_27  and  O_28 
REMARK   10  A    between atoms: C_27  and  C_29 
REMARK   11  A    between atoms: C_30  and  C_31 
ROOT
HETATM    1  C   UNL     1      42.111 -11.320   6.602  1.00  0.00     0.161 C 
HETATM    2  N   UNL     1      41.972 -12.213   5.448  1.00  0.00    -0.332 N 
HETATM    3  C   UNL     1      43.118 -12.306   4.692  1.00  0.00     0.295 C 
HETATM    4  O   UNL     1      43.255 -12.946   3.667  1.00  0.00    -0.264 OA
HETATM    5  C   UNL     1      43.590 -11.033   6.678  1.00  0.00     0.058 C 
HETATM    6  C   UNL     1      44.180 -11.454   5.390  1.00  0.00     0.250 C 
HETATM    7  O   UNL     1      45.287 -11.207   4.968  1.00  0.00    -0.282 OA
HETATM    8  C   UNL     1      44.367 -10.693   7.718  1.00  0.00     0.078 C 
ENDROOT
BRANCH   1   9
HETATM    9  C   UNL     1      41.256 -10.075   6.419  1.00  0.00    -0.028 A 
HETATM   10  C   UNL     1      41.425  -9.288   5.266  1.00  0.00     0.012 A 
HETATM   11  C   UNL     1      40.678  -8.126   5.082  1.00  0.00     0.040 A 
HETATM   12  C   UNL     1      39.774  -7.733   6.058  1.00  0.00     0.099 A 
HETATM   13  C   UNL     1      39.585  -8.480   7.221  1.00  0.00     0.102 A 
HETATM   14  C   UNL     1      40.304  -9.667   7.384  1.00  0.00     0.049 A 
BRANCH  12  15
HETATM   15  O   UNL     1      39.072  -6.577   5.856  1.00  0.00    -0.358 OA
HETATM   16  H   UNL     1      39.172  -6.055   6.675  1.00  0.00     0.218 HD
ENDBRANCH  12  15
BRANCH  13  17
HETATM   17  O   UNL     1      38.685  -7.954   8.110  1.00  0.00    -0.349 OA
BRANCH  17  18
HETATM   18  C   UNL     1      38.965  -8.119   9.499  1.00  0.00     0.171 C 
HETATM   19  C   UNL     1      40.037  -7.118   9.889  1.00  0.00     0.034 C 
ENDBRANCH  17  18
ENDBRANCH  13  17
ENDBRANCH   1   9
BRANCH   2  20
HETATM   20  C   UNL     1      40.802 -13.051   5.243  1.00  0.00     0.129 C 
BRANCH  20  21
HETATM   21  C   UNL     1      40.599 -14.152   6.287  1.00  0.00     0.048 C 
BRANCH  21  22
HETATM   22  C   UNL     1      40.683 -15.604   5.810  1.00  0.00     0.236 C 
BRANCH  22  23
HETATM   23  N   UNL     1      42.006 -15.990   5.211  1.00  0.00    -0.067 N 
HETATM   24  H   UNL     1      42.600 -15.135   5.189  1.00  0.00     0.280 HD
HETATM   25  C   UNL     1      42.748 -17.096   5.942  1.00  0.00     0.261 C 
HETATM   26  C   UNL     1      44.075 -17.394   5.234  1.00  0.00     0.195 C 
HETATM   27  O   UNL     1      43.858 -17.748   3.863  1.00  0.00    -0.388 OA
HETATM   28  C   UNL     1      43.236 -16.679   3.140  1.00  0.00     0.195 C 
HETATM   29  C   UNL     1      41.860 -16.358   3.730  1.00  0.00     0.261 C 
ENDBRANCH  22  23
ENDBRANCH  21  22
ENDBRANCH  20  21
ENDBRANCH   2  20
BRANCH   8  30
HETATM   30  O   UNL     1      45.738 -10.554   7.617  1.00  0.00    -0.360 OA
HETATM   31  H   UNL     1      46.189 -11.370   7.914  1.00  0.00     0.217 HD
ENDBRANCH   8  30
BRANCH   8  32
HETATM   32  C   UNL     1      43.855 -10.512   9.064  1.00  0.00     0.038 C 
HETATM   33  C   UNL     1      43.348  -9.363   9.537  1.00  0.00     0.014 C 
BRANCH  33  34
HETATM   34  C   UNL     1      43.001  -9.206  10.951  1.00  0.00    -0.036 A 
HETATM   35  C   UNL     1      42.007 -10.024  11.501  1.00  0.00     0.011 A 
HETATM   36  C   UNL     1      41.635  -9.882  12.838  1.00  0.00     0.001 A 
HETATM   37  C   UNL     1      42.261  -8.926  13.636  1.00  0.00     0.000 A 
HETATM   38  C   UNL     1      43.259  -8.113  13.099  1.00  0.00     0.001 A 
HETATM   39  C   UNL     1      43.628  -8.251  11.758  1.00  0.00     0.011 A 
ENDBRANCH  33  34
ENDBRANCH   8  32
TORSDOF 11
ENDMDL
MODEL 10
REMARK VINA RESULT:      -7.5      3.634      7.803
REMARK  11 active torsions:
REMARK  status: ('A' for Active; 'I' for Inactive)
REMARK    1  A    between atoms: C_2  and  O_3 
REMARK    2  A    between atoms: O_3  and  C_4 
REMARK    3  A    between atoms: C_5  and  O_6 
REMARK    4  A    between atoms: C_9  and  C_10 
REMARK    5  A    between atoms: N_11  and  C_12 
REMARK    6  A    between atoms: C_12  and  C_13 
REMARK    7  A    between atoms: C_13  and  C_14 
REMARK    8  A    between atoms: C_14  and  N_15 
REMARK    9  A    between atoms: C_27  and  O_28 
REMARK   10  A    between atoms: C_27  and  C_29 
REMARK   11  A    between atoms: C_30  and  C_31 
ROOT
HETATM    1  C   UNL     1      40.470 -12.680   0.465  1.00  0.00     0.161 C 
HETATM    2  N   UNL     1      40.405 -13.890   1.289  1.00  0.00    -0.332 N 
HETATM    3  C   UNL     1      39.908 -14.981   0.615  1.00  0.00     0.295 C 
HETATM    4  O   UNL     1      39.716 -16.089   1.077  1.00  0.00    -0.264 OA
HETATM    5  C   UNL     1      40.204 -13.167  -0.937  1.00  0.00     0.058 C 
HETATM    6  C   UNL     1      39.646 -14.531  -0.824  1.00  0.00     0.250 C 
HETATM    7  O   UNL     1      39.112 -15.185  -1.690  1.00  0.00    -0.282 OA
HETATM    8  C   UNL     1      40.571 -12.665  -2.127  1.00  0.00     0.078 C 
ENDROOT
BRANCH   1   9
HETATM    9  C   UNL     1      39.466 -11.647   0.954  1.00  0.00    -0.028 A 
HETATM   10  C   UNL     1      38.176 -11.623   0.394  1.00  0.00     0.012 A 
HETATM   11  C   UNL     1      37.242 -10.671   0.799  1.00  0.00     0.040 A 
HETATM   12  C   UNL     1      37.598  -9.726   1.750  1.00  0.00     0.099 A 
HETATM   13  C   UNL     1      38.871  -9.709   2.322  1.00  0.00     0.102 A 
HETATM   14  C   UNL     1      39.792 -10.690   1.944  1.00  0.00     0.049 A 
BRANCH  12  15
HETATM   15  O   UNL     1      36.665  -8.794   2.109  1.00  0.00    -0.358 OA
HETATM   16  H   UNL     1      37.114  -8.190   2.731  1.00  0.00     0.218 HD
ENDBRANCH  12  15
BRANCH  13  17
HETATM   17  O   UNL     1      39.090  -8.699   3.220  1.00  0.00    -0.349 OA
BRANCH  17  18
HETATM   18  C   UNL     1      39.600  -9.063   4.502  1.00  0.00     0.171 C 
HETATM   19  C   UNL     1      38.444  -9.572   5.344  1.00  0.00     0.034 C 
ENDBRANCH  17  18
ENDBRANCH  13  17
ENDBRANCH   1   9
BRANCH   2  20
HETATM   20  C   UNL     1      40.984 -13.963   2.621  1.00  0.00     0.129 C 
BRANCH  20  21
HETATM   21  C   UNL     1      42.437 -14.440   2.675  1.00  0.00     0.048 C 
BRANCH  21  22
HETATM   22  C   UNL     1      42.870 -15.255   3.895  1.00  0.00     0.236 C 
BRANCH  22  23
HETATM   23  N   UNL     1      43.498 -16.582   3.570  1.00  0.00    -0.067 N 
HETATM   24  H   UNL     1      44.307 -16.398   2.942  1.00  0.00     0.280 HD
HETATM   25  C   UNL     1      43.968 -17.385   4.770  1.00  0.00     0.261 C 
HETATM   26  C   UNL     1      44.586 -18.710   4.305  1.00  0.00     0.195 C 
HETATM   27  O   UNL     1      43.654 -19.464   3.522  1.00  0.00    -0.388 OA
HETATM   28  C   UNL     1      43.268 -18.753   2.340  1.00  0.00     0.195 C 
HETATM   29  C   UNL     1      42.567 -17.441   2.706  1.00  0.00     0.261 C 
ENDBRANCH  22  23
ENDBRANCH  21  22
ENDBRANCH  20  21
ENDBRANCH   2  20
BRANCH   8  30
HETATM   30  O   UNL     1      40.310 -13.303  -3.324  1.00  0.00    -0.360 OA
HETATM   31  H   UNL     1      40.528 -14.255  -3.261  1.00  0.00     0.217 HD
ENDBRANCH   8  30
BRANCH   8  32
HETATM   32  C   UNL     1      41.344 -11.444  -2.267  1.00  0.00     0.038 C 
HETATM   33  C   UNL     1      40.854 -10.208  -2.080  1.00  0.00     0.014 C 
BRANCH  33  34
HETATM   34  C   UNL     1      41.645  -9.017  -2.397  1.00  0.00    -0.036 A 
HETATM   35  C   UNL     1      42.525  -8.511  -1.434  1.00  0.00     0.011 A 
HETATM   36  C   UNL     1      43.274  -7.363  -1.695  1.00  0.00     0.001 A 
HETATM   37  C   UNL     1      43.153  -6.718  -2.925  1.00  0.00     0.000 A 
HETATM   38  C   UNL     1      42.285  -7.222  -3.894  1.00  0.00     0.001 A 
HETATM   39  C   UNL     1      41.531  -8.369  -3.631  1.00  0.00     0.011 A 
ENDBRANCH  33  34
ENDBRANCH   8  32
TORSDOF 11
ENDMDL
