MODEL 1
REMARK VINA RESULT:      -8.5      0.000      0.000
REMARK  6 active torsions:
REMARK  status: ('A' for Active; 'I' for Inactive)
REMARK    1  A    between atoms: C_2  and  O_3 
REMARK    2  A    between atoms: O_3  and  C_4 
REMARK    3  A    between atoms: C_5  and  C_6 
REMARK    4  A    between atoms: C_10  and  C_11 
REMARK       I    between atoms: C_11  and  N_12 
REMARK    5  A    between atoms: N_12  and  N_13 
REMARK    6  A    between atoms: C_14  and  C_15 
ROOT
HETATM    1  C   UNL     1      40.844 -14.219   1.038  1.00  0.00     0.289 C 
HETATM    2  N   UNL     1      41.243 -13.562  -0.117  1.00  0.00    -0.242 N 
HETATM    3  O   UNL     1      39.809 -13.978   1.652  1.00  0.00    -0.264 OA
HETATM    4  H   UNL     1      42.118 -13.802  -0.561  1.00  0.00     0.192 HD
ENDROOT
BRANCH   1   5
HETATM    5  C   UNL     1      41.758 -15.239   1.488  1.00  0.00     0.121 A 
HETATM    6  N   UNL     1      43.101 -15.141   1.262  1.00  0.00    -0.272 N 
HETATM    7  N   UNL     1      43.820 -16.160   1.754  1.00  0.00    -0.174 NA
HETATM    8  H   UNL     1      43.580 -14.387   0.778  1.00  0.00     0.189 HD
HETATM    9  C   UNL     1      42.912 -16.980   2.311  1.00  0.00     0.092 A 
HETATM   10  C   UNL     1      41.607 -16.425   2.178  1.00  0.00     0.071 A 
BRANCH   9  11
HETATM   11  C   UNL     1      43.312 -18.228   2.981  1.00  0.00     0.028 A 
HETATM   12  C   UNL     1      43.725 -18.277   4.330  1.00  0.00     0.081 A 
HETATM   13  C   UNL     1      44.117 -19.505   4.885  1.00  0.00     0.038 A 
HETATM   14  C   UNL     1      44.086 -20.677   4.124  1.00  0.00     0.003 A 
HETATM   15  C   UNL     1      43.664 -20.638   2.801  1.00  0.00     0.001 A 
HETATM   16  C   UNL     1      43.280 -19.422   2.236  1.00  0.00     0.017 A 
BRANCH  12  17
HETATM   17  O   UNL     1      43.723 -17.100   5.037  1.00  0.00    -0.351 OA
BRANCH  17  18
HETATM   18  C   UNL     1      42.972 -17.050   6.249  1.00  0.00     0.171 C 
HETATM   19  C   UNL     1      41.602 -16.483   5.921  1.00  0.00     0.034 C 
ENDBRANCH  17  18
ENDBRANCH  12  17
ENDBRANCH   9  11
ENDBRANCH   1   5
BRANCH   2  20
HETATM   20  N   UNL     1      40.452 -12.593  -0.671  1.00  0.00    -0.183 NA
HETATM   21  C   UNL     1      39.939 -12.881  -1.824  1.00  0.00     0.152 C 
BRANCH  21  22
HETATM   22  C   UNL     1      39.077 -11.925  -2.485  1.00  0.00     0.011 A 
HETATM   23  C   UNL     1      39.470 -10.745  -3.195  1.00  0.00     0.004 A 
HETATM   24  C   UNL     1      38.306 -10.138  -3.671  1.00  0.00     0.043 A 
HETATM   25  C   UNL     1      40.709 -10.131  -3.481  1.00  0.00     0.014 A 
HETATM   26  C   UNL     1      38.317  -8.953  -4.417  1.00  0.00     0.030 A 
HETATM   27  N   UNL     1      37.246 -10.916  -3.265  1.00  0.00    -0.364 N 
HETATM   28  C   UNL     1      39.557  -8.368  -4.686  1.00  0.00     0.002 A 
HETATM   29  C   UNL     1      40.738  -8.946  -4.226  1.00  0.00     0.001 A 
HETATM   30  H   UNL     1      36.276 -10.719  -3.468  1.00  0.00     0.165 HD
HETATM   31  C   UNL     1      37.698 -11.992  -2.552  1.00  0.00     0.102 A 
ENDBRANCH  21  22
ENDBRANCH   2  20
TORSDOF 6
ENDMDL
MODEL 2
REMARK VINA RESULT:      -8.5      7.951     11.218
REMARK  6 active torsions:
REMARK  status: ('A' for Active; 'I' for Inactive)
REMARK    1  A    between atoms: C_2  and  O_3 
REMARK    2  A    between atoms: O_3  and  C_4 
REMARK    3  A    between atoms: C_5  and  C_6 
REMARK    4  A    between atoms: C_10  and  C_11 
REMARK       I    between atoms: C_11  and  N_12 
REMARK    5  A    between atoms: N_12  and  N_13 
REMARK    6  A    between atoms: C_14  and  C_15 
ROOT
HETATM    1  C   UNL     1      43.732 -10.522   8.039  1.00  0.00     0.289 C 
HETATM    2  N   UNL     1      43.377 -11.786   7.590  1.00  0.00    -0.242 N 
HETATM    3  O   UNL     1      44.184  -9.632   7.324  1.00  0.00    -0.264 OA
HETATM    4  H   UNL     1      43.028 -12.476   8.241  1.00  0.00     0.192 HD
ENDROOT
BRANCH   1   5
HETATM    5  C   UNL     1      43.530 -10.313   9.451  1.00  0.00     0.121 A 
HETATM    6  N   UNL     1      43.876 -11.265  10.367  1.00  0.00    -0.272 N 
HETATM    7  N   UNL     1      43.640 -10.917  11.641  1.00  0.00    -0.174 NA
HETATM    8  H   UNL     1      44.287 -12.173  10.172  1.00  0.00     0.189 HD
HETATM    9  C   UNL     1      43.093  -9.691  11.564  1.00  0.00     0.092 A 
HETATM   10  C   UNL     1      43.024  -9.274  10.204  1.00  0.00     0.071 A 
BRANCH   9  11
HETATM   11  C   UNL     1      42.698  -8.949  12.772  1.00  0.00     0.028 A 
HETATM   12  C   UNL     1      41.590  -9.313  13.568  1.00  0.00     0.081 A 
HETATM   13  C   UNL     1      41.265  -8.535  14.690  1.00  0.00     0.038 A 
HETATM   14  C   UNL     1      42.033  -7.420  15.036  1.00  0.00     0.003 A 
HETATM   15  C   UNL     1      43.135  -7.068  14.266  1.00  0.00     0.001 A 
HETATM   16  C   UNL     1      43.463  -7.828  13.144  1.00  0.00     0.017 A 
BRANCH  12  17
HETATM   17  O   UNL     1      40.878 -10.426  13.193  1.00  0.00    -0.351 OA
BRANCH  17  18
HETATM   18  C   UNL     1      39.534 -10.243  12.751  1.00  0.00     0.171 C 
HETATM   19  C   UNL     1      39.560 -10.109  11.238  1.00  0.00     0.034 C 
ENDBRANCH  17  18
ENDBRANCH  12  17
ENDBRANCH   9  11
ENDBRANCH   1   5
BRANCH   2  20
HETATM   20  N   UNL     1      43.489 -12.107   6.265  1.00  0.00    -0.183 NA
HETATM   21  C   UNL     1      42.932 -13.220   5.911  1.00  0.00     0.152 C 
BRANCH  21  22
HETATM   22  C   UNL     1      42.984 -13.641   4.527  1.00  0.00     0.011 A 
HETATM   23  C   UNL     1      43.085 -14.980   4.029  1.00  0.00     0.004 A 
HETATM   24  C   UNL     1      43.094 -14.905   2.634  1.00  0.00     0.043 A 
HETATM   25  C   UNL     1      43.167 -16.254   4.631  1.00  0.00     0.014 A 
HETATM   26  C   UNL     1      43.180 -16.037   1.813  1.00  0.00     0.030 A 
HETATM   27  N   UNL     1      43.006 -13.574   2.297  1.00  0.00    -0.364 N 
HETATM   28  C   UNL     1      43.260 -17.285   2.437  1.00  0.00     0.002 A 
HETATM   29  C   UNL     1      43.255 -17.395   3.825  1.00  0.00     0.001 A 
HETATM   30  H   UNL     1      42.991 -13.220   1.351  1.00  0.00     0.165 HD
HETATM   31  C   UNL     1      42.940 -12.806   3.426  1.00  0.00     0.102 A 
ENDBRANCH  21  22
ENDBRANCH   2  20
TORSDOF 6
ENDMDL
MODEL 3
REMARK VINA RESULT:      -8.5      7.679     11.260
REMARK  6 active torsions:
REMARK  status: ('A' for Active; 'I' for Inactive)
REMARK    1  A    between atoms: C_2  and  O_3 
REMARK    2  A    between atoms: O_3  and  C_4 
REMARK    3  A    between atoms: C_5  and  C_6 
REMARK    4  A    between atoms: C_10  and  C_11 
REMARK       I    between atoms: C_11  and  N_12 
REMARK    5  A    between atoms: N_12  and  N_13 
REMARK    6  A    between atoms: C_14  and  C_15 
ROOT
HETATM    1  C   UNL     1      44.316 -11.249   8.089  1.00  0.00     0.289 C 
HETATM    2  N   UNL     1      43.437 -12.275   7.774  1.00  0.00    -0.242 N 
HETATM    3  O   UNL     1      45.416 -11.093   7.568  1.00  0.00    -0.264 OA
HETATM    4  H   UNL     1      42.552 -12.352   8.257  1.00  0.00     0.192 HD
ENDROOT
BRANCH   1   5
HETATM    5  C   UNL     1      43.836 -10.346   9.105  1.00  0.00     0.121 A 
HETATM    6  N   UNL     1      43.358  -9.107   8.786  1.00  0.00    -0.272 N 
HETATM    7  N   UNL     1      42.935  -8.391   9.838  1.00  0.00    -0.174 NA
HETATM    8  H   UNL     1      43.291  -8.704   7.856  1.00  0.00     0.189 HD
HETATM    9  C   UNL     1      43.164  -9.180  10.902  1.00  0.00     0.092 A 
HETATM   10  C   UNL     1      43.714 -10.423  10.477  1.00  0.00     0.071 A 
BRANCH   9  11
HETATM   11  C   UNL     1      42.818  -8.749  12.266  1.00  0.00     0.028 A 
HETATM   12  C   UNL     1      41.767  -9.330  13.011  1.00  0.00     0.081 A 
HETATM   13  C   UNL     1      41.486  -8.842  14.296  1.00  0.00     0.038 A 
HETATM   14  C   UNL     1      42.241  -7.805  14.850  1.00  0.00     0.003 A 
HETATM   15  C   UNL     1      43.287  -7.242  14.129  1.00  0.00     0.001 A 
HETATM   16  C   UNL     1      43.572  -7.713  12.848  1.00  0.00     0.017 A 
BRANCH  12  17
HETATM   17  O   UNL     1      41.067 -10.356  12.426  1.00  0.00    -0.351 OA
BRANCH  17  18
HETATM   18  C   UNL     1      39.679 -10.155  12.167  1.00  0.00     0.171 C 
HETATM   19  C   UNL     1      39.524  -9.851  10.687  1.00  0.00     0.034 C 
ENDBRANCH  17  18
ENDBRANCH  12  17
ENDBRANCH   9  11
ENDBRANCH   1   5
BRANCH   2  20
HETATM   20  N   UNL     1      43.754 -13.185   6.803  1.00  0.00    -0.183 NA
HETATM   21  C   UNL     1      43.056 -14.275   6.809  1.00  0.00     0.152 C 
BRANCH  21  22
HETATM   22  C   UNL     1      43.306 -15.294   5.813  1.00  0.00     0.011 A 
HETATM   23  C   UNL     1      43.112 -15.193   4.397  1.00  0.00     0.004 A 
HETATM   24  C   UNL     1      43.493 -16.414   3.837  1.00  0.00     0.043 A 
HETATM   25  C   UNL     1      42.649 -14.176   3.534  1.00  0.00     0.014 A 
HETATM   26  C   UNL     1      43.435 -16.670   2.461  1.00  0.00     0.030 A 
HETATM   27  N   UNL     1      43.899 -17.227   4.869  1.00  0.00    -0.364 N 
HETATM   28  C   UNL     1      42.972 -15.645   1.630  1.00  0.00     0.002 A 
HETATM   29  C   UNL     1      42.584 -14.416   2.156  1.00  0.00     0.001 A 
HETATM   30  H   UNL     1      44.231 -18.175   4.759  1.00  0.00     0.165 HD
HETATM   31  C   UNL     1      43.791 -16.565   6.060  1.00  0.00     0.102 A 
ENDBRANCH  21  22
ENDBRANCH   2  20
TORSDOF 6
ENDMDL
MODEL 4
REMARK VINA RESULT:      -8.2      6.974     10.782
REMARK  6 active torsions:
REMARK  status: ('A' for Active; 'I' for Inactive)
REMARK    1  A    between atoms: C_2  and  O_3 
REMARK    2  A    between atoms: O_3  and  C_4 
REMARK    3  A    between atoms: C_5  and  C_6 
REMARK    4  A    between atoms: C_10  and  C_11 
REMARK       I    between atoms: C_11  and  N_12 
REMARK    5  A    between atoms: N_12  and  N_13 
REMARK    6  A    between atoms: C_14  and  C_15 
ROOT
HETATM    1  C   UNL     1      44.223 -11.787   6.325  1.00  0.00     0.289 C 
HETATM    2  N   UNL     1      43.415 -12.914   6.297  1.00  0.00    -0.242 N 
HETATM    3  O   UNL     1      44.850 -11.358   5.360  1.00  0.00    -0.264 OA
HETATM    4  H   UNL     1      42.942 -13.220   7.136  1.00  0.00     0.192 HD
ENDROOT
BRANCH   1   5
HETATM    5  C   UNL     1      44.281 -11.127   7.605  1.00  0.00     0.121 A 
HETATM    6  N   UNL     1      45.471 -10.910   8.239  1.00  0.00    -0.272 N 
HETATM    7  N   UNL     1      45.362 -10.272   9.414  1.00  0.00    -0.174 NA
HETATM    8  H   UNL     1      46.393 -11.174   7.905  1.00  0.00     0.189 HD
HETATM    9  C   UNL     1      44.042 -10.077   9.575  1.00  0.00     0.092 A 
HETATM   10  C   UNL     1      43.333 -10.587   8.450  1.00  0.00     0.071 A 
BRANCH   9  11
HETATM   11  C   UNL     1      43.506  -9.385  10.759  1.00  0.00     0.028 A 
HETATM   12  C   UNL     1      43.335  -7.985  10.816  1.00  0.00     0.081 A 
HETATM   13  C   UNL     1      42.843  -7.401  11.994  1.00  0.00     0.038 A 
HETATM   14  C   UNL     1      42.505  -8.189  13.098  1.00  0.00     0.003 A 
HETATM   15  C   UNL     1      42.655  -9.569  13.040  1.00  0.00     0.001 A 
HETATM   16  C   UNL     1      43.151 -10.160  11.878  1.00  0.00     0.017 A 
BRANCH  12  17
HETATM   17  O   UNL     1      43.667  -7.258   9.699  1.00  0.00    -0.351 OA
BRANCH  17  18
HETATM   18  C   UNL     1      42.670  -6.410   9.133  1.00  0.00     0.171 C 
HETATM   19  C   UNL     1      42.234  -7.025   7.815  1.00  0.00     0.034 C 
ENDBRANCH  17  18
ENDBRANCH  12  17
ENDBRANCH   9  11
ENDBRANCH   1   5
BRANCH   2  20
HETATM   20  N   UNL     1      43.246 -13.617   5.136  1.00  0.00    -0.183 NA
HETATM   21  C   UNL     1      43.109 -14.896   5.272  1.00  0.00     0.152 C 
BRANCH  21  22
HETATM   22  C   UNL     1      42.911 -15.726   4.103  1.00  0.00     0.011 A 
HETATM   23  C   UNL     1      43.314 -17.089   3.925  1.00  0.00     0.004 A 
HETATM   24  C   UNL     1      42.907 -17.480   2.648  1.00  0.00     0.043 A 
HETATM   25  C   UNL     1      43.988 -18.032   4.731  1.00  0.00     0.014 A 
HETATM   26  C   UNL     1      43.138 -18.764   2.137  1.00  0.00     0.030 A 
HETATM   27  N   UNL     1      42.283 -16.399   2.071  1.00  0.00    -0.364 N 
HETATM   28  C   UNL     1      43.807 -19.677   2.957  1.00  0.00     0.002 A 
HETATM   29  C   UNL     1      44.228 -19.319   4.235  1.00  0.00     0.001 A 
HETATM   30  H   UNL     1      41.885 -16.393   1.142  1.00  0.00     0.165 HD
HETATM   31  C   UNL     1      42.280 -15.340   2.935  1.00  0.00     0.102 A 
ENDBRANCH  21  22
ENDBRANCH   2  20
TORSDOF 6
ENDMDL
MODEL 5
REMARK VINA RESULT:      -8.0      2.280      2.833
REMARK  6 active torsions:
REMARK  status: ('A' for Active; 'I' for Inactive)
REMARK    1  A    between atoms: C_2  and  O_3 
REMARK    2  A    between atoms: O_3  and  C_4 
REMARK    3  A    between atoms: C_5  and  C_6 
REMARK    4  A    between atoms: C_10  and  C_11 
REMARK       I    between atoms: C_11  and  N_12 
REMARK    5  A    between atoms: N_12  and  N_13 
REMARK    6  A    between atoms: C_14  and  C_15 
ROOT
HETATM    1  C   UNL     1      40.270 -13.835  -0.248  1.00  0.00     0.289 C 
HETATM    2  N   UNL     1      41.222 -12.864  -0.522  1.00  0.00    -0.242 N 
HETATM    3  O   UNL     1      39.184 -13.921  -0.813  1.00  0.00    -0.264 OA
HETATM    4  H   UNL     1      42.089 -12.844  -0.003  1.00  0.00     0.192 HD
ENDROOT
BRANCH   1   5
HETATM    5  C   UNL     1      40.651 -14.770   0.780  1.00  0.00     0.121 A 
HETATM    6  N   UNL     1      39.734 -15.280   1.654  1.00  0.00    -0.272 N 
HETATM    7  N   UNL     1      40.239 -16.148   2.542  1.00  0.00    -0.174 NA
HETATM    8  H   UNL     1      38.740 -15.070   1.680  1.00  0.00     0.189 HD
HETATM    9  C   UNL     1      41.553 -16.199   2.259  1.00  0.00     0.092 A 
HETATM   10  C   UNL     1      41.845 -15.359   1.147  1.00  0.00     0.071 A 
BRANCH   9  11
HETATM   11  C   UNL     1      42.469 -17.066   3.018  1.00  0.00     0.028 A 
HETATM   12  C   UNL     1      42.802 -16.832   4.371  1.00  0.00     0.081 A 
HETATM   13  C   UNL     1      43.706 -17.693   5.014  1.00  0.00     0.038 A 
HETATM   14  C   UNL     1      44.262 -18.782   4.338  1.00  0.00     0.003 A 
HETATM   15  C   UNL     1      43.924 -19.026   3.013  1.00  0.00     0.001 A 
HETATM   16  C   UNL     1      43.034 -18.174   2.360  1.00  0.00     0.017 A 
BRANCH  12  17
HETATM   17  O   UNL     1      42.215 -15.758   4.992  1.00  0.00    -0.351 OA
BRANCH  17  18
HETATM   18  C   UNL     1      43.052 -14.669   5.377  1.00  0.00     0.171 C 
HETATM   19  C   UNL     1      42.675 -13.471   4.522  1.00  0.00     0.034 C 
ENDBRANCH  17  18
ENDBRANCH  12  17
ENDBRANCH   9  11
ENDBRANCH   1   5
BRANCH   2  20
HETATM   20  N   UNL     1      41.001 -11.933  -1.499  1.00  0.00    -0.183 NA
HETATM   21  C   UNL     1      41.341 -10.720  -1.202  1.00  0.00     0.152 C 
BRANCH  21  22
HETATM   22  C   UNL     1      41.159  -9.664  -2.175  1.00  0.00     0.011 A 
HETATM   23  C   UNL     1      41.908  -8.449  -2.289  1.00  0.00     0.004 A 
HETATM   24  C   UNL     1      41.388  -7.740  -3.374  1.00  0.00     0.043 A 
HETATM   25  C   UNL     1      42.983  -7.880  -1.573  1.00  0.00     0.014 A 
HETATM   26  C   UNL     1      41.887  -6.496  -3.779  1.00  0.00     0.030 A 
HETATM   27  N   UNL     1      40.362  -8.492  -3.898  1.00  0.00    -0.364 N 
HETATM   28  C   UNL     1      42.953  -5.957  -3.052  1.00  0.00     0.002 A 
HETATM   29  C   UNL     1      43.494  -6.637  -1.964  1.00  0.00     0.001 A 
HETATM   30  H   UNL     1      39.801  -8.225  -4.695  1.00  0.00     0.165 HD
HETATM   31  C   UNL     1      40.215  -9.650  -3.185  1.00  0.00     0.102 A 
ENDBRANCH  21  22
ENDBRANCH   2  20
TORSDOF 6
ENDMDL
MODEL 6
REMARK VINA RESULT:      -8.0      7.316     11.374
REMARK  6 active torsions:
REMARK  status: ('A' for Active; 'I' for Inactive)
REMARK    1  A    between atoms: C_2  and  O_3 
REMARK    2  A    between atoms: O_3  and  C_4 
REMARK    3  A    between atoms: C_5  and  C_6 
REMARK    4  A    between atoms: C_10  and  C_11 
REMARK       I    between atoms: C_11  and  N_12 
REMARK    5  A    between atoms: N_12  and  N_13 
REMARK    6  A    between atoms: C_14  and  C_15 
ROOT
HETATM    1  C   UNL     1      44.012 -11.920   7.323  1.00  0.00     0.289 C 
HETATM    2  N   UNL     1      43.153 -12.997   7.164  1.00  0.00    -0.242 N 
HETATM    3  O   UNL     1      45.197 -11.922   7.000  1.00  0.00    -0.264 OA
HETATM    4  H   UNL     1      42.192 -12.929   7.470  1.00  0.00     0.192 HD
ENDROOT
BRANCH   1   5
HETATM    5  C   UNL     1      43.404 -10.755   7.916  1.00  0.00     0.121 A 
HETATM    6  N   UNL     1      42.164 -10.329   7.533  1.00  0.00    -0.272 N 
HETATM    7  N   UNL     1      41.728  -9.242   8.186  1.00  0.00    -0.174 NA
HETATM    8  H   UNL     1      41.567 -10.754   6.830  1.00  0.00     0.189 HD
HETATM    9  C   UNL     1      42.731  -8.920   9.021  1.00  0.00     0.092 A 
HETATM   10  C   UNL     1      43.794  -9.859   8.890  1.00  0.00     0.071 A 
BRANCH   9  11
HETATM   11  C   UNL     1      42.632  -7.770   9.935  1.00  0.00     0.028 A 
HETATM   12  C   UNL     1      42.373  -7.908  11.316  1.00  0.00     0.081 A 
HETATM   13  C   UNL     1      42.267  -6.757  12.113  1.00  0.00     0.038 A 
HETATM   14  C   UNL     1      42.432  -5.485  11.559  1.00  0.00     0.003 A 
HETATM   15  C   UNL     1      42.704  -5.344  10.204  1.00  0.00     0.001 A 
HETATM   16  C   UNL     1      42.804  -6.480   9.400  1.00  0.00     0.017 A 
BRANCH  12  17
HETATM   17  O   UNL     1      42.235  -9.181  11.812  1.00  0.00    -0.351 OA
BRANCH  17  18
HETATM   18  C   UNL     1      41.034  -9.499  12.512  1.00  0.00     0.171 C 
HETATM   19  C   UNL     1      39.943  -9.729  11.480  1.00  0.00     0.034 C 
ENDBRANCH  17  18
ENDBRANCH  12  17
ENDBRANCH   9  11
ENDBRANCH   1   5
BRANCH   2  20
HETATM   20  N   UNL     1      43.594 -14.155   6.585  1.00  0.00    -0.183 NA
HETATM   21  C   UNL     1      42.781 -15.159   6.653  1.00  0.00     0.152 C 
BRANCH  21  22
HETATM   22  C   UNL     1      43.150 -16.425   6.057  1.00  0.00     0.011 A 
HETATM   23  C   UNL     1      43.216 -16.744   4.662  1.00  0.00     0.004 A 
HETATM   24  C   UNL     1      43.626 -18.075   4.559  1.00  0.00     0.043 A 
HETATM   25  C   UNL     1      42.968 -16.025   3.473  1.00  0.00     0.014 A 
HETATM   26  C   UNL     1      43.800 -18.722   3.329  1.00  0.00     0.030 A 
HETATM   27  N   UNL     1      43.799 -18.548   5.838  1.00  0.00    -0.364 N 
HETATM   28  C   UNL     1      43.547 -17.987   2.167  1.00  0.00     0.002 A 
HETATM   29  C   UNL     1      43.137 -16.658   2.235  1.00  0.00     0.001 A 
HETATM   30  H   UNL     1      44.095 -19.486   6.070  1.00  0.00     0.165 HD
HETATM   31  C   UNL     1      43.516 -17.566   6.746  1.00  0.00     0.102 A 
ENDBRANCH  21  22
ENDBRANCH   2  20
TORSDOF 6
ENDMDL
MODEL 7
REMARK VINA RESULT:      -7.9      1.933     10.508
REMARK  6 active torsions:
REMARK  status: ('A' for Active; 'I' for Inactive)
REMARK    1  A    between atoms: C_2  and  O_3 
REMARK    2  A    between atoms: O_3  and  C_4 
REMARK    3  A    between atoms: C_5  and  C_6 
REMARK    4  A    between atoms: C_10  and  C_11 
REMARK       I    between atoms: C_11  and  N_12 
REMARK    5  A    between atoms: N_12  and  N_13 
REMARK    6  A    between atoms: C_14  and  C_15 
ROOT
HETATM    1  C   UNL     1      40.285 -14.672   1.015  1.00  0.00     0.289 C 
HETATM    2  N   UNL     1      41.222 -14.502   2.024  1.00  0.00    -0.242 N 
HETATM    3  O   UNL     1      39.755 -15.743   0.733  1.00  0.00    -0.264 OA
HETATM    4  H   UNL     1      41.631 -13.593   2.189  1.00  0.00     0.192 HD
ENDROOT
BRANCH   1   5
HETATM    5  C   UNL     1      39.961 -13.466   0.295  1.00  0.00     0.121 A 
HETATM    6  N   UNL     1      39.060 -12.565   0.785  1.00  0.00    -0.272 N 
HETATM    7  N   UNL     1      38.877 -11.488   0.008  1.00  0.00    -0.174 NA
HETATM    8  H   UNL     1      38.544 -12.637   1.657  1.00  0.00     0.189 HD
HETATM    9  C   UNL     1      39.675 -11.695  -1.055  1.00  0.00     0.092 A 
HETATM   10  C   UNL     1      40.383 -12.920  -0.900  1.00  0.00     0.071 A 
BRANCH   9  11
HETATM   11  C   UNL     1      39.768 -10.714  -2.148  1.00  0.00     0.028 A 
HETATM   12  C   UNL     1      38.741 -10.526  -3.100  1.00  0.00     0.081 A 
HETATM   13  C   UNL     1      38.921  -9.587  -4.127  1.00  0.00     0.038 A 
HETATM   14  C   UNL     1      40.092  -8.829  -4.208  1.00  0.00     0.003 A 
HETATM   15  C   UNL     1      41.098  -8.997  -3.265  1.00  0.00     0.001 A 
HETATM   16  C   UNL     1      40.935  -9.933  -2.243  1.00  0.00     0.017 A 
BRANCH  12  17
HETATM   17  O   UNL     1      37.605 -11.285  -2.965  1.00  0.00    -0.351 OA
BRANCH  17  18
HETATM   18  C   UNL     1      36.421 -10.639  -2.502  1.00  0.00     0.171 C 
HETATM   19  C   UNL     1      35.368 -10.767  -3.590  1.00  0.00     0.034 C 
ENDBRANCH  17  18
ENDBRANCH  12  17
ENDBRANCH   9  11
ENDBRANCH   1   5
BRANCH   2  20
HETATM   20  N   UNL     1      41.596 -15.560   2.807  1.00  0.00    -0.183 NA
HETATM   21  C   UNL     1      42.870 -15.691   2.997  1.00  0.00     0.152 C 
BRANCH  21  22
HETATM   22  C   UNL     1      43.365 -16.771   3.823  1.00  0.00     0.011 A 
HETATM   23  C   UNL     1      43.471 -18.156   3.472  1.00  0.00     0.004 A 
HETATM   24  C   UNL     1      44.008 -18.825   4.573  1.00  0.00     0.043 A 
HETATM   25  C   UNL     1      43.161 -18.908   2.318  1.00  0.00     0.014 A 
HETATM   26  C   UNL     1      44.253 -20.204   4.580  1.00  0.00     0.030 A 
HETATM   27  N   UNL     1      44.219 -17.886   5.557  1.00  0.00    -0.364 N 
HETATM   28  C   UNL     1      43.937 -20.923   3.424  1.00  0.00     0.002 A 
HETATM   29  C   UNL     1      43.399 -20.288   2.308  1.00  0.00     0.001 A 
HETATM   30  H   UNL     1      44.603 -18.085   6.470  1.00  0.00     0.165 HD
HETATM   31  C   UNL     1      43.836 -16.650   5.117  1.00  0.00     0.102 A 
ENDBRANCH  21  22
ENDBRANCH   2  20
TORSDOF 6
ENDMDL
MODEL 8
REMARK VINA RESULT:      -7.9      2.282     10.164
REMARK  6 active torsions:
REMARK  status: ('A' for Active; 'I' for Inactive)
REMARK    1  A    between atoms: C_2  and  O_3 
REMARK    2  A    between atoms: O_3  and  C_4 
REMARK    3  A    between atoms: C_5  and  C_6 
REMARK    4  A    between atoms: C_10  and  C_11 
REMARK       I    between atoms: C_11  and  N_12 
REMARK    5  A    between atoms: N_12  and  N_13 
REMARK    6  A    between atoms: C_14  and  C_15 
ROOT
HETATM    1  C   UNL     1      40.514 -14.372   1.147  1.00  0.00     0.289 C 
HETATM    2  N   UNL     1      41.505 -14.191   2.101  1.00  0.00    -0.242 N 
HETATM    3  O   UNL     1      39.877 -15.410   0.996  1.00  0.00    -0.264 OA
HETATM    4  H   UNL     1      42.002 -13.312   2.157  1.00  0.00     0.192 HD
ENDROOT
BRANCH   1   5
HETATM    5  C   UNL     1      40.273 -13.221   0.314  1.00  0.00     0.121 A 
HETATM    6  N   UNL     1      39.012 -12.733   0.124  1.00  0.00    -0.272 N 
HETATM    7  N   UNL     1      38.951 -11.649  -0.664  1.00  0.00    -0.174 NA
HETATM    8  H   UNL     1      38.153 -13.103   0.521  1.00  0.00     0.189 HD
HETATM    9  C   UNL     1      40.225 -11.423  -1.030  1.00  0.00     0.092 A 
HETATM   10  C   UNL     1      41.085 -12.381  -0.421  1.00  0.00     0.071 A 
BRANCH   9  11
HETATM   11  C   UNL     1      40.585 -10.293  -1.902  1.00  0.00     0.028 A 
HETATM   12  C   UNL     1      41.213  -9.123  -1.422  1.00  0.00     0.081 A 
HETATM   13  C   UNL     1      41.498  -8.080  -2.318  1.00  0.00     0.038 A 
HETATM   14  C   UNL     1      41.183  -8.194  -3.675  1.00  0.00     0.003 A 
HETATM   15  C   UNL     1      40.581  -9.350  -4.155  1.00  0.00     0.001 A 
HETATM   16  C   UNL     1      40.285 -10.390  -3.274  1.00  0.00     0.017 A 
BRANCH  12  17
HETATM   17  O   UNL     1      41.515  -9.068  -0.084  1.00  0.00    -0.351 OA
BRANCH  17  18
HETATM   18  C   UNL     1      40.747  -8.193   0.739  1.00  0.00     0.171 C 
HETATM   19  C   UNL     1      40.110  -9.030   1.835  1.00  0.00     0.034 C 
ENDBRANCH  17  18
ENDBRANCH  12  17
ENDBRANCH   9  11
ENDBRANCH   1   5
BRANCH   2  20
HETATM   20  N   UNL     1      41.813 -15.194   2.979  1.00  0.00    -0.183 NA
HETATM   21  C   UNL     1      42.990 -15.713   2.844  1.00  0.00     0.152 C 
BRANCH  21  22
HETATM   22  C   UNL     1      43.416 -16.772   3.734  1.00  0.00     0.011 A 
HETATM   23  C   UNL     1      43.504 -18.171   3.440  1.00  0.00     0.004 A 
HETATM   24  C   UNL     1      43.968 -18.809   4.593  1.00  0.00     0.043 A 
HETATM   25  C   UNL     1      43.235 -18.960   2.301  1.00  0.00     0.014 A 
HETATM   26  C   UNL     1      44.177 -20.192   4.664  1.00  0.00     0.030 A 
HETATM   27  N   UNL     1      44.151 -17.838   5.550  1.00  0.00    -0.364 N 
HETATM   28  C   UNL     1      43.903 -20.949   3.521  1.00  0.00     0.002 A 
HETATM   29  C   UNL     1      43.438 -20.344   2.355  1.00  0.00     0.001 A 
HETATM   30  H   UNL     1      44.483 -18.011   6.489  1.00  0.00     0.165 HD
HETATM   31  C   UNL     1      43.822 -16.611   5.045  1.00  0.00     0.102 A 
ENDBRANCH  21  22
ENDBRANCH   2  20
TORSDOF 6
ENDMDL
MODEL 9
REMARK VINA RESULT:      -7.8      6.982     10.716
REMARK  6 active torsions:
REMARK  status: ('A' for Active; 'I' for Inactive)
REMARK    1  A    between atoms: C_2  and  O_3 
REMARK    2  A    between atoms: O_3  and  C_4 
REMARK    3  A    between atoms: C_5  and  C_6 
REMARK    4  A    between atoms: C_10  and  C_11 
REMARK       I    between atoms: C_11  and  N_12 
REMARK    5  A    between atoms: N_12  and  N_13 
REMARK    6  A    between atoms: C_14  and  C_15 
ROOT
HETATM    1  C   UNL     1      43.774 -11.628   6.178  1.00  0.00     0.289 C 
HETATM    2  N   UNL     1      43.012 -12.788   6.181  1.00  0.00    -0.242 N 
HETATM    3  O   UNL     1      44.532 -11.297   5.271  1.00  0.00    -0.264 OA
HETATM    4  H   UNL     1      42.422 -13.006   6.971  1.00  0.00     0.192 HD
ENDROOT
BRANCH   1   5
HETATM    5  C   UNL     1      43.612 -10.808   7.352  1.00  0.00     0.121 A 
HETATM    6  N   UNL     1      44.207 -11.136   8.537  1.00  0.00    -0.272 N 
HETATM    7  N   UNL     1      43.976 -10.267   9.531  1.00  0.00    -0.174 NA
HETATM    8  H   UNL     1      44.793 -11.947   8.717  1.00  0.00     0.189 HD
HETATM    9  C   UNL     1      43.174  -9.334   8.988  1.00  0.00     0.092 A 
HETATM   10  C   UNL     1      42.938  -9.632   7.616  1.00  0.00     0.071 A 
BRANCH   9  11
HETATM   11  C   UNL     1      42.698  -8.181   9.770  1.00  0.00     0.028 A 
HETATM   12  C   UNL     1      41.727  -8.293  10.789  1.00  0.00     0.081 A 
HETATM   13  C   UNL     1      41.309  -7.139  11.469  1.00  0.00     0.038 A 
HETATM   14  C   UNL     1      41.853  -5.889  11.161  1.00  0.00     0.003 A 
HETATM   15  C   UNL     1      42.821  -5.775  10.172  1.00  0.00     0.001 A 
HETATM   16  C   UNL     1      43.239  -6.914   9.483  1.00  0.00     0.017 A 
BRANCH  12  17
HETATM   17  O   UNL     1      41.237  -9.546  11.063  1.00  0.00    -0.351 OA
BRANCH  17  18
HETATM   18  C   UNL     1      39.823  -9.700  11.177  1.00  0.00     0.171 C 
HETATM   19  C   UNL     1      39.244  -9.706   9.773  1.00  0.00     0.034 C 
ENDBRANCH  17  18
ENDBRANCH  12  17
ENDBRANCH   9  11
ENDBRANCH   1   5
BRANCH   2  20
HETATM   20  N   UNL     1      43.047 -13.641   5.112  1.00  0.00    -0.183 NA
HETATM   21  C   UNL     1      42.186 -14.607   5.141  1.00  0.00     0.152 C 
BRANCH  21  22
HETATM   22  C   UNL     1      42.134 -15.556   4.049  1.00  0.00     0.011 A 
HETATM   23  C   UNL     1      42.865 -16.781   3.926  1.00  0.00     0.004 A 
HETATM   24  C   UNL     1      42.492 -17.369   2.716  1.00  0.00     0.043 A 
HETATM   25  C   UNL     1      43.812 -17.451   4.731  1.00  0.00     0.014 A 
HETATM   26  C   UNL     1      43.014 -18.591   2.272  1.00  0.00     0.030 A 
HETATM   27  N   UNL     1      41.572 -16.535   2.125  1.00  0.00    -0.364 N 
HETATM   28  C   UNL     1      43.949 -19.232   3.089  1.00  0.00     0.002 A 
HETATM   29  C   UNL     1      44.345 -18.672   4.301  1.00  0.00     0.001 A 
HETATM   30  H   UNL     1      41.126 -16.708   1.235  1.00  0.00     0.165 HD
HETATM   31  C   UNL     1      41.350 -15.442   2.916  1.00  0.00     0.102 A 
ENDBRANCH  21  22
ENDBRANCH   2  20
TORSDOF 6
ENDMDL
MODEL 10
REMARK VINA RESULT:      -7.6      1.850     10.544
REMARK  6 active torsions:
REMARK  status: ('A' for Active; 'I' for Inactive)
REMARK    1  A    between atoms: C_2  and  O_3 
REMARK    2  A    between atoms: O_3  and  C_4 
REMARK    3  A    between atoms: C_5  and  C_6 
REMARK    4  A    between atoms: C_10  and  C_11 
REMARK       I    between atoms: C_11  and  N_12 
REMARK    5  A    between atoms: N_12  and  N_13 
REMARK    6  A    between atoms: C_14  and  C_15 
ROOT
HETATM    1  C   UNL     1      40.675 -13.659   0.940  1.00  0.00     0.289 C 
HETATM    2  N   UNL     1      41.970 -14.154   0.869  1.00  0.00    -0.242 N 
HETATM    3  O   UNL     1      39.945 -13.764   1.921  1.00  0.00    -0.264 OA
HETATM    4  H   UNL     1      42.508 -14.046   0.020  1.00  0.00     0.192 HD
ENDROOT
BRANCH   1   5
HETATM    5  C   UNL     1      40.227 -12.990  -0.255  1.00  0.00     0.121 A 
HETATM    6  N   UNL     1      40.687 -13.354  -1.488  1.00  0.00    -0.272 N 
HETATM    7  N   UNL     1      40.164 -12.649  -2.503  1.00  0.00    -0.174 NA
HETATM    8  H   UNL     1      41.357 -14.089  -1.693  1.00  0.00     0.189 HD
HETATM    9  C   UNL     1      39.341 -11.764  -1.914  1.00  0.00     0.092 A 
HETATM   10  C   UNL     1      39.342 -11.961  -0.504  1.00  0.00     0.071 A 
BRANCH   9  11
HETATM   11  C   UNL     1      38.557 -10.801  -2.704  1.00  0.00     0.028 A 
HETATM   12  C   UNL     1      39.115  -9.626  -3.254  1.00  0.00     0.081 A 
HETATM   13  C   UNL     1      38.290  -8.746  -3.973  1.00  0.00     0.038 A 
HETATM   14  C   UNL     1      36.935  -9.028  -4.164  1.00  0.00     0.003 A 
HETATM   15  C   UNL     1      36.385 -10.191  -3.640  1.00  0.00     0.001 A 
HETATM   16  C   UNL     1      37.192 -11.069  -2.917  1.00  0.00     0.017 A 
BRANCH  12  17
HETATM   17  O   UNL     1      40.454  -9.404  -3.051  1.00  0.00    -0.351 OA
BRANCH  17  18
HETATM   18  C   UNL     1      40.831  -8.365  -2.150  1.00  0.00     0.171 C 
HETATM   19  C   UNL     1      42.307  -8.078  -2.366  1.00  0.00     0.034 C 
ENDBRANCH  17  18
ENDBRANCH  12  17
ENDBRANCH   9  11
ENDBRANCH   1   5
BRANCH   2  20
HETATM   20  N   UNL     1      42.531 -14.784   1.945  1.00  0.00    -0.183 NA
HETATM   21  C   UNL     1      42.507 -16.077   1.911  1.00  0.00     0.152 C 
BRANCH  21  22
HETATM   22  C   UNL     1      43.089 -16.835   2.998  1.00  0.00     0.011 A 
HETATM   23  C   UNL     1      43.347 -18.244   3.035  1.00  0.00     0.004 A 
HETATM   24  C   UNL     1      43.920 -18.529   4.276  1.00  0.00     0.043 A 
HETATM   25  C   UNL     1      43.149 -19.308   2.129  1.00  0.00     0.014 A 
HETATM   26  C   UNL     1      44.306 -19.821   4.656  1.00  0.00     0.030 A 
HETATM   27  N   UNL     1      44.005 -17.343   4.968  1.00  0.00    -0.364 N 
HETATM   28  C   UNL     1      44.098 -20.855   3.739  1.00  0.00     0.002 A 
HETATM   29  C   UNL     1      43.528 -20.606   2.493  1.00  0.00     0.001 A 
HETATM   30  H   UNL     1      44.382 -17.246   5.900  1.00  0.00     0.165 HD
HETATM   31  C   UNL     1      43.508 -16.319   4.210  1.00  0.00     0.102 A 
ENDBRANCH  21  22
ENDBRANCH   2  20
TORSDOF 6
ENDMDL
