MODEL 1
REMARK VINA RESULT:      -8.7      0.000      0.000
REMARK  4 active torsions:
REMARK  status: ('A' for Active; 'I' for Inactive)
REMARK    1  A    between atoms: N_4  and  C_5 
REMARK    2  A    between atoms: C_16  and  C_17 
REMARK    3  A    between atoms: C_24  and  C_25 
REMARK    4  A    between atoms: C_25  and  O_26 
ROOT
HETATM    1  C   UNL     1      43.929 -14.406   6.704  1.00  0.00     0.073 C 
HETATM    2  C   UNL     1      43.448 -15.342   5.656  1.00  0.00     0.065 A 
HETATM    3  N   UNL     1      43.996 -16.552   5.534  1.00  0.00    -0.170 NA
HETATM    4  N   UNL     1      43.318 -17.155   4.507  1.00  0.00    -0.215 N 
HETATM    5  C   UNL     1      42.370 -16.291   3.957  1.00  0.00     0.165 A 
HETATM    6  C   UNL     1      42.424 -15.126   4.710  1.00  0.00     0.039 A 
HETATM    7  N   UNL     1      41.528 -16.510   2.921  1.00  0.00    -0.216 NA
HETATM    8  C   UNL     1      40.678 -15.489   2.664  1.00  0.00     0.137 A 
HETATM    9 CL   UNL     1      39.636 -15.875   1.344  1.00  0.00    -0.062 Cl
HETATM   10  C   UNL     1      40.603 -14.280   3.355  1.00  0.00     0.011 A 
HETATM   11  C   UNL     1      41.524 -14.094   4.404  1.00  0.00     0.030 A 
ENDROOT
BRANCH  10  12
HETATM   12  C   UNL     1      39.561 -13.214   3.060  1.00  0.00     0.164 C 
HETATM   13  N   UNL     1      39.097 -12.645   4.318  1.00  0.00    -0.330 N 
HETATM   14  C   UNL     1      39.460 -11.429   4.795  1.00  0.00     0.321 C 
HETATM   15  H   UNL     1      38.648 -13.246   4.997  1.00  0.00     0.165 HD
HETATM   16  O   UNL     1      39.214 -11.091   5.947  1.00  0.00    -0.247 OA
HETATM   17  N   UNL     1      40.086 -10.600   3.914  1.00  0.00    -0.312 N 
HETATM   18  C   UNL     1      40.336 -10.886   2.591  1.00  0.00     0.024 C 
HETATM   19  H   UNL     1      40.291  -9.678   4.284  1.00  0.00     0.170 HD
HETATM   20  C   UNL     1      40.874  -9.753   1.763  1.00  0.00     0.069 C 
HETATM   21  C   UNL     1      40.064 -12.128   2.143  1.00  0.00     0.067 C 
BRANCH  21  22
HETATM   22  C   UNL     1      40.288 -12.485   0.722  1.00  0.00     0.293 C 
HETATM   23  O   UNL     1      41.364 -12.816   0.251  1.00  0.00    -0.259 OA
BRANCH  22  24
HETATM   24  O   UNL     1      39.126 -12.358   0.037  1.00  0.00    -0.323 OA
HETATM   25  C   UNL     1      39.047 -13.170  -1.138  1.00  0.00     0.213 C 
ENDBRANCH  22  24
ENDBRANCH  21  22
ENDBRANCH  10  12
BRANCH   4  26
HETATM   26  C   UNL     1      43.621 -18.510   4.168  1.00  0.00     0.060 A 
HETATM   27  C   UNL     1      43.964 -19.411   5.192  1.00  0.00     0.031 A 
HETATM   28  C   UNL     1      44.240 -20.749   4.901  1.00  0.00     0.002 A 
HETATM   29  C   UNL     1      44.183 -21.201   3.587  1.00  0.00     0.000 A 
HETATM   30  C   UNL     1      43.851 -20.317   2.563  1.00  0.00     0.002 A 
HETATM   31  C   UNL     1      43.569 -18.976   2.848  1.00  0.00     0.031 A 
ENDBRANCH   4  26
TORSDOF 4
ENDMDL
MODEL 2
REMARK VINA RESULT:      -8.0      1.607      1.840
REMARK  4 active torsions:
REMARK  status: ('A' for Active; 'I' for Inactive)
REMARK    1  A    between atoms: N_4  and  C_5 
REMARK    2  A    between atoms: C_16  and  C_17 
REMARK    3  A    between atoms: C_24  and  C_25 
REMARK    4  A    between atoms: C_25  and  O_26 
ROOT
HETATM    1  C   UNL     1      42.904 -13.239   5.636  1.00  0.00     0.073 C 
HETATM    2  C   UNL     1      42.630 -14.251   4.585  1.00  0.00     0.065 A 
HETATM    3  N   UNL     1      43.214 -15.449   4.637  1.00  0.00    -0.170 NA
HETATM    4  N   UNL     1      42.735 -16.134   3.552  1.00  0.00    -0.215 N 
HETATM    5  C   UNL     1      41.878 -15.334   2.793  1.00  0.00     0.165 A 
HETATM    6  C   UNL     1      41.779 -14.124   3.467  1.00  0.00     0.039 A 
HETATM    7  N   UNL     1      41.232 -15.642   1.645  1.00  0.00    -0.216 NA
HETATM    8  C   UNL     1      40.418 -14.665   1.181  1.00  0.00     0.137 A 
HETATM    9 CL   UNL     1      39.626 -15.162  -0.269  1.00  0.00    -0.062 Cl
HETATM   10  C   UNL     1      40.201 -13.419   1.769  1.00  0.00     0.011 A 
HETATM   11  C   UNL     1      40.925 -13.141   2.945  1.00  0.00     0.030 A 
ENDROOT
BRANCH  10  12
HETATM   12  C   UNL     1      39.205 -12.405   1.232  1.00  0.00     0.164 C 
HETATM   13  N   UNL     1      38.529 -11.767   2.353  1.00  0.00    -0.330 N 
HETATM   14  C   UNL     1      38.787 -10.512   2.796  1.00  0.00     0.321 C 
HETATM   15  H   UNL     1      37.984 -12.333   2.989  1.00  0.00     0.165 HD
HETATM   16  O   UNL     1      38.347 -10.105   3.865  1.00  0.00    -0.247 OA
HETATM   17  N   UNL     1      39.536  -9.726   1.974  1.00  0.00    -0.312 N 
HETATM   18  C   UNL     1      40.007 -10.093   0.733  1.00  0.00     0.024 C 
HETATM   19  H   UNL     1      39.661  -8.776   2.307  1.00  0.00     0.170 HD
HETATM   20  C   UNL     1      40.656  -9.003  -0.073  1.00  0.00     0.069 C 
HETATM   21  C   UNL     1      39.835 -11.369   0.336  1.00  0.00     0.067 C 
BRANCH  21  22
HETATM   22  C   UNL     1      40.298 -11.813  -1.000  1.00  0.00     0.293 C 
HETATM   23  O   UNL     1      41.463 -12.022  -1.297  1.00  0.00    -0.259 OA
BRANCH  22  24
HETATM   24  O   UNL     1      39.235 -11.922  -1.833  1.00  0.00    -0.323 OA
HETATM   25  C   UNL     1      39.276 -11.039  -2.956  1.00  0.00     0.213 C 
ENDBRANCH  22  24
ENDBRANCH  21  22
ENDBRANCH  10  12
BRANCH   4  26
HETATM   26  C   UNL     1      43.119 -17.497   3.358  1.00  0.00     0.060 A 
HETATM   27  C   UNL     1      43.829 -18.158   4.376  1.00  0.00     0.031 A 
HETATM   28  C   UNL     1      44.198 -19.498   4.233  1.00  0.00     0.002 A 
HETATM   29  C   UNL     1      43.866 -20.191   3.073  1.00  0.00     0.000 A 
HETATM   30  C   UNL     1      43.168 -19.544   2.055  1.00  0.00     0.002 A 
HETATM   31  C   UNL     1      42.793 -18.203   2.193  1.00  0.00     0.031 A 
ENDBRANCH   4  26
TORSDOF 4
ENDMDL
MODEL 3
REMARK VINA RESULT:      -7.8      2.856      4.167
REMARK  4 active torsions:
REMARK  status: ('A' for Active; 'I' for Inactive)
REMARK    1  A    between atoms: N_4  and  C_5 
REMARK    2  A    between atoms: C_16  and  C_17 
REMARK    3  A    between atoms: C_24  and  C_25 
REMARK    4  A    between atoms: C_25  and  O_26 
ROOT
HETATM    1  C   UNL     1      42.450 -14.615   1.149  1.00  0.00     0.073 C 
HETATM    2  C   UNL     1      42.682 -15.514   2.306  1.00  0.00     0.065 A 
HETATM    3  N   UNL     1      42.973 -16.800   2.110  1.00  0.00    -0.170 NA
HETATM    4  N   UNL     1      43.146 -17.329   3.362  1.00  0.00    -0.215 N 
HETATM    5  C   UNL     1      42.913 -16.368   4.348  1.00  0.00     0.165 A 
HETATM    6  C   UNL     1      42.641 -15.184   3.678  1.00  0.00     0.039 A 
HETATM    7  N   UNL     1      42.960 -16.510   5.692  1.00  0.00    -0.216 NA
HETATM    8  C   UNL     1      42.744 -15.367   6.384  1.00  0.00     0.137 A 
HETATM    9 CL   UNL     1      42.847 -15.648   8.083  1.00  0.00    -0.062 Cl
HETATM   10  C   UNL     1      42.490 -14.107   5.843  1.00  0.00     0.011 A 
HETATM   11  C   UNL     1      42.421 -14.025   4.438  1.00  0.00     0.030 A 
ENDROOT
BRANCH  10  12
HETATM   12  C   UNL     1      42.342 -12.852   6.685  1.00  0.00     0.164 C 
HETATM   13  N   UNL     1      43.660 -12.427   7.137  1.00  0.00    -0.330 N 
HETATM   14  C   UNL     1      44.352 -11.381   6.624  1.00  0.00     0.321 C 
HETATM   15  H   UNL     1      44.208 -13.049   7.718  1.00  0.00     0.165 HD
HETATM   16  O   UNL     1      45.534 -11.200   6.890  1.00  0.00    -0.247 OA
HETATM   17  N   UNL     1      43.652 -10.533   5.820  1.00  0.00    -0.312 N 
HETATM   18  C   UNL     1      42.310 -10.637   5.532  1.00  0.00     0.024 C 
HETATM   19  H   UNL     1      44.182  -9.730   5.500  1.00  0.00     0.170 HD
HETATM   20  C   UNL     1      41.710  -9.487   4.771  1.00  0.00     0.069 C 
HETATM   21  C   UNL     1      41.645 -11.728   5.961  1.00  0.00     0.067 C 
BRANCH  21  22
HETATM   22  C   UNL     1      40.194 -11.880   5.702  1.00  0.00     0.293 C 
HETATM   23  O   UNL     1      39.694 -11.977   4.593  1.00  0.00    -0.259 OA
BRANCH  22  24
HETATM   24  O   UNL     1      39.521 -11.867   6.878  1.00  0.00    -0.323 OA
HETATM   25  C   UNL     1      39.115 -10.565   7.306  1.00  0.00     0.213 C 
ENDBRANCH  22  24
ENDBRANCH  21  22
ENDBRANCH  10  12
BRANCH   4  26
HETATM   26  C   UNL     1      43.544 -18.695   3.497  1.00  0.00     0.060 A 
HETATM   27  C   UNL     1      43.957 -19.165   4.757  1.00  0.00     0.031 A 
HETATM   28  C   UNL     1      44.327 -20.501   4.932  1.00  0.00     0.002 A 
HETATM   29  C   UNL     1      44.294 -21.380   3.854  1.00  0.00     0.000 A 
HETATM   30  C   UNL     1      43.892 -20.924   2.600  1.00  0.00     0.002 A 
HETATM   31  C   UNL     1      43.517 -19.588   2.418  1.00  0.00     0.031 A 
ENDBRANCH   4  26
TORSDOF 4
ENDMDL
MODEL 4
REMARK VINA RESULT:      -7.8      2.296      4.415
REMARK  4 active torsions:
REMARK  status: ('A' for Active; 'I' for Inactive)
REMARK    1  A    between atoms: N_4  and  C_5 
REMARK    2  A    between atoms: C_16  and  C_17 
REMARK    3  A    between atoms: C_24  and  C_25 
REMARK    4  A    between atoms: C_25  and  O_26 
ROOT
HETATM    1  C   UNL     1      39.979 -14.939   0.553  1.00  0.00     0.073 C 
HETATM    2  C   UNL     1      40.858 -15.223   1.715  1.00  0.00     0.065 A 
HETATM    3  N   UNL     1      41.339 -16.451   1.909  1.00  0.00    -0.170 NA
HETATM    4  N   UNL     1      42.116 -16.363   3.034  1.00  0.00    -0.215 N 
HETATM    5  C   UNL     1      42.078 -15.074   3.569  1.00  0.00     0.165 A 
HETATM    6  C   UNL     1      41.292 -14.321   2.709  1.00  0.00     0.039 A 
HETATM    7  N   UNL     1      42.690 -14.603   4.681  1.00  0.00    -0.216 NA
HETATM    8  C   UNL     1      42.507 -13.281   4.903  1.00  0.00     0.137 A 
HETATM    9 CL   UNL     1      43.342 -12.776   6.325  1.00  0.00    -0.062 Cl
HETATM   10  C   UNL     1      41.770 -12.402   4.109  1.00  0.00     0.011 A 
HETATM   11  C   UNL     1      41.128 -12.954   2.983  1.00  0.00     0.030 A 
ENDROOT
BRANCH  10  12
HETATM   12  C   UNL     1      41.681 -10.910   4.379  1.00  0.00     0.164 C 
HETATM   13  N   UNL     1      41.915 -10.189   3.135  1.00  0.00    -0.330 N 
HETATM   14  C   UNL     1      40.949  -9.592   2.396  1.00  0.00     0.321 C 
HETATM   15  H   UNL     1      42.801 -10.300   2.659  1.00  0.00     0.165 HD
HETATM   16  O   UNL     1      41.166  -9.188   1.260  1.00  0.00    -0.247 OA
HETATM   17  N   UNL     1      39.736  -9.444   2.998  1.00  0.00    -0.312 N 
HETATM   18  C   UNL     1      39.439  -9.812   4.291  1.00  0.00     0.024 C 
HETATM   19  H   UNL     1      39.053  -8.942   2.441  1.00  0.00     0.170 HD
HETATM   20  C   UNL     1      38.091  -9.388   4.802  1.00  0.00     0.069 C 
HETATM   21  C   UNL     1      40.368 -10.493   4.992  1.00  0.00     0.067 C 
BRANCH  21  22
HETATM   22  C   UNL     1      40.113 -10.892   6.396  1.00  0.00     0.293 C 
HETATM   23  O   UNL     1      39.451 -11.861   6.733  1.00  0.00    -0.259 OA
BRANCH  22  24
HETATM   24  O   UNL     1      40.702 -10.004   7.232  1.00  0.00    -0.323 OA
HETATM   25  C   UNL     1      39.818  -9.431   8.198  1.00  0.00     0.213 C 
ENDBRANCH  22  24
ENDBRANCH  21  22
ENDBRANCH  10  12
BRANCH   4  26
HETATM   26  C   UNL     1      42.843 -17.512   3.475  1.00  0.00     0.060 A 
HETATM   27  C   UNL     1      43.214 -18.489   2.534  1.00  0.00     0.031 A 
HETATM   28  C   UNL     1      43.949 -19.611   2.923  1.00  0.00     0.002 A 
HETATM   29  C   UNL     1      44.316 -19.774   4.256  1.00  0.00     0.000 A 
HETATM   30  C   UNL     1      43.949 -18.816   5.198  1.00  0.00     0.002 A 
HETATM   31  C   UNL     1      43.216 -17.688   4.814  1.00  0.00     0.031 A 
ENDBRANCH   4  26
TORSDOF 4
ENDMDL
MODEL 5
REMARK VINA RESULT:      -7.5     15.158     17.961
REMARK  4 active torsions:
REMARK  status: ('A' for Active; 'I' for Inactive)
REMARK    1  A    between atoms: N_4  and  C_5 
REMARK    2  A    between atoms: C_16  and  C_17 
REMARK    3  A    between atoms: C_24  and  C_25 
REMARK    4  A    between atoms: C_25  and  O_26 
ROOT
HETATM    1  C   UNL     1      43.438 -34.307  -1.922  1.00  0.00     0.073 C 
HETATM    2  C   UNL     1      43.884 -33.256  -2.870  1.00  0.00     0.065 A 
HETATM    3  N   UNL     1      44.023 -33.535  -4.167  1.00  0.00    -0.170 NA
HETATM    4  N   UNL     1      44.417 -32.360  -4.751  1.00  0.00    -0.215 N 
HETATM    5  C   UNL     1      44.568 -31.352  -3.797  1.00  0.00     0.165 A 
HETATM    6  C   UNL     1      44.198 -31.911  -2.581  1.00  0.00     0.039 A 
HETATM    7  N   UNL     1      44.964 -30.071  -3.977  1.00  0.00    -0.216 NA
HETATM    8  C   UNL     1      44.951 -29.317  -2.854  1.00  0.00     0.137 A 
HETATM    9 CL   UNL     1      45.449 -27.701  -3.192  1.00  0.00    -0.062 Cl
HETATM   10  C   UNL     1      44.575 -29.738  -1.578  1.00  0.00     0.011 A 
HETATM   11  C   UNL     1      44.203 -31.090  -1.443  1.00  0.00     0.030 A 
ENDROOT
BRANCH  10  12
HETATM   12  C   UNL     1      44.506 -28.808  -0.379  1.00  0.00     0.164 C 
HETATM   13  N   UNL     1      43.154 -28.836   0.164  1.00  0.00    -0.330 N 
HETATM   14  C   UNL     1      42.791 -29.486   1.296  1.00  0.00     0.321 C 
HETATM   15  H   UNL     1      42.381 -28.543  -0.419  1.00  0.00     0.165 HD
HETATM   16  O   UNL     1      41.614 -29.656   1.590  1.00  0.00    -0.247 OA
HETATM   17  N   UNL     1      43.808 -29.912   2.097  1.00  0.00    -0.312 N 
HETATM   18  C   UNL     1      45.148 -29.699   1.864  1.00  0.00     0.024 C 
HETATM   19  H   UNL     1      43.502 -30.342   2.963  1.00  0.00     0.170 HD
HETATM   20  C   UNL     1      46.080 -30.100   2.972  1.00  0.00     0.069 C 
HETATM   21  C   UNL     1      45.512 -29.141   0.692  1.00  0.00     0.067 C 
BRANCH  21  22
HETATM   22  C   UNL     1      46.938 -28.864   0.399  1.00  0.00     0.293 C 
HETATM   23  O   UNL     1      47.506 -27.812   0.642  1.00  0.00    -0.259 OA
BRANCH  22  24
HETATM   24  O   UNL     1      47.494 -29.946  -0.198  1.00  0.00    -0.323 OA
HETATM   25  C   UNL     1      48.364 -29.632  -1.288  1.00  0.00     0.213 C 
ENDBRANCH  22  24
ENDBRANCH  21  22
ENDBRANCH  10  12
BRANCH   4  26
HETATM   26  C   UNL     1      44.585 -32.304  -6.169  1.00  0.00     0.060 A 
HETATM   27  C   UNL     1      45.484 -33.194  -6.786  1.00  0.00     0.031 A 
HETATM   28  C   UNL     1      45.654 -33.187  -8.173  1.00  0.00     0.002 A 
HETATM   29  C   UNL     1      44.935 -32.291  -8.957  1.00  0.00     0.000 A 
HETATM   30  C   UNL     1      44.047 -31.401  -8.357  1.00  0.00     0.002 A 
HETATM   31  C   UNL     1      43.869 -31.405  -6.969  1.00  0.00     0.031 A 
ENDBRANCH   4  26
TORSDOF 4
ENDMDL
MODEL 6
REMARK VINA RESULT:      -7.4      2.408      4.234
REMARK  4 active torsions:
REMARK  status: ('A' for Active; 'I' for Inactive)
REMARK    1  A    between atoms: N_4  and  C_5 
REMARK    2  A    between atoms: C_16  and  C_17 
REMARK    3  A    between atoms: C_24  and  C_25 
REMARK    4  A    between atoms: C_25  and  O_26 
ROOT
HETATM    1  C   UNL     1      39.824 -15.272   0.365  1.00  0.00     0.073 C 
HETATM    2  C   UNL     1      40.748 -15.260   1.526  1.00  0.00     0.065 A 
HETATM    3  N   UNL     1      41.242 -16.403   2.003  1.00  0.00    -0.170 NA
HETATM    4  N   UNL     1      42.062 -16.041   3.039  1.00  0.00    -0.215 N 
HETATM    5  C   UNL     1      42.038 -14.659   3.236  1.00  0.00     0.165 A 
HETATM    6  C   UNL     1      41.216 -14.140   2.246  1.00  0.00     0.039 A 
HETATM    7  N   UNL     1      42.690 -13.928   4.169  1.00  0.00    -0.216 NA
HETATM    8  C   UNL     1      42.510 -12.591   4.061  1.00  0.00     0.137 A 
HETATM    9 CL   UNL     1      43.397 -11.750   5.278  1.00  0.00    -0.062 Cl
HETATM   10  C   UNL     1      41.739 -11.935   3.101  1.00  0.00     0.011 A 
HETATM   11  C   UNL     1      41.057 -12.748   2.175  1.00  0.00     0.030 A 
ENDROOT
BRANCH  10  12
HETATM   12  C   UNL     1      41.653 -10.422   2.992  1.00  0.00     0.164 C 
HETATM   13  N   UNL     1      41.992 -10.026   1.632  1.00  0.00    -0.330 N 
HETATM   14  C   UNL     1      41.095  -9.630   0.697  1.00  0.00     0.321 C 
HETATM   15  H   UNL     1      42.910 -10.246   1.267  1.00  0.00     0.165 HD
HETATM   16  O   UNL     1      41.404  -9.514  -0.483  1.00  0.00    -0.247 OA
HETATM   17  N   UNL     1      39.842  -9.343   1.150  1.00  0.00    -0.312 N 
HETATM   18  C   UNL     1      39.442  -9.386   2.466  1.00  0.00     0.024 C 
HETATM   19  H   UNL     1      39.212  -8.994   0.436  1.00  0.00     0.170 HD
HETATM   20  C   UNL     1      38.066  -8.854   2.753  1.00  0.00     0.069 C 
HETATM   21  C   UNL     1      40.304  -9.873   3.381  1.00  0.00     0.067 C 
BRANCH  21  22
HETATM   22  C   UNL     1      39.937  -9.918   4.816  1.00  0.00     0.293 C 
HETATM   23  O   UNL     1      40.247  -9.073   5.639  1.00  0.00    -0.259 OA
BRANCH  22  24
HETATM   24  O   UNL     1      39.232 -11.048   5.066  1.00  0.00    -0.323 OA
HETATM   25  C   UNL     1      39.576 -11.694   6.294  1.00  0.00     0.213 C 
ENDBRANCH  22  24
ENDBRANCH  21  22
ENDBRANCH  10  12
BRANCH   4  26
HETATM   26  C   UNL     1      42.810 -17.046   3.725  1.00  0.00     0.060 A 
HETATM   27  C   UNL     1      42.765 -17.092   5.131  1.00  0.00     0.031 A 
HETATM   28  C   UNL     1      43.462 -18.078   5.834  1.00  0.00     0.002 A 
HETATM   29  C   UNL     1      44.215 -19.023   5.145  1.00  0.00     0.000 A 
HETATM   30  C   UNL     1      44.273 -18.984   3.754  1.00  0.00     0.002 A 
HETATM   31  C   UNL     1      43.574 -18.001   3.043  1.00  0.00     0.031 A 
ENDBRANCH   4  26
TORSDOF 4
ENDMDL
MODEL 7
REMARK VINA RESULT:      -7.3      2.582      3.450
REMARK  4 active torsions:
REMARK  status: ('A' for Active; 'I' for Inactive)
REMARK    1  A    between atoms: N_4  and  C_5 
REMARK    2  A    between atoms: C_16  and  C_17 
REMARK    3  A    between atoms: C_24  and  C_25 
REMARK    4  A    between atoms: C_25  and  O_26 
ROOT
HETATM    1  C   UNL     1      42.495 -11.506   4.650  1.00  0.00     0.073 C 
HETATM    2  C   UNL     1      42.390 -12.705   3.782  1.00  0.00     0.065 A 
HETATM    3  N   UNL     1      42.964 -13.852   4.148  1.00  0.00    -0.170 NA
HETATM    4  N   UNL     1      42.661 -14.744   3.154  1.00  0.00    -0.215 N 
HETATM    5  C   UNL     1      41.929 -14.129   2.136  1.00  0.00     0.165 A 
HETATM    6  C   UNL     1      41.722 -12.819   2.545  1.00  0.00     0.039 A 
HETATM    7  N   UNL     1      41.469 -14.668   0.983  1.00  0.00    -0.216 NA
HETATM    8  C   UNL     1      40.733 -13.823   0.225  1.00  0.00     0.137 A 
HETATM    9 CL   UNL     1      40.177 -14.609  -1.207  1.00  0.00    -0.062 Cl
HETATM   10  C   UNL     1      40.423 -12.497   0.525  1.00  0.00     0.011 A 
HETATM   11  C   UNL     1      40.955 -11.979   1.723  1.00  0.00     0.030 A 
ENDROOT
BRANCH  10  12
HETATM   12  C   UNL     1      39.517 -11.635  -0.338  1.00  0.00     0.164 C 
HETATM   13  N   UNL     1      38.134 -11.857   0.058  1.00  0.00    -0.330 N 
HETATM   14  C   UNL     1      37.394 -10.992   0.795  1.00  0.00     0.321 C 
HETATM   15  H   UNL     1      37.739 -12.785  -0.022  1.00  0.00     0.165 HD
HETATM   16  O   UNL     1      36.317 -11.317   1.279  1.00  0.00    -0.247 OA
HETATM   17  N   UNL     1      37.905  -9.737   0.941  1.00  0.00    -0.312 N 
HETATM   18  C   UNL     1      39.074  -9.283   0.373  1.00  0.00     0.024 C 
HETATM   19  H   UNL     1      37.302  -9.098   1.447  1.00  0.00     0.170 HD
HETATM   20  C   UNL     1      39.348  -7.812   0.520  1.00  0.00     0.069 C 
HETATM   21  C   UNL     1      39.856 -10.168  -0.277  1.00  0.00     0.067 C 
BRANCH  21  22
HETATM   22  C   UNL     1      41.112  -9.729  -0.930  1.00  0.00     0.293 C 
HETATM   23  O   UNL     1      42.165  -9.530  -0.347  1.00  0.00    -0.259 OA
BRANCH  22  24
HETATM   24  O   UNL     1      40.896  -9.561  -2.257  1.00  0.00    -0.323 OA
HETATM   25  C   UNL     1      41.304  -8.287  -2.761  1.00  0.00     0.213 C 
ENDBRANCH  22  24
ENDBRANCH  21  22
ENDBRANCH  10  12
BRANCH   4  26
HETATM   26  C   UNL     1      43.076 -16.105   3.283  1.00  0.00     0.060 A 
HETATM   27  C   UNL     1      43.578 -16.552   4.518  1.00  0.00     0.031 A 
HETATM   28  C   UNL     1      43.968 -17.883   4.690  1.00  0.00     0.002 A 
HETATM   29  C   UNL     1      43.867 -18.779   3.630  1.00  0.00     0.000 A 
HETATM   30  C   UNL     1      43.376 -18.346   2.400  1.00  0.00     0.002 A 
HETATM   31  C   UNL     1      42.981 -17.016   2.223  1.00  0.00     0.031 A 
ENDBRANCH   4  26
TORSDOF 4
ENDMDL
MODEL 8
REMARK VINA RESULT:      -7.0     22.307     23.563
REMARK  4 active torsions:
REMARK  status: ('A' for Active; 'I' for Inactive)
REMARK    1  A    between atoms: N_4  and  C_5 
REMARK    2  A    between atoms: C_16  and  C_17 
REMARK    3  A    between atoms: C_24  and  C_25 
REMARK    4  A    between atoms: C_25  and  O_26 
ROOT
HETATM    1  C   UNL     1      30.773 -29.979  16.868  1.00  0.00     0.073 C 
HETATM    2  C   UNL     1      32.152 -30.530  16.863  1.00  0.00     0.065 A 
HETATM    3  N   UNL     1      33.102 -29.966  17.609  1.00  0.00    -0.170 NA
HETATM    4  N   UNL     1      34.226 -30.720  17.395  1.00  0.00    -0.215 N 
HETATM    5  C   UNL     1      33.980 -31.735  16.469  1.00  0.00     0.165 A 
HETATM    6  C   UNL     1      32.634 -31.641  16.140  1.00  0.00     0.039 A 
HETATM    7  N   UNL     1      34.837 -32.662  15.984  1.00  0.00    -0.216 NA
HETATM    8  C   UNL     1      34.276 -33.557  15.138  1.00  0.00     0.137 A 
HETATM    9 CL   UNL     1      35.443 -34.705  14.595  1.00  0.00    -0.062 Cl
HETATM   10  C   UNL     1      32.938 -33.599  14.746  1.00  0.00     0.011 A 
HETATM   11  C   UNL     1      32.098 -32.590  15.257  1.00  0.00     0.030 A 
ENDROOT
BRANCH  10  12
HETATM   12  C   UNL     1      32.363 -34.688  13.857  1.00  0.00     0.164 C 
HETATM   13  N   UNL     1      31.284 -35.360  14.569  1.00  0.00    -0.330 N 
HETATM   14  C   UNL     1      29.965 -35.175  14.322  1.00  0.00     0.321 C 
HETATM   15  H   UNL     1      31.487 -35.834  15.440  1.00  0.00     0.165 HD
HETATM   16  O   UNL     1      29.103 -35.596  15.084  1.00  0.00    -0.247 OA
HETATM   17  N   UNL     1      29.655 -34.522  13.167  1.00  0.00    -0.312 N 
HETATM   18  C   UNL     1      30.565 -34.080  12.234  1.00  0.00     0.024 C 
HETATM   19  H   UNL     1      28.660 -34.452  12.983  1.00  0.00     0.170 HD
HETATM   20  C   UNL     1      29.987 -33.548  10.952  1.00  0.00     0.069 C 
HETATM   21  C   UNL     1      31.878 -34.176  12.525  1.00  0.00     0.067 C 
BRANCH  21  22
HETATM   22  C   UNL     1      32.902 -33.741  11.547  1.00  0.00     0.293 C 
HETATM   23  O   UNL     1      33.340 -32.605  11.459  1.00  0.00    -0.259 OA
BRANCH  22  24
HETATM   24  O   UNL     1      33.249 -34.788  10.761  1.00  0.00    -0.323 OA
HETATM   25  C   UNL     1      34.584 -35.257  10.965  1.00  0.00     0.213 C 
ENDBRANCH  22  24
ENDBRANCH  21  22
ENDBRANCH  10  12
BRANCH   4  26
HETATM   26  C   UNL     1      35.422 -30.415  18.116  1.00  0.00     0.060 A 
HETATM   27  C   UNL     1      35.361 -29.508  19.190  1.00  0.00     0.031 A 
HETATM   28  C   UNL     1      36.504 -29.207  19.934  1.00  0.00     0.002 A 
HETATM   29  C   UNL     1      37.720 -29.802  19.613  1.00  0.00     0.000 A 
HETATM   30  C   UNL     1      37.794 -30.697  18.549  1.00  0.00     0.002 A 
HETATM   31  C   UNL     1      36.652 -31.006  17.800  1.00  0.00     0.031 A 
ENDBRANCH   4  26
TORSDOF 4
ENDMDL
MODEL 9
REMARK VINA RESULT:      -7.0      9.313     12.380
REMARK  4 active torsions:
REMARK  status: ('A' for Active; 'I' for Inactive)
REMARK    1  A    between atoms: N_4  and  C_5 
REMARK    2  A    between atoms: C_16  and  C_17 
REMARK    3  A    between atoms: C_24  and  C_25 
REMARK    4  A    between atoms: C_25  and  O_26 
ROOT
HETATM    1  C   UNL     1      41.341  -4.949   7.479  1.00  0.00     0.073 C 
HETATM    2  C   UNL     1      42.042  -6.018   8.235  1.00  0.00     0.065 A 
HETATM    3  N   UNL     1      42.676  -6.994   7.585  1.00  0.00    -0.170 NA
HETATM    4  N   UNL     1      43.224  -7.784   8.561  1.00  0.00    -0.215 N 
HETATM    5  C   UNL     1      42.886  -7.316   9.832  1.00  0.00     0.165 A 
HETATM    6  C   UNL     1      42.146  -6.158   9.635  1.00  0.00     0.039 A 
HETATM    7  N   UNL     1      43.213  -7.835  11.038  1.00  0.00    -0.216 NA
HETATM    8  C   UNL     1      42.782  -7.110  12.096  1.00  0.00     0.137 A 
HETATM    9 CL   UNL     1      43.268  -7.841  13.581  1.00  0.00    -0.062 Cl
HETATM   10  C   UNL     1      42.059  -5.919  12.044  1.00  0.00     0.011 A 
HETATM   11  C   UNL     1      41.719  -5.442  10.763  1.00  0.00     0.030 A 
ENDROOT
BRANCH  10  12
HETATM   12  C   UNL     1      41.683  -5.116  13.278  1.00  0.00     0.164 C 
HETATM   13  N   UNL     1      42.617  -4.008  13.424  1.00  0.00    -0.330 N 
HETATM   14  C   UNL     1      42.333  -2.716  13.128  1.00  0.00     0.321 C 
HETATM   15  H   UNL     1      43.602  -4.204  13.550  1.00  0.00     0.165 HD
HETATM   16  O   UNL     1      43.211  -1.863  13.065  1.00  0.00    -0.247 OA
HETATM   17  N   UNL     1      41.018  -2.418  12.933  1.00  0.00    -0.312 N 
HETATM   18  C   UNL     1      39.975  -3.308  13.052  1.00  0.00     0.024 C 
HETATM   19  H   UNL     1      40.834  -1.434  12.772  1.00  0.00     0.170 HD
HETATM   20  C   UNL     1      38.595  -2.718  12.971  1.00  0.00     0.069 C 
HETATM   21  C   UNL     1      40.264  -4.610  13.250  1.00  0.00     0.067 C 
BRANCH  21  22
HETATM   22  C   UNL     1      39.180  -5.608  13.411  1.00  0.00     0.293 C 
HETATM   23  O   UNL     1      38.385  -5.917  12.539  1.00  0.00    -0.259 OA
BRANCH  22  24
HETATM   24  O   UNL     1      39.200  -6.095  14.676  1.00  0.00    -0.323 OA
HETATM   25  C   UNL     1      38.309  -5.431  15.574  1.00  0.00     0.213 C 
ENDBRANCH  22  24
ENDBRANCH  21  22
ENDBRANCH  10  12
BRANCH   4  26
HETATM   26  C   UNL     1      44.042  -8.895   8.187  1.00  0.00     0.060 A 
HETATM   27  C   UNL     1      45.440  -8.782   8.296  1.00  0.00     0.031 A 
HETATM   28  C   UNL     1      46.269  -9.856   7.966  1.00  0.00     0.002 A 
HETATM   29  C   UNL     1      45.715 -11.052   7.518  1.00  0.00     0.000 A 
HETATM   30  C   UNL     1      44.332 -11.173   7.401  1.00  0.00     0.002 A 
HETATM   31  C   UNL     1      43.495 -10.102   7.734  1.00  0.00     0.031 A 
ENDBRANCH   4  26
TORSDOF 4
ENDMDL
MODEL 10
REMARK VINA RESULT:      -6.9      4.178      8.175
REMARK  4 active torsions:
REMARK  status: ('A' for Active; 'I' for Inactive)
REMARK    1  A    between atoms: N_4  and  C_5 
REMARK    2  A    between atoms: C_16  and  C_17 
REMARK    3  A    between atoms: C_24  and  C_25 
REMARK    4  A    between atoms: C_25  and  O_26 
ROOT
HETATM    1  C   UNL     1      38.197  -9.960   5.508  1.00  0.00     0.073 C 
HETATM    2  C   UNL     1      39.534  -9.819   6.138  1.00  0.00     0.065 A 
HETATM    3  N   UNL     1      39.834  -8.727   6.842  1.00  0.00    -0.170 NA
HETATM    4  N   UNL     1      41.112  -8.927   7.295  1.00  0.00    -0.215 N 
HETATM    5  C   UNL     1      41.626 -10.138   6.827  1.00  0.00     0.165 A 
HETATM    6  C   UNL     1      40.605 -10.737   6.102  1.00  0.00     0.039 A 
HETATM    7  N   UNL     1      42.851 -10.671   7.036  1.00  0.00    -0.216 NA
HETATM    8  C   UNL     1      43.027 -11.899   6.495  1.00  0.00     0.137 A 
HETATM    9 CL   UNL     1      44.608 -12.500   6.835  1.00  0.00    -0.062 Cl
HETATM   10  C   UNL     1      42.083 -12.628   5.772  1.00  0.00     0.011 A 
HETATM   11  C   UNL     1      40.835 -12.010   5.558  1.00  0.00     0.030 A 
ENDROOT
BRANCH  10  12
HETATM   12  C   UNL     1      42.327 -14.041   5.268  1.00  0.00     0.164 C 
HETATM   13  N   UNL     1      41.751 -14.987   6.214  1.00  0.00    -0.330 N 
HETATM   14  C   UNL     1      40.596 -15.668   6.017  1.00  0.00     0.321 C 
HETATM   15  H   UNL     1      42.093 -15.004   7.166  1.00  0.00     0.165 HD
HETATM   16  O   UNL     1      40.050 -16.282   6.925  1.00  0.00    -0.247 OA
HETATM   17  N   UNL     1      40.096 -15.650   4.750  1.00  0.00    -0.312 N 
HETATM   18  C   UNL     1      40.689 -15.038   3.669  1.00  0.00     0.024 C 
HETATM   19  H   UNL     1      39.264 -16.216   4.623  1.00  0.00     0.170 HD
HETATM   20  C   UNL     1      40.052 -15.303   2.333  1.00  0.00     0.069 C 
HETATM   21  C   UNL     1      41.783 -14.281   3.883  1.00  0.00     0.067 C 
BRANCH  21  22
HETATM   22  C   UNL     1      42.477 -13.620   2.753  1.00  0.00     0.293 C 
HETATM   23  O   UNL     1      43.571 -13.949   2.322  1.00  0.00    -0.259 OA
BRANCH  22  24
HETATM   24  O   UNL     1      41.722 -12.591   2.299  1.00  0.00    -0.323 OA
HETATM   25  C   UNL     1      42.361 -11.314   2.382  1.00  0.00     0.213 C 
ENDBRANCH  22  24
ENDBRANCH  21  22
ENDBRANCH  10  12
BRANCH   4  26
HETATM   26  C   UNL     1      41.710  -7.954   8.154  1.00  0.00     0.060 A 
HETATM   27  C   UNL     1      41.630  -6.594   7.807  1.00  0.00     0.031 A 
HETATM   28  C   UNL     1      42.179  -5.613   8.636  1.00  0.00     0.002 A 
HETATM   29  C   UNL     1      42.818  -5.978   9.817  1.00  0.00     0.000 A 
HETATM   30  C   UNL     1      42.909  -7.323  10.169  1.00  0.00     0.002 A 
HETATM   31  C   UNL     1      42.357  -8.311   9.344  1.00  0.00     0.031 A 
ENDBRANCH   4  26
TORSDOF 4
ENDMDL
