MODEL 1
REMARK VINA RESULT:      -6.3      0.000      0.000
REMARK  13 active torsions:
REMARK  status: ('A' for Active; 'I' for Inactive)
REMARK    1  A    between atoms: C_2  and  N_3 
REMARK    2  A    between atoms: N_3  and  C_5 
REMARK    3  A    between atoms: N_3  and  C_34 
REMARK    4  A    between atoms: C_5  and  C_6 
REMARK    5  A    between atoms: C_6  and  O_7 
REMARK    6  A    between atoms: O_7  and  C_8 
REMARK    7  A    between atoms: N_15  and  N_16 
REMARK    8  A    between atoms: C_20  and  O_21 
REMARK    9  A    between atoms: O_21  and  C_22 
REMARK   10  A    between atoms: C_22  and  C_23 
REMARK   11  A    between atoms: C_23  and  N_24 
REMARK   12  A    between atoms: N_24  and  C_26 
REMARK   13  A    between atoms: N_24  and  C_28 
ROOT
HETATM    1  C   UNL     1      43.433  -9.010   7.672  1.00  0.00     0.087 A 
HETATM    2  C   UNL     1      44.539  -9.889   7.725  1.00  0.00     0.045 A 
HETATM    3 BR   UNL     1      46.208  -9.302   8.425  1.00  0.00    -0.048 Br
HETATM    4  C   UNL     1      44.444 -11.218   7.286  1.00  0.00     0.035 A 
HETATM    5  C   UNL     1      43.233 -11.655   6.775  1.00  0.00    -0.011 A 
HETATM    6  C   UNL     1      42.143 -10.766   6.687  1.00  0.00     0.009 A 
HETATM    7  C   UNL     1      41.010 -11.520   6.083  1.00  0.00     0.093 A 
HETATM    8  N   UNL     1      39.798 -11.188   5.765  1.00  0.00    -0.203 NA
HETATM    9  C   UNL     1      41.506 -12.897   5.852  1.00  0.00     0.009 A 
HETATM   10  C   UNL     1      42.838 -12.956   6.274  1.00  0.00    -0.011 A 
HETATM   11  C   UNL     1      40.818 -13.978   5.320  1.00  0.00     0.053 A 
HETATM   12  C   UNL     1      41.508 -15.185   5.196  1.00  0.00     0.087 A 
HETATM   13  C   UNL     1      42.852 -15.265   5.640  1.00  0.00     0.045 A 
HETATM   14 BR   UNL     1      43.813 -16.903   5.515  1.00  0.00    -0.048 Br
HETATM   15  C   UNL     1      43.526 -14.153   6.174  1.00  0.00     0.035 A 
HETATM   16  C   UNL     1      42.224  -9.453   7.126  1.00  0.00     0.053 A 
ENDROOT
BRANCH   1  17
HETATM   17  O   UNL     1      43.623  -7.731   8.138  1.00  0.00    -0.348 OA
BRANCH  17  18
HETATM   18  C   UNL     1      42.523  -7.151   8.849  1.00  0.00     0.203 C 
BRANCH  18  19
HETATM   19  C   UNL     1      42.850  -7.207  10.347  1.00  0.00     0.261 C 
BRANCH  19  20
HETATM   20  N   UNL     1      42.270  -8.455  11.010  1.00  0.00    -0.070 N 
HETATM   21  H   UNL     1      42.049  -9.084  10.219  1.00  0.00     0.279 HD
BRANCH  20  22
HETATM   22  C   UNL     1      40.962  -8.189  11.733  1.00  0.00     0.230 C 
HETATM   23  C   UNL     1      40.271  -9.489  12.103  1.00  0.00     0.034 C 
ENDBRANCH  20  22
BRANCH  20  24
HETATM   24  C   UNL     1      43.244  -9.250  11.861  1.00  0.00     0.230 C 
HETATM   25  C   UNL     1      43.737 -10.504  11.162  1.00  0.00     0.034 C 
ENDBRANCH  20  24
ENDBRANCH  19  20
ENDBRANCH  18  19
ENDBRANCH  17  18
ENDBRANCH   1  17
BRANCH   8  26
HETATM   26  N   UNL     1      39.433  -9.909   5.977  1.00  0.00    -0.226 NA
HETATM   27  H   UNL     1      39.434  -9.738   6.990  1.00  0.00     0.145 HD
HETATM   28  H   UNL     1      38.436  -9.814   5.751  1.00  0.00     0.145 HD
ENDBRANCH   8  26
BRANCH  12  29
HETATM   29  O   UNL     1      40.944 -16.332   4.690  1.00  0.00    -0.348 OA
BRANCH  29  30
HETATM   30  C   UNL     1      40.453 -16.260   3.347  1.00  0.00     0.203 C 
BRANCH  30  31
HETATM   31  C   UNL     1      41.615 -16.591   2.404  1.00  0.00     0.261 C 
BRANCH  31  32
HETATM   32  N   UNL     1      41.994 -15.404   1.513  1.00  0.00    -0.070 N 
HETATM   33  H   UNL     1      42.120 -15.830   0.579  1.00  0.00     0.279 HD
BRANCH  32  34
HETATM   34  C   UNL     1      40.903 -14.367   1.330  1.00  0.00     0.230 C 
HETATM   35  C   UNL     1      40.373 -14.313  -0.090  1.00  0.00     0.034 C 
ENDBRANCH  32  34
BRANCH  32  36
HETATM   36  C   UNL     1      43.353 -14.857   1.910  1.00  0.00     0.230 C 
HETATM   37  C   UNL     1      43.259 -13.447   2.463  1.00  0.00     0.034 C 
ENDBRANCH  32  36
ENDBRANCH  31  32
ENDBRANCH  30  31
ENDBRANCH  29  30
ENDBRANCH  12  29
TORSDOF 13
ENDMDL
MODEL 2
REMARK VINA RESULT:      -6.2      0.732      8.622
REMARK  13 active torsions:
REMARK  status: ('A' for Active; 'I' for Inactive)
REMARK    1  A    between atoms: C_2  and  N_3 
REMARK    2  A    between atoms: N_3  and  C_5 
REMARK    3  A    between atoms: N_3  and  C_34 
REMARK    4  A    between atoms: C_5  and  C_6 
REMARK    5  A    between atoms: C_6  and  O_7 
REMARK    6  A    between atoms: O_7  and  C_8 
REMARK    7  A    between atoms: N_15  and  N_16 
REMARK    8  A    between atoms: C_20  and  O_21 
REMARK    9  A    between atoms: O_21  and  C_22 
REMARK   10  A    between atoms: C_22  and  C_23 
REMARK   11  A    between atoms: C_23  and  N_24 
REMARK   12  A    between atoms: N_24  and  C_26 
REMARK   13  A    between atoms: N_24  and  C_28 
ROOT
HETATM    1  C   UNL     1      41.407 -14.972   4.881  1.00  0.00     0.087 A 
HETATM    2  C   UNL     1      42.708 -15.176   5.396  1.00  0.00     0.045 A 
HETATM    3 BR   UNL     1      43.570 -16.861   5.208  1.00  0.00    -0.048 Br
HETATM    4  C   UNL     1      43.413 -14.148   6.040  1.00  0.00     0.035 A 
HETATM    5  C   UNL     1      42.793 -12.916   6.182  1.00  0.00    -0.011 A 
HETATM    6  C   UNL     1      41.482 -12.727   5.702  1.00  0.00     0.009 A 
HETATM    7  C   UNL     1      41.097 -11.325   6.021  1.00  0.00     0.093 A 
HETATM    8  N   UNL     1      40.013 -10.641   5.825  1.00  0.00    -0.203 NA
HETATM    9  C   UNL     1      42.270 -10.715   6.689  1.00  0.00     0.009 A 
HETATM   10  C   UNL     1      43.274 -11.685   6.774  1.00  0.00    -0.011 A 
HETATM   11  C   UNL     1      42.408  -9.419   7.163  1.00  0.00     0.053 A 
HETATM   12  C   UNL     1      43.621  -9.077   7.764  1.00  0.00     0.087 A 
HETATM   13  C   UNL     1      44.656 -10.043   7.838  1.00  0.00     0.045 A 
HETATM   14 BR   UNL     1      46.332  -9.603   8.624  1.00  0.00    -0.048 Br
HETATM   15  C   UNL     1      44.488 -11.351   7.351  1.00  0.00     0.035 A 
HETATM   16  C   UNL     1      40.780 -13.734   5.056  1.00  0.00     0.053 A 
ENDROOT
BRANCH   1  17
HETATM   17  O   UNL     1      40.805 -16.038   4.254  1.00  0.00    -0.348 OA
BRANCH  17  18
HETATM   18  C   UNL     1      40.198 -15.760   2.987  1.00  0.00     0.203 C 
BRANCH  18  19
HETATM   19  C   UNL     1      41.207 -16.130   1.892  1.00  0.00     0.261 C 
BRANCH  19  20
HETATM   20  N   UNL     1      41.418 -14.986   0.902  1.00  0.00    -0.070 N 
HETATM   21  H   UNL     1      42.070 -15.374   0.200  1.00  0.00     0.279 HD
BRANCH  20  22
HETATM   22  C   UNL     1      42.109 -13.784   1.521  1.00  0.00     0.230 C 
HETATM   23  C   UNL     1      43.493 -14.152   2.024  1.00  0.00     0.034 C 
ENDBRANCH  20  22
BRANCH  20  24
HETATM   24  C   UNL     1      40.192 -14.591   0.097  1.00  0.00     0.230 C 
HETATM   25  C   UNL     1      39.825 -13.130   0.278  1.00  0.00     0.034 C 
ENDBRANCH  20  24
ENDBRANCH  19  20
ENDBRANCH  18  19
ENDBRANCH  17  18
ENDBRANCH   1  17
BRANCH   8  26
HETATM   26  N   UNL     1      38.979 -11.276   5.240  1.00  0.00    -0.226 NA
HETATM   27  H   UNL     1      39.206 -11.413   4.247  1.00  0.00     0.145 HD
HETATM   28  H   UNL     1      38.187 -10.626   5.185  1.00  0.00     0.145 HD
ENDBRANCH   8  26
BRANCH  12  29
HETATM   29  O   UNL     1      43.890  -7.828   8.271  1.00  0.00    -0.348 OA
BRANCH  29  30
HETATM   30  C   UNL     1      42.928  -7.293   9.187  1.00  0.00     0.203 C 
BRANCH  30  31
HETATM   31  C   UNL     1      43.199  -7.907  10.565  1.00  0.00     0.261 C 
BRANCH  31  32
HETATM   32  N   UNL     1      41.932  -8.486  11.200  1.00  0.00    -0.070 N 
HETATM   33  H   UNL     1      41.839  -7.962  12.085  1.00  0.00     0.279 HD
BRANCH  32  34
HETATM   34  C   UNL     1      40.650  -8.208  10.439  1.00  0.00     0.230 C 
HETATM   35  C   UNL     1      39.857  -9.467  10.140  1.00  0.00     0.034 C 
ENDBRANCH  32  34
BRANCH  32  36
HETATM   36  C   UNL     1      42.153  -9.936  11.594  1.00  0.00     0.230 C 
HETATM   37  C   UNL     1      43.573 -10.390  11.314  1.00  0.00     0.034 C 
ENDBRANCH  32  36
ENDBRANCH  31  32
ENDBRANCH  30  31
ENDBRANCH  29  30
ENDBRANCH  12  29
TORSDOF 13
ENDMDL
MODEL 3
REMARK VINA RESULT:      -6.1      1.395      1.852
REMARK  13 active torsions:
REMARK  status: ('A' for Active; 'I' for Inactive)
REMARK    1  A    between atoms: C_2  and  N_3 
REMARK    2  A    between atoms: N_3  and  C_5 
REMARK    3  A    between atoms: N_3  and  C_34 
REMARK    4  A    between atoms: C_5  and  C_6 
REMARK    5  A    between atoms: C_6  and  O_7 
REMARK    6  A    between atoms: O_7  and  C_8 
REMARK    7  A    between atoms: N_15  and  N_16 
REMARK    8  A    between atoms: C_20  and  O_21 
REMARK    9  A    between atoms: O_21  and  C_22 
REMARK   10  A    between atoms: C_22  and  C_23 
REMARK   11  A    between atoms: C_23  and  N_24 
REMARK   12  A    between atoms: N_24  and  C_26 
REMARK   13  A    between atoms: N_24  and  C_28 
ROOT
HETATM    1  C   UNL     1      43.146  -9.779   7.619  1.00  0.00     0.087 A 
HETATM    2  C   UNL     1      44.217 -10.685   7.441  1.00  0.00     0.045 A 
HETATM    3 BR   UNL     1      45.906 -10.360   8.255  1.00  0.00    -0.048 Br
HETATM    4  C   UNL     1      44.071 -11.857   6.683  1.00  0.00     0.035 A 
HETATM    5  C   UNL     1      42.845 -12.103   6.087  1.00  0.00    -0.011 A 
HETATM    6  C   UNL     1      41.791 -11.179   6.233  1.00  0.00     0.009 A 
HETATM    7  C   UNL     1      40.631 -11.712   5.467  1.00  0.00     0.093 A 
HETATM    8  N   UNL     1      39.435 -11.263   5.252  1.00  0.00    -0.203 NA
HETATM    9  C   UNL     1      41.073 -13.005   4.894  1.00  0.00     0.009 A 
HETATM   10  C   UNL     1      42.400 -13.219   5.278  1.00  0.00    -0.011 A 
HETATM   11  C   UNL     1      40.344 -13.889   4.112  1.00  0.00     0.053 A 
HETATM   12  C   UNL     1      40.986 -15.052   3.684  1.00  0.00     0.087 A 
HETATM   13  C   UNL     1      42.325 -15.294   4.083  1.00  0.00     0.045 A 
HETATM   14 BR   UNL     1      43.220 -16.884   3.543  1.00  0.00    -0.048 Br
HETATM   15  C   UNL     1      43.041 -14.379   4.875  1.00  0.00     0.035 A 
HETATM   16  C   UNL     1      41.923 -10.023   6.988  1.00  0.00     0.053 A 
ENDROOT
BRANCH   1  17
HETATM   17  O   UNL     1      43.386  -8.667   8.391  1.00  0.00    -0.348 OA
BRANCH  17  18
HETATM   18  C   UNL     1      42.550  -8.509   9.543  1.00  0.00     0.203 C 
BRANCH  18  19
HETATM   19  C   UNL     1      43.190  -9.289  10.698  1.00  0.00     0.261 C 
BRANCH  19  20
HETATM   20  N   UNL     1      42.151  -9.759  11.714  1.00  0.00    -0.070 N 
HETATM   21  H   UNL     1      42.269 -10.785  11.742  1.00  0.00     0.279 HD
BRANCH  20  22
HETATM   22  C   UNL     1      40.723  -9.497  11.267  1.00  0.00     0.230 C 
HETATM   23  C   UNL     1      39.730 -10.170  12.197  1.00  0.00     0.034 C 
ENDBRANCH  20  22
BRANCH  20  24
HETATM   24  C   UNL     1      42.394  -9.313  13.145  1.00  0.00     0.230 C 
HETATM   25  C   UNL     1      43.086  -7.965  13.223  1.00  0.00     0.034 C 
ENDBRANCH  20  24
ENDBRANCH  19  20
ENDBRANCH  18  19
ENDBRANCH  17  18
ENDBRANCH   1  17
BRANCH   8  26
HETATM   26  N   UNL     1      39.119 -10.065   5.781  1.00  0.00    -0.226 NA
HETATM   27  H   UNL     1      38.386 -10.209   6.486  1.00  0.00     0.145 HD
HETATM   28  H   UNL     1      38.621  -9.517   5.071  1.00  0.00     0.145 HD
ENDBRANCH   8  26
BRANCH  12  29
HETATM   29  O   UNL     1      40.378 -16.012   2.909  1.00  0.00    -0.348 OA
BRANCH  29  30
HETATM   30  C   UNL     1      39.945 -15.599   1.609  1.00  0.00     0.203 C 
BRANCH  30  31
HETATM   31  C   UNL     1      41.173 -15.102   0.839  1.00  0.00     0.261 C 
BRANCH  31  32
HETATM   32  N   UNL     1      40.814 -14.034  -0.198  1.00  0.00    -0.070 N 
HETATM   33  H   UNL     1      41.606 -14.059  -0.860  1.00  0.00     0.279 HD
BRANCH  32  34
HETATM   34  C   UNL     1      39.589 -14.341  -1.036  1.00  0.00     0.230 C 
HETATM   35  C   UNL     1      39.816 -14.114  -2.519  1.00  0.00     0.034 C 
ENDBRANCH  32  34
BRANCH  32  36
HETATM   36  C   UNL     1      40.840 -12.653   0.434  1.00  0.00     0.230 C 
HETATM   37  C   UNL     1      39.444 -12.115   0.682  1.00  0.00     0.034 C 
ENDBRANCH  32  36
ENDBRANCH  31  32
ENDBRANCH  30  31
ENDBRANCH  29  30
ENDBRANCH  12  29
TORSDOF 13
ENDMDL
MODEL 4
REMARK VINA RESULT:      -6.1      1.045      1.577
REMARK  13 active torsions:
REMARK  status: ('A' for Active; 'I' for Inactive)
REMARK    1  A    between atoms: C_2  and  N_3 
REMARK    2  A    between atoms: N_3  and  C_5 
REMARK    3  A    between atoms: N_3  and  C_34 
REMARK    4  A    between atoms: C_5  and  C_6 
REMARK    5  A    between atoms: C_6  and  O_7 
REMARK    6  A    between atoms: O_7  and  C_8 
REMARK    7  A    between atoms: N_15  and  N_16 
REMARK    8  A    between atoms: C_20  and  O_21 
REMARK    9  A    between atoms: O_21  and  C_22 
REMARK   10  A    between atoms: C_22  and  C_23 
REMARK   11  A    between atoms: C_23  and  N_24 
REMARK   12  A    between atoms: N_24  and  C_26 
REMARK   13  A    between atoms: N_24  and  C_28 
ROOT
HETATM    1  C   UNL     1      43.214  -8.832   7.614  1.00  0.00     0.087 A 
HETATM    2  C   UNL     1      44.305  -9.678   7.920  1.00  0.00     0.045 A 
HETATM    3 BR   UNL     1      45.814  -9.009   8.866  1.00  0.00    -0.048 Br
HETATM    4  C   UNL     1      44.306 -11.034   7.559  1.00  0.00     0.035 A 
HETATM    5  C   UNL     1      43.212 -11.531   6.870  1.00  0.00    -0.011 A 
HETATM    6  C   UNL     1      42.144 -10.676   6.531  1.00  0.00     0.009 A 
HETATM    7  C   UNL     1      41.148 -11.493   5.787  1.00  0.00     0.093 A 
HETATM    8  N   UNL     1      40.008 -11.210   5.237  1.00  0.00    -0.203 NA
HETATM    9  C   UNL     1      41.694 -12.869   5.738  1.00  0.00     0.009 A 
HETATM   10  C   UNL     1      42.930 -12.869   6.392  1.00  0.00    -0.011 A 
HETATM   11  C   UNL     1      41.126 -13.997   5.163  1.00  0.00     0.053 A 
HETATM   12  C   UNL     1      41.842 -15.192   5.244  1.00  0.00     0.087 A 
HETATM   13  C   UNL     1      43.086 -15.213   5.923  1.00  0.00     0.045 A 
HETATM   14 BR   UNL     1      44.075 -16.831   6.078  1.00  0.00    -0.048 Br
HETATM   15  C   UNL     1      43.639 -14.053   6.495  1.00  0.00     0.035 A 
HETATM   16  C   UNL     1      42.129  -9.337   6.891  1.00  0.00     0.053 A 
ENDROOT
BRANCH   1  17
HETATM   17  O   UNL     1      43.303  -7.522   8.022  1.00  0.00    -0.348 OA
BRANCH  17  18
HETATM   18  C   UNL     1      42.215  -7.037   8.819  1.00  0.00     0.203 C 
BRANCH  18  19
HETATM   19  C   UNL     1      42.465  -7.474  10.268  1.00  0.00     0.261 C 
BRANCH  19  20
HETATM   20  N   UNL     1      41.303  -8.295  10.824  1.00  0.00    -0.070 N 
HETATM   21  H   UNL     1      40.676  -8.430  10.014  1.00  0.00     0.279 HD
BRANCH  20  22
HETATM   22  C   UNL     1      40.500  -7.551  11.877  1.00  0.00     0.230 C 
HETATM   23  C   UNL     1      39.018  -7.576  11.549  1.00  0.00     0.034 C 
ENDBRANCH  20  22
BRANCH  20  24
HETATM   24  C   UNL     1      41.657  -9.704  11.264  1.00  0.00     0.230 C 
HETATM   25  C   UNL     1      43.145  -9.883  11.498  1.00  0.00     0.034 C 
ENDBRANCH  20  24
ENDBRANCH  19  20
ENDBRANCH  18  19
ENDBRANCH  17  18
ENDBRANCH   1  17
BRANCH   8  26
HETATM   26  N   UNL     1      39.594  -9.929   5.296  1.00  0.00    -0.226 NA
HETATM   27  H   UNL     1      40.422  -9.328   5.392  1.00  0.00     0.145 HD
HETATM   28  H   UNL     1      39.125  -9.781   6.197  1.00  0.00     0.145 HD
ENDBRANCH   8  26
BRANCH  12  29
HETATM   29  O   UNL     1      41.392 -16.382   4.721  1.00  0.00    -0.348 OA
BRANCH  29  30
HETATM   30  C   UNL     1      40.656 -16.300   3.496  1.00  0.00     0.203 C 
BRANCH  30  31
HETATM   31  C   UNL     1      41.443 -17.059   2.422  1.00  0.00     0.261 C 
BRANCH  31  32
HETATM   32  N   UNL     1      42.952 -16.824   2.536  1.00  0.00    -0.070 N 
HETATM   33  H   UNL     1      43.061 -16.377   3.461  1.00  0.00     0.279 HD
BRANCH  32  34
HETATM   34  C   UNL     1      43.793 -18.083   2.604  1.00  0.00     0.230 C 
HETATM   35  C   UNL     1      43.034 -19.323   2.168  1.00  0.00     0.034 C 
ENDBRANCH  32  34
BRANCH  32  36
HETATM   36  C   UNL     1      43.404 -15.793   1.517  1.00  0.00     0.230 C 
HETATM   37  C   UNL     1      43.473 -14.399   2.111  1.00  0.00     0.034 C 
ENDBRANCH  32  36
ENDBRANCH  31  32
ENDBRANCH  30  31
ENDBRANCH  29  30
ENDBRANCH  12  29
TORSDOF 13
ENDMDL
MODEL 5
REMARK VINA RESULT:      -6.0      2.965      3.920
REMARK  13 active torsions:
REMARK  status: ('A' for Active; 'I' for Inactive)
REMARK    1  A    between atoms: C_2  and  N_3 
REMARK    2  A    between atoms: N_3  and  C_5 
REMARK    3  A    between atoms: N_3  and  C_34 
REMARK    4  A    between atoms: C_5  and  C_6 
REMARK    5  A    between atoms: C_6  and  O_7 
REMARK    6  A    between atoms: O_7  and  C_8 
REMARK    7  A    between atoms: N_15  and  N_16 
REMARK    8  A    between atoms: C_20  and  O_21 
REMARK    9  A    between atoms: O_21  and  C_22 
REMARK   10  A    between atoms: C_22  and  C_23 
REMARK   11  A    between atoms: C_23  and  N_24 
REMARK   12  A    between atoms: N_24  and  C_26 
REMARK   13  A    between atoms: N_24  and  C_28 
ROOT
HETATM    1  C   UNL     1      42.093  -7.739   8.493  1.00  0.00     0.087 A 
HETATM    2  C   UNL     1      40.957  -8.011   7.696  1.00  0.00     0.045 A 
HETATM    3 BR   UNL     1      39.531  -6.757   7.584  1.00  0.00    -0.048 Br
HETATM    4  C   UNL     1      40.850  -9.193   6.949  1.00  0.00     0.035 A 
HETATM    5  C   UNL     1      41.884 -10.113   7.024  1.00  0.00    -0.011 A 
HETATM    6  C   UNL     1      42.996  -9.857   7.850  1.00  0.00     0.009 A 
HETATM    7  C   UNL     1      43.909 -11.027   7.731  1.00  0.00     0.093 A 
HETATM    8  N   UNL     1      45.046 -11.320   8.280  1.00  0.00    -0.203 NA
HETATM    9  C   UNL     1      43.267 -11.957   6.771  1.00  0.00     0.009 A 
HETATM   10  C   UNL     1      42.057 -11.389   6.361  1.00  0.00    -0.011 A 
HETATM   11  C   UNL     1      43.736 -13.182   6.321  1.00  0.00     0.053 A 
HETATM   12  C   UNL     1      42.942 -13.882   5.411  1.00  0.00     0.087 A 
HETATM   13  C   UNL     1      41.723 -13.310   4.968  1.00  0.00     0.045 A 
HETATM   14 BR   UNL     1      40.631 -14.222   3.705  1.00  0.00    -0.048 Br
HETATM   15  C   UNL     1      41.271 -12.066   5.443  1.00  0.00     0.035 A 
HETATM   16  C   UNL     1      43.116  -8.688   8.585  1.00  0.00     0.053 A 
ENDROOT
BRANCH   1  17
HETATM   17  O   UNL     1      42.109  -6.547   9.177  1.00  0.00    -0.348 OA
BRANCH  17  18
HETATM   18  C   UNL     1      42.746  -6.567  10.460  1.00  0.00     0.203 C 
BRANCH  18  19
HETATM   19  C   UNL     1      41.650  -6.482  11.530  1.00  0.00     0.261 C 
BRANCH  19  20
HETATM   20  N   UNL     1      41.421  -7.826  12.219  1.00  0.00    -0.070 N 
HETATM   21  H   UNL     1      42.131  -8.451  11.801  1.00  0.00     0.279 HD
BRANCH  20  22
HETATM   22  C   UNL     1      40.066  -8.433  11.899  1.00  0.00     0.230 C 
HETATM   23  C   UNL     1      40.216  -9.676  11.039  1.00  0.00     0.034 C 
ENDBRANCH  20  22
BRANCH  20  24
HETATM   24  C   UNL     1      41.724  -7.854  13.706  1.00  0.00     0.230 C 
HETATM   25  C   UNL     1      43.119  -7.350  14.023  1.00  0.00     0.034 C 
ENDBRANCH  20  24
ENDBRANCH  19  20
ENDBRANCH  18  19
ENDBRANCH  17  18
ENDBRANCH   1  17
BRANCH   8  26
HETATM   26  N   UNL     1      45.549 -10.438   9.165  1.00  0.00    -0.226 NA
HETATM   27  H   UNL     1      46.008  -9.683   8.641  1.00  0.00     0.145 HD
HETATM   28  H   UNL     1      46.345 -10.875   9.643  1.00  0.00     0.145 HD
ENDBRANCH   8  26
BRANCH  12  29
HETATM   29  O   UNL     1      43.291 -15.103   4.883  1.00  0.00    -0.348 OA
BRANCH  29  30
HETATM   30  C   UNL     1      43.254 -16.218   5.781  1.00  0.00     0.203 C 
BRANCH  30  31
HETATM   31  C   UNL     1      44.330 -17.215   5.337  1.00  0.00     0.261 C 
BRANCH  31  32
HETATM   32  N   UNL     1      43.730 -18.445   4.649  1.00  0.00    -0.070 N 
HETATM   33  H   UNL     1      42.712 -18.277   4.691  1.00  0.00     0.279 HD
BRANCH  32  34
HETATM   34  C   UNL     1      44.049 -18.572   3.173  1.00  0.00     0.230 C 
HETATM   35  C   UNL     1      42.983 -17.958   2.284  1.00  0.00     0.034 C 
ENDBRANCH  32  34
BRANCH  32  36
HETATM   36  C   UNL     1      43.983 -19.691   5.479  1.00  0.00     0.230 C 
HETATM   37  C   UNL     1      44.014 -20.946   4.626  1.00  0.00     0.034 C 
ENDBRANCH  32  36
ENDBRANCH  31  32
ENDBRANCH  30  31
ENDBRANCH  29  30
ENDBRANCH  12  29
TORSDOF 13
ENDMDL
MODEL 6
REMARK VINA RESULT:      -6.0      2.877      3.859
REMARK  13 active torsions:
REMARK  status: ('A' for Active; 'I' for Inactive)
REMARK    1  A    between atoms: C_2  and  N_3 
REMARK    2  A    between atoms: N_3  and  C_5 
REMARK    3  A    between atoms: N_3  and  C_34 
REMARK    4  A    between atoms: C_5  and  C_6 
REMARK    5  A    between atoms: C_6  and  O_7 
REMARK    6  A    between atoms: O_7  and  C_8 
REMARK    7  A    between atoms: N_15  and  N_16 
REMARK    8  A    between atoms: C_20  and  O_21 
REMARK    9  A    between atoms: O_21  and  C_22 
REMARK   10  A    between atoms: C_22  and  C_23 
REMARK   11  A    between atoms: C_23  and  N_24 
REMARK   12  A    between atoms: N_24  and  C_26 
REMARK   13  A    between atoms: N_24  and  C_28 
ROOT
HETATM    1  C   UNL     1      41.953  -8.306   6.875  1.00  0.00     0.087 A 
HETATM    2  C   UNL     1      40.931  -8.443   5.907  1.00  0.00     0.045 A 
HETATM    3 BR   UNL     1      39.835  -6.959   5.440  1.00  0.00    -0.048 Br
HETATM    4  C   UNL     1      40.704  -9.659   5.245  1.00  0.00     0.035 A 
HETATM    5  C   UNL     1      41.497 -10.745   5.578  1.00  0.00    -0.011 A 
HETATM    6  C   UNL     1      42.488 -10.616   6.572  1.00  0.00     0.009 A 
HETATM    7  C   UNL     1      43.144 -11.945   6.711  1.00  0.00     0.093 A 
HETATM    8  N   UNL     1      44.090 -12.387   7.479  1.00  0.00    -0.203 NA
HETATM    9  C   UNL     1      42.488 -12.836   5.725  1.00  0.00     0.009 A 
HETATM   10  C   UNL     1      41.506 -12.097   5.057  1.00  0.00    -0.011 A 
HETATM   11  C   UNL     1      42.758 -14.171   5.463  1.00  0.00     0.053 A 
HETATM   12  C   UNL     1      41.996 -14.803   4.479  1.00  0.00     0.087 A 
HETATM   13  C   UNL     1      41.012 -14.061   3.779  1.00  0.00     0.045 A 
HETATM   14 BR   UNL     1      39.975 -14.883   2.412  1.00  0.00    -0.048 Br
HETATM   15  C   UNL     1      40.757 -12.708   4.067  1.00  0.00     0.035 A 
HETATM   16  C   UNL     1      42.727  -9.417   7.224  1.00  0.00     0.053 A 
ENDROOT
BRANCH   1  17
HETATM   17  O   UNL     1      42.105  -7.070   7.457  1.00  0.00    -0.348 OA
BRANCH  17  18
HETATM   18  C   UNL     1      42.650  -7.062   8.782  1.00  0.00     0.203 C 
BRANCH  18  19
HETATM   19  C   UNL     1      41.481  -7.142   9.771  1.00  0.00     0.261 C 
BRANCH  19  20
HETATM   20  N   UNL     1      41.459  -8.472  10.522  1.00  0.00    -0.070 N 
HETATM   21  H   UNL     1      41.184  -9.164   9.805  1.00  0.00     0.279 HD
BRANCH  20  22
HETATM   22  C   UNL     1      40.397  -8.524  11.606  1.00  0.00     0.230 C 
HETATM   23  C   UNL     1      39.952  -9.952  11.864  1.00  0.00     0.034 C 
ENDBRANCH  20  22
BRANCH  20  24
HETATM   24  C   UNL     1      42.808  -8.959  11.018  1.00  0.00     0.230 C 
HETATM   25  C   UNL     1      43.259  -8.240  12.276  1.00  0.00     0.034 C 
ENDBRANCH  20  24
ENDBRANCH  19  20
ENDBRANCH  18  19
ENDBRANCH  17  18
ENDBRANCH   1  17
BRANCH   8  26
HETATM   26  N   UNL     1      44.614 -11.524   8.371  1.00  0.00    -0.226 NA
HETATM   27  H   UNL     1      45.634 -11.520   8.253  1.00  0.00     0.145 HD
HETATM   28  H   UNL     1      44.515 -11.927   9.310  1.00  0.00     0.145 HD
ENDBRANCH   8  26
BRANCH  12  29
HETATM   29  O   UNL     1      42.164 -16.119   4.119  1.00  0.00    -0.348 OA
BRANCH  29  30
HETATM   30  C   UNL     1      43.506 -16.538   3.847  1.00  0.00     0.203 C 
BRANCH  30  31
HETATM   31  C   UNL     1      43.839 -17.696   4.795  1.00  0.00     0.261 C 
BRANCH  31  32
HETATM   32  N   UNL     1      44.362 -18.925   4.045  1.00  0.00    -0.070 N 
HETATM   33  H   UNL     1      45.384 -18.781   4.022  1.00  0.00     0.279 HD
BRANCH  32  34
HETATM   34  C   UNL     1      44.164 -20.245   4.764  1.00  0.00     0.230 C 
HETATM   35  C   UNL     1      43.537 -20.081   6.136  1.00  0.00     0.034 C 
ENDBRANCH  32  34
BRANCH  32  36
HETATM   36  C   UNL     1      43.903 -18.897   2.598  1.00  0.00     0.230 C 
HETATM   37  C   UNL     1      43.315 -20.226   2.162  1.00  0.00     0.034 C 
ENDBRANCH  32  36
ENDBRANCH  31  32
ENDBRANCH  30  31
ENDBRANCH  29  30
ENDBRANCH  12  29
TORSDOF 13
ENDMDL
MODEL 7
REMARK VINA RESULT:      -5.9      3.834      6.994
REMARK  13 active torsions:
REMARK  status: ('A' for Active; 'I' for Inactive)
REMARK    1  A    between atoms: C_2  and  N_3 
REMARK    2  A    between atoms: N_3  and  C_5 
REMARK    3  A    between atoms: N_3  and  C_34 
REMARK    4  A    between atoms: C_5  and  C_6 
REMARK    5  A    between atoms: C_6  and  O_7 
REMARK    6  A    between atoms: O_7  and  C_8 
REMARK    7  A    between atoms: N_15  and  N_16 
REMARK    8  A    between atoms: C_20  and  O_21 
REMARK    9  A    between atoms: O_21  and  C_22 
REMARK   10  A    between atoms: C_22  and  C_23 
REMARK   11  A    between atoms: C_23  and  N_24 
REMARK   12  A    between atoms: N_24  and  C_26 
REMARK   13  A    between atoms: N_24  and  C_28 
ROOT
HETATM    1  C   UNL     1      41.720 -14.799   4.268  1.00  0.00     0.087 A 
HETATM    2  C   UNL     1      41.911 -15.714   3.207  1.00  0.00     0.045 A 
HETATM    3 BR   UNL     1      42.975 -17.272   3.452  1.00  0.00    -0.048 Br
HETATM    4  C   UNL     1      41.313 -15.520   1.952  1.00  0.00     0.035 A 
HETATM    5  C   UNL     1      40.536 -14.388   1.764  1.00  0.00    -0.011 A 
HETATM    6  C   UNL     1      40.380 -13.458   2.811  1.00  0.00     0.009 A 
HETATM    7  C   UNL     1      39.519 -12.358   2.295  1.00  0.00     0.093 A 
HETATM    8  N   UNL     1      39.083 -11.258   2.822  1.00  0.00    -0.203 NA
HETATM    9  C   UNL     1      39.173 -12.723   0.901  1.00  0.00     0.009 A 
HETATM   10  C   UNL     1      39.792 -13.941   0.604  1.00  0.00    -0.011 A 
HETATM   11  C   UNL     1      38.379 -12.023   0.004  1.00  0.00     0.053 A 
HETATM   12  C   UNL     1      38.201 -12.573  -1.266  1.00  0.00     0.087 A 
HETATM   13  C   UNL     1      38.804 -13.819  -1.574  1.00  0.00     0.045 A 
HETATM   14 BR   UNL     1      38.557 -14.613  -3.286  1.00  0.00    -0.048 Br
HETATM   15  C   UNL     1      39.606 -14.506  -0.646  1.00  0.00     0.035 A 
HETATM   16  C   UNL     1      40.959 -13.645   4.057  1.00  0.00     0.053 A 
ENDROOT
BRANCH   1  17
HETATM   17  O   UNL     1      42.338 -15.085   5.462  1.00  0.00    -0.348 OA
BRANCH  17  18
HETATM   18  C   UNL     1      43.594 -14.434   5.692  1.00  0.00     0.203 C 
BRANCH  18  19
HETATM   19  C   UNL     1      43.437 -13.532   6.922  1.00  0.00     0.261 C 
BRANCH  19  20
HETATM   20  N   UNL     1      43.371 -12.054   6.542  1.00  0.00    -0.070 N 
HETATM   21  H   UNL     1      42.360 -11.852   6.477  1.00  0.00     0.279 HD
BRANCH  20  22
HETATM   22  C   UNL     1      43.960 -11.767   5.171  1.00  0.00     0.230 C 
HETATM   23  C   UNL     1      43.044 -10.866   4.364  1.00  0.00     0.034 C 
ENDBRANCH  20  22
BRANCH  20  24
HETATM   24  C   UNL     1      43.881 -11.089   7.597  1.00  0.00     0.230 C 
HETATM   25  C   UNL     1      45.396 -11.060   7.675  1.00  0.00     0.034 C 
ENDBRANCH  20  24
ENDBRANCH  19  20
ENDBRANCH  18  19
ENDBRANCH  17  18
ENDBRANCH   1  17
BRANCH   8  26
HETATM   26  N   UNL     1      39.467 -10.982   4.083  1.00  0.00    -0.226 NA
HETATM   27  H   UNL     1      38.625 -10.808   4.646  1.00  0.00     0.145 HD
HETATM   28  H   UNL     1      39.917 -10.060   4.092  1.00  0.00     0.145 HD
ENDBRANCH   8  26
BRANCH  12  29
HETATM   29  O   UNL     1      37.437 -11.986  -2.246  1.00  0.00    -0.348 OA
BRANCH  29  30
HETATM   30  C   UNL     1      37.695 -10.603  -2.510  1.00  0.00     0.203 C 
BRANCH  30  31
HETATM   31  C   UNL     1      38.994 -10.513  -3.320  1.00  0.00     0.261 C 
BRANCH  31  32
HETATM   32  N   UNL     1      40.091  -9.751  -2.571  1.00  0.00    -0.070 N 
HETATM   33  H   UNL     1      40.524  -9.163  -3.302  1.00  0.00     0.279 HD
BRANCH  32  34
HETATM   34  C   UNL     1      39.593  -8.776  -1.524  1.00  0.00     0.230 C 
HETATM   35  C   UNL     1      40.305  -8.925  -0.192  1.00  0.00     0.034 C 
ENDBRANCH  32  34
BRANCH  32  36
HETATM   36  C   UNL     1      41.176 -10.707  -2.107  1.00  0.00     0.230 C 
HETATM   37  C   UNL     1      41.337 -11.885  -3.048  1.00  0.00     0.034 C 
ENDBRANCH  32  36
ENDBRANCH  31  32
ENDBRANCH  30  31
ENDBRANCH  29  30
ENDBRANCH  12  29
TORSDOF 13
ENDMDL
MODEL 8
REMARK VINA RESULT:      -5.9      1.497      9.292
REMARK  13 active torsions:
REMARK  status: ('A' for Active; 'I' for Inactive)
REMARK    1  A    between atoms: C_2  and  N_3 
REMARK    2  A    between atoms: N_3  and  C_5 
REMARK    3  A    between atoms: N_3  and  C_34 
REMARK    4  A    between atoms: C_5  and  C_6 
REMARK    5  A    between atoms: C_6  and  O_7 
REMARK    6  A    between atoms: O_7  and  C_8 
REMARK    7  A    between atoms: N_15  and  N_16 
REMARK    8  A    between atoms: C_20  and  O_21 
REMARK    9  A    between atoms: O_21  and  C_22 
REMARK   10  A    between atoms: C_22  and  C_23 
REMARK   11  A    between atoms: C_23  and  N_24 
REMARK   12  A    between atoms: N_24  and  C_26 
REMARK   13  A    between atoms: N_24  and  C_28 
ROOT
HETATM    1  C   UNL     1      41.404 -14.657   3.689  1.00  0.00     0.087 A 
HETATM    2  C   UNL     1      42.549 -15.004   4.443  1.00  0.00     0.045 A 
HETATM    3 BR   UNL     1      43.382 -16.699   4.213  1.00  0.00    -0.048 Br
HETATM    4  C   UNL     1      43.120 -14.113   5.365  1.00  0.00     0.035 A 
HETATM    5  C   UNL     1      42.521 -12.876   5.539  1.00  0.00    -0.011 A 
HETATM    6  C   UNL     1      41.358 -12.548   4.815  1.00  0.00     0.009 A 
HETATM    7  C   UNL     1      40.952 -11.179   5.236  1.00  0.00     0.093 A 
HETATM    8  N   UNL     1      39.960 -10.411   4.906  1.00  0.00    -0.203 NA
HETATM    9  C   UNL     1      41.962 -10.732   6.224  1.00  0.00     0.009 A 
HETATM   10  C   UNL     1      42.892 -11.764   6.390  1.00  0.00    -0.011 A 
HETATM   11  C   UNL     1      42.027  -9.521   6.895  1.00  0.00     0.053 A 
HETATM   12  C   UNL     1      43.082  -9.333   7.789  1.00  0.00     0.087 A 
HETATM   13  C   UNL     1      44.045 -10.361   7.952  1.00  0.00     0.045 A 
HETATM   14 BR   UNL     1      45.513 -10.128   9.140  1.00  0.00    -0.048 Br
HETATM   15  C   UNL     1      43.953 -11.582   7.260  1.00  0.00     0.035 A 
HETATM   16  C   UNL     1      40.791 -13.417   3.895  1.00  0.00     0.053 A 
ENDROOT
BRANCH   1  17
HETATM   17  O   UNL     1      40.929 -15.593   2.802  1.00  0.00    -0.348 OA
BRANCH  17  18
HETATM   18  C   UNL     1      41.176 -15.329   1.416  1.00  0.00     0.203 C 
BRANCH  18  19
HETATM   19  C   UNL     1      39.824 -15.330   0.690  1.00  0.00     0.261 C 
BRANCH  19  20
HETATM   20  N   UNL     1      39.572 -14.016  -0.047  1.00  0.00    -0.070 N 
HETATM   21  H   UNL     1      38.781 -13.587   0.462  1.00  0.00     0.279 HD
BRANCH  20  22
HETATM   22  C   UNL     1      39.110 -14.218  -1.479  1.00  0.00     0.230 C 
HETATM   23  C   UNL     1      40.199 -13.830  -2.462  1.00  0.00     0.034 C 
ENDBRANCH  20  22
BRANCH  20  24
HETATM   24  C   UNL     1      40.686 -12.990   0.056  1.00  0.00     0.230 C 
HETATM   25  C   UNL     1      40.206 -11.666   0.623  1.00  0.00     0.034 C 
ENDBRANCH  20  24
ENDBRANCH  19  20
ENDBRANCH  18  19
ENDBRANCH  17  18
ENDBRANCH   1  17
BRANCH   8  26
HETATM   26  N   UNL     1      39.067 -10.901   4.024  1.00  0.00    -0.226 NA
HETATM   27  H   UNL     1      39.411 -10.707   3.076  1.00  0.00     0.145 HD
HETATM   28  H   UNL     1      38.221 -10.321   4.062  1.00  0.00     0.145 HD
ENDBRANCH   8  26
BRANCH  12  29
HETATM   29  O   UNL     1      43.266  -8.180   8.514  1.00  0.00    -0.348 OA
BRANCH  29  30
HETATM   30  C   UNL     1      42.180  -7.777   9.355  1.00  0.00     0.203 C 
BRANCH  30  31
HETATM   31  C   UNL     1      42.771  -7.266  10.674  1.00  0.00     0.261 C 
BRANCH  31  32
HETATM   32  N   UNL     1      42.309  -8.097  11.874  1.00  0.00    -0.070 N 
HETATM   33  H   UNL     1      41.386  -7.696  12.109  1.00  0.00     0.279 HD
BRANCH  32  34
HETATM   34  C   UNL     1      42.041  -9.559  11.577  1.00  0.00     0.230 C 
HETATM   35  C   UNL     1      43.199 -10.461  11.961  1.00  0.00     0.034 C 
ENDBRANCH  32  34
BRANCH  32  36
HETATM   36  C   UNL     1      43.199  -7.830  13.076  1.00  0.00     0.230 C 
HETATM   37  C   UNL     1      42.408  -7.787  14.370  1.00  0.00     0.034 C 
ENDBRANCH  32  36
ENDBRANCH  31  32
ENDBRANCH  30  31
ENDBRANCH  29  30
ENDBRANCH  12  29
TORSDOF 13
ENDMDL
MODEL 9
REMARK VINA RESULT:      -5.9      2.897      9.354
REMARK  13 active torsions:
REMARK  status: ('A' for Active; 'I' for Inactive)
REMARK    1  A    between atoms: C_2  and  N_3 
REMARK    2  A    between atoms: N_3  and  C_5 
REMARK    3  A    between atoms: N_3  and  C_34 
REMARK    4  A    between atoms: C_5  and  C_6 
REMARK    5  A    between atoms: C_6  and  O_7 
REMARK    6  A    between atoms: O_7  and  C_8 
REMARK    7  A    between atoms: N_15  and  N_16 
REMARK    8  A    between atoms: C_20  and  O_21 
REMARK    9  A    between atoms: O_21  and  C_22 
REMARK   10  A    between atoms: C_22  and  C_23 
REMARK   11  A    between atoms: C_23  and  N_24 
REMARK   12  A    between atoms: N_24  and  C_26 
REMARK   13  A    between atoms: N_24  and  C_28 
ROOT
HETATM    1  C   UNL     1      41.945 -14.390   2.574  1.00  0.00     0.087 A 
HETATM    2  C   UNL     1      41.409 -13.215   1.998  1.00  0.00     0.045 A 
HETATM    3 BR   UNL     1      40.687 -13.243   0.238  1.00  0.00    -0.048 Br
HETATM    4  C   UNL     1      41.372 -12.002   2.702  1.00  0.00     0.035 A 
HETATM    5  C   UNL     1      41.895 -11.972   3.985  1.00  0.00    -0.011 A 
HETATM    6  C   UNL     1      42.464 -13.135   4.542  1.00  0.00     0.009 A 
HETATM    7  C   UNL     1      42.949 -12.776   5.903  1.00  0.00     0.093 A 
HETATM    8  N   UNL     1      43.559 -13.449   6.828  1.00  0.00    -0.203 NA
HETATM    9  C   UNL     1      42.605 -11.349   6.102  1.00  0.00     0.009 A 
HETATM   10  C   UNL     1      41.975 -10.888   4.942  1.00  0.00    -0.011 A 
HETATM   11  C   UNL     1      42.839 -10.559   7.218  1.00  0.00     0.053 A 
HETATM   12  C   UNL     1      42.422  -9.228   7.166  1.00  0.00     0.087 A 
HETATM   13  C   UNL     1      41.762  -8.752   6.004  1.00  0.00     0.045 A 
HETATM   14 BR   UNL     1      41.153  -6.951   5.911  1.00  0.00    -0.048 Br
HETATM   15  C   UNL     1      41.540  -9.575   4.886  1.00  0.00     0.035 A 
HETATM   16  C   UNL     1      42.497 -14.341   3.858  1.00  0.00     0.053 A 
ENDROOT
BRANCH   1  17
HETATM   17  O   UNL     1      41.923 -15.532   1.808  1.00  0.00    -0.348 OA
BRANCH  17  18
HETATM   18  C   UNL     1      43.126 -16.311   1.809  1.00  0.00     0.203 C 
BRANCH  18  19
HETATM   19  C   UNL     1      42.772 -17.718   2.307  1.00  0.00     0.261 C 
BRANCH  19  20
HETATM   20  N   UNL     1      43.879 -18.309   3.178  1.00  0.00    -0.070 N 
HETATM   21  H   UNL     1      44.754 -18.020   2.709  1.00  0.00     0.279 HD
BRANCH  20  22
HETATM   22  C   UNL     1      43.875 -19.828   3.193  1.00  0.00     0.230 C 
HETATM   23  C   UNL     1      43.444 -20.384   1.848  1.00  0.00     0.034 C 
ENDBRANCH  20  22
BRANCH  20  24
HETATM   24  C   UNL     1      43.989 -17.722   4.574  1.00  0.00     0.230 C 
HETATM   25  C   UNL     1      43.765 -18.759   5.659  1.00  0.00     0.034 C 
ENDBRANCH  20  24
ENDBRANCH  19  20
ENDBRANCH  18  19
ENDBRANCH  17  18
ENDBRANCH   1  17
BRANCH   8  26
HETATM   26  N   UNL     1      43.865 -14.732   6.559  1.00  0.00    -0.226 NA
HETATM   27  H   UNL     1      44.825 -14.908   6.878  1.00  0.00     0.145 HD
HETATM   28  H   UNL     1      43.961 -14.838   5.542  1.00  0.00     0.145 HD
ENDBRANCH   8  26
BRANCH  12  29
HETATM   29  O   UNL     1      42.588  -8.340   8.202  1.00  0.00    -0.348 OA
BRANCH  29  30
HETATM   30  C   UNL     1      43.046  -8.889   9.443  1.00  0.00     0.203 C 
BRANCH  30  31
HETATM   31  C   UNL     1      42.006  -8.553  10.517  1.00  0.00     0.261 C 
BRANCH  31  32
HETATM   32  N   UNL     1      41.423  -9.810  11.172  1.00  0.00    -0.070 N 
HETATM   33  H   UNL     1      41.793 -10.581  10.593  1.00  0.00     0.279 HD
BRANCH  32  34
HETATM   34  C   UNL     1      41.925 -10.092  12.574  1.00  0.00     0.230 C 
HETATM   35  C   UNL     1      42.543  -8.874  13.236  1.00  0.00     0.034 C 
ENDBRANCH  32  34
BRANCH  32  36
HETATM   36  C   UNL     1      39.915  -9.845  11.001  1.00  0.00     0.230 C 
HETATM   37  C   UNL     1      39.371  -8.526  10.485  1.00  0.00     0.034 C 
ENDBRANCH  32  36
ENDBRANCH  31  32
ENDBRANCH  30  31
ENDBRANCH  29  30
ENDBRANCH  12  29
TORSDOF 13
ENDMDL
MODEL 10
REMARK VINA RESULT:      -5.8      3.151      8.771
REMARK  13 active torsions:
REMARK  status: ('A' for Active; 'I' for Inactive)
REMARK    1  A    between atoms: C_2  and  N_3 
REMARK    2  A    between atoms: N_3  and  C_5 
REMARK    3  A    between atoms: N_3  and  C_34 
REMARK    4  A    between atoms: C_5  and  C_6 
REMARK    5  A    between atoms: C_6  and  O_7 
REMARK    6  A    between atoms: O_7  and  C_8 
REMARK    7  A    between atoms: N_15  and  N_16 
REMARK    8  A    between atoms: C_20  and  O_21 
REMARK    9  A    between atoms: O_21  and  C_22 
REMARK   10  A    between atoms: C_22  and  C_23 
REMARK   11  A    between atoms: C_23  and  N_24 
REMARK   12  A    between atoms: N_24  and  C_26 
REMARK   13  A    between atoms: N_24  and  C_28 
ROOT
HETATM    1  C   UNL     1      40.124 -13.439   1.909  1.00  0.00     0.087 A 
HETATM    2  C   UNL     1      40.125 -12.089   1.491  1.00  0.00     0.045 A 
HETATM    3 BR   UNL     1      40.345 -11.645  -0.346  1.00  0.00    -0.048 Br
HETATM    4  C   UNL     1      39.945 -11.037   2.402  1.00  0.00     0.035 A 
HETATM    5  C   UNL     1      39.784 -11.350   3.742  1.00  0.00    -0.011 A 
HETATM    6  C   UNL     1      39.822 -12.695   4.161  1.00  0.00     0.009 A 
HETATM    7  C   UNL     1      39.643 -12.697   5.639  1.00  0.00     0.093 A 
HETATM    8  N   UNL     1      39.617 -13.645   6.523  1.00  0.00    -0.203 NA
HETATM    9  C   UNL     1      39.475 -11.281   6.039  1.00  0.00     0.009 A 
HETATM   10  C   UNL     1      39.563 -10.491   4.888  1.00  0.00    -0.011 A 
HETATM   11  C   UNL     1      39.265 -10.768   7.310  1.00  0.00     0.053 A 
HETATM   12  C   UNL     1      39.140  -9.383   7.436  1.00  0.00     0.087 A 
HETATM   13  C   UNL     1      39.205  -8.572   6.275  1.00  0.00     0.045 A 
HETATM   14 BR   UNL     1      39.009  -6.684   6.406  1.00  0.00    -0.048 Br
HETATM   15  C   UNL     1      39.421  -9.119   4.998  1.00  0.00     0.035 A 
HETATM   16  C   UNL     1      39.990 -13.742   3.268  1.00  0.00     0.053 A 
ENDROOT
BRANCH   1  17
HETATM   17  O   UNL     1      40.294 -14.398   0.939  1.00  0.00    -0.348 OA
BRANCH  17  18
HETATM   18  C   UNL     1      40.437 -15.745   1.404  1.00  0.00     0.203 C 
BRANCH  18  19
HETATM   19  C   UNL     1      41.920 -15.976   1.725  1.00  0.00     0.261 C 
BRANCH  19  20
HETATM   20  N   UNL     1      42.116 -17.110   2.729  1.00  0.00    -0.070 N 
HETATM   21  H   UNL     1      41.169 -17.505   2.855  1.00  0.00     0.279 HD
BRANCH  20  22
HETATM   22  C   UNL     1      42.570 -16.623   4.094  1.00  0.00     0.230 C 
HETATM   23  C   UNL     1      43.091 -15.200   4.018  1.00  0.00     0.034 C 
ENDBRANCH  20  22
BRANCH  20  24
HETATM   24  C   UNL     1      42.948 -18.279   2.232  1.00  0.00     0.230 C 
HETATM   25  C   UNL     1      43.981 -18.730   3.247  1.00  0.00     0.034 C 
ENDBRANCH  20  24
ENDBRANCH  19  20
ENDBRANCH  18  19
ENDBRANCH  17  18
ENDBRANCH   1  17
BRANCH   8  26
HETATM   26  N   UNL     1      39.808 -14.904   6.085  1.00  0.00    -0.226 NA
HETATM   27  H   UNL     1      39.006 -15.473   6.381  1.00  0.00     0.145 HD
HETATM   28  H   UNL     1      40.572 -15.325   6.625  1.00  0.00     0.145 HD
ENDBRANCH   8  26
BRANCH  12  29
HETATM   29  O   UNL     1      38.925  -8.748   8.636  1.00  0.00    -0.348 OA
BRANCH  29  30
HETATM   30  C   UNL     1      39.785  -9.122   9.717  1.00  0.00     0.203 C 
BRANCH  30  31
HETATM   31  C   UNL     1      41.210  -8.688   9.356  1.00  0.00     0.261 C 
BRANCH  31  32
HETATM   32  N   UNL     1      42.246  -9.761   9.703  1.00  0.00    -0.070 N 
HETATM   33  H   UNL     1      41.724 -10.647   9.606  1.00  0.00     0.279 HD
BRANCH  32  34
HETATM   34  C   UNL     1      43.401  -9.874   8.728  1.00  0.00     0.230 C 
HETATM   35  C   UNL     1      42.952  -9.869   7.279  1.00  0.00     0.034 C 
ENDBRANCH  32  34
BRANCH  32  36
HETATM   36  C   UNL     1      42.638  -9.664  11.167  1.00  0.00     0.230 C 
HETATM   37  C   UNL     1      43.626 -10.745  11.564  1.00  0.00     0.034 C 
ENDBRANCH  32  36
ENDBRANCH  31  32
ENDBRANCH  30  31
ENDBRANCH  29  30
ENDBRANCH  12  29
TORSDOF 13
ENDMDL
