MODEL 1
REMARK VINA RESULT:      -8.7      0.000      0.000
REMARK  8 active torsions:
REMARK  status: ('A' for Active; 'I' for Inactive)
REMARK    1  A    between atoms: C_4  and  N_5 
REMARK       I    between atoms: N_5  and  C_6 
REMARK    2  A    between atoms: C_6  and  C_7 
REMARK    3  A    between atoms: C_7  and  N_8 
REMARK       I    between atoms: N_8  and  C_9 
REMARK    4  A    between atoms: C_9  and  C_10 
REMARK    5  A    between atoms: C_10  and  S_11 
REMARK    6  A    between atoms: S_11  and  C_12 
REMARK    7  A    between atoms: C_14  and  C_15 
REMARK    8  A    between atoms: C_27  and  O_28 
ROOT
HETATM    1  N   UNL     1      41.946 -12.662   3.299  1.00  0.00    -0.352 N 
HETATM    2  C   UNL     1      41.621 -12.767   4.638  1.00  0.00     0.227 C 
HETATM    3  O   UNL     1      40.978 -13.723   5.064  1.00  0.00    -0.273 OA
HETATM    4  H   UNL     1      42.665 -12.007   3.011  1.00  0.00     0.162 HD
ENDROOT
BRANCH   2   5
HETATM    5  C   UNL     1      42.122 -11.594   5.468  1.00  0.00     0.185 C 
BRANCH   5   6
HETATM    6  S   UNL     1      43.924 -11.404   5.364  1.00  0.00    -0.081 SA
BRANCH   6   7
HETATM    7  C   UNL     1      44.270 -10.996   6.996  1.00  0.00     0.185 A 
HETATM    8  N   UNL     1      43.468 -10.485   7.893  1.00  0.00    -0.201 NA
HETATM    9  C   UNL     1      44.264 -10.386   9.017  1.00  0.00     0.185 A 
HETATM   10  N   UNL     1      45.524 -10.824   8.824  1.00  0.00    -0.152 NA
HETATM   11  N   UNL     1      45.496 -11.200   7.534  1.00  0.00    -0.253 N 
HETATM   12  H   UNL     1      46.323 -11.584   7.096  1.00  0.00     0.191 HD
BRANCH   9  13
HETATM   13  C   UNL     1      43.778  -9.869  10.292  1.00  0.00     0.052 A 
HETATM   14  C   UNL     1      43.638  -8.495  10.523  1.00  0.00     0.130 A 
HETATM   15  F   UNL     1      43.950  -7.592   9.581  1.00  0.00    -0.205 F 
HETATM   16  C   UNL     1      43.170  -8.011  11.746  1.00  0.00     0.043 A 
HETATM   17  C   UNL     1      42.832  -8.898  12.766  1.00  0.00     0.003 A 
HETATM   18  C   UNL     1      42.964 -10.269  12.558  1.00  0.00     0.001 A 
HETATM   19  C   UNL     1      43.434 -10.750  11.331  1.00  0.00     0.018 A 
ENDBRANCH   9  13
ENDBRANCH   6   7
ENDBRANCH   5   6
ENDBRANCH   2   5
BRANCH   1  20
HETATM   20  C   UNL     1      41.565 -13.699   2.357  1.00  0.00     0.225 C 
BRANCH  20  21
HETATM   21  C   UNL     1      42.595 -14.831   2.350  1.00  0.00     0.239 C 
HETATM   22  N   UNL     1      42.232 -15.882   3.166  1.00  0.00    -0.323 N 
HETATM   23  H   UNL     1      41.411 -15.750   3.764  1.00  0.00     0.169 HD
HETATM   24  O   UNL     1      43.637 -14.721   1.709  1.00  0.00    -0.271 OA
BRANCH  22  25
HETATM   25  C   UNL     1      42.900 -17.111   3.364  1.00  0.00     0.069 A 
HETATM   26  C   UNL     1      42.909 -18.142   2.420  1.00  0.00     0.039 A 
HETATM   27  C   UNL     1      43.587 -19.343   2.677  1.00  0.00    -0.060 A 
HETATM   28  C   UNL     1      43.556 -20.457   1.672  1.00  0.00     0.048 C 
HETATM   29  C   UNL     1      44.236 -19.512   3.902  1.00  0.00     0.009 A 
HETATM   30  C   UNL     1      44.231 -18.490   4.856  1.00  0.00     0.039 A 
HETATM   31  C   UNL     1      43.564 -17.291   4.595  1.00  0.00     0.095 A 
BRANCH  31  32
HETATM   32  O   UNL     1      43.488 -16.229   5.465  1.00  0.00    -0.354 OA
HETATM   33  C   UNL     1      44.171 -16.352   6.706  1.00  0.00     0.210 C 
ENDBRANCH  31  32
ENDBRANCH  22  25
ENDBRANCH  20  21
ENDBRANCH   1  20
TORSDOF 8
ENDMDL
MODEL 2
REMARK VINA RESULT:      -8.6      3.120      9.468
REMARK  8 active torsions:
REMARK  status: ('A' for Active; 'I' for Inactive)
REMARK    1  A    between atoms: C_4  and  N_5 
REMARK       I    between atoms: N_5  and  C_6 
REMARK    2  A    between atoms: C_6  and  C_7 
REMARK    3  A    between atoms: C_7  and  N_8 
REMARK       I    between atoms: N_8  and  C_9 
REMARK    4  A    between atoms: C_9  and  C_10 
REMARK    5  A    between atoms: C_10  and  S_11 
REMARK    6  A    between atoms: S_11  and  C_12 
REMARK    7  A    between atoms: C_14  and  C_15 
REMARK    8  A    between atoms: C_27  and  O_28 
ROOT
HETATM    1  N   UNL     1      40.929 -11.202   5.422  1.00  0.00    -0.352 N 
HETATM    2  C   UNL     1      40.182 -12.361   5.514  1.00  0.00     0.227 C 
HETATM    3  O   UNL     1      39.092 -12.374   6.080  1.00  0.00    -0.273 OA
HETATM    4  H   UNL     1      41.695 -11.155   4.759  1.00  0.00     0.162 HD
ENDROOT
BRANCH   2   5
HETATM    5  C   UNL     1      40.861 -13.562   4.871  1.00  0.00     0.185 C 
BRANCH   5   6
HETATM    6  S   UNL     1      42.521 -13.162   4.259  1.00  0.00    -0.081 SA
BRANCH   6   7
HETATM    7  C   UNL     1      42.928 -14.656   3.516  1.00  0.00     0.185 A 
HETATM    8  N   UNL     1      42.988 -15.842   4.059  1.00  0.00    -0.201 NA
HETATM    9  C   UNL     1      43.340 -16.662   3.004  1.00  0.00     0.185 A 
HETATM   10  N   UNL     1      43.493 -16.002   1.839  1.00  0.00    -0.152 NA
HETATM   11  N   UNL     1      43.228 -14.734   2.198  1.00  0.00    -0.253 N 
HETATM   12  H   UNL     1      43.262 -13.992   1.511  1.00  0.00     0.191 HD
BRANCH   9  13
HETATM   13  C   UNL     1      43.515 -18.104   3.142  1.00  0.00     0.052 A 
HETATM   14  C   UNL     1      44.102 -18.668   4.280  1.00  0.00     0.130 A 
HETATM   15  F   UNL     1      44.534 -17.905   5.295  1.00  0.00    -0.205 F 
HETATM   16  C   UNL     1      44.263 -20.049   4.403  1.00  0.00     0.043 A 
HETATM   17  C   UNL     1      43.837 -20.896   3.381  1.00  0.00     0.003 A 
HETATM   18  C   UNL     1      43.250 -20.356   2.238  1.00  0.00     0.001 A 
HETATM   19  C   UNL     1      43.091 -18.971   2.120  1.00  0.00     0.018 A 
ENDBRANCH   9  13
ENDBRANCH   6   7
ENDBRANCH   5   6
ENDBRANCH   2   5
BRANCH   1  20
HETATM   20  C   UNL     1      40.432  -9.951   5.965  1.00  0.00     0.225 C 
BRANCH  20  21
HETATM   21  C   UNL     1      41.470  -9.308   6.887  1.00  0.00     0.239 C 
HETATM   22  N   UNL     1      41.986 -10.199   7.805  1.00  0.00    -0.323 N 
HETATM   23  H   UNL     1      41.552 -11.124   7.857  1.00  0.00     0.169 HD
HETATM   24  O   UNL     1      41.723  -8.110   6.800  1.00  0.00    -0.271 OA
BRANCH  22  25
HETATM   25  C   UNL     1      42.998  -9.980   8.768  1.00  0.00     0.069 A 
HETATM   26  C   UNL     1      42.775  -9.323   9.981  1.00  0.00     0.039 A 
HETATM   27  C   UNL     1      43.822  -9.132  10.895  1.00  0.00    -0.060 A 
HETATM   28  C   UNL     1      43.579  -8.390  12.177  1.00  0.00     0.048 C 
HETATM   29  C   UNL     1      45.103  -9.583  10.569  1.00  0.00     0.009 A 
HETATM   30  C   UNL     1      45.339 -10.238   9.357  1.00  0.00     0.039 A 
HETATM   31  C   UNL     1      44.294 -10.437   8.453  1.00  0.00     0.095 A 
BRANCH  31  32
HETATM   32  O   UNL     1      44.419 -11.057   7.232  1.00  0.00    -0.354 OA
HETATM   33  C   UNL     1      45.730 -11.194   6.701  1.00  0.00     0.210 C 
ENDBRANCH  31  32
ENDBRANCH  22  25
ENDBRANCH  20  21
ENDBRANCH   1  20
TORSDOF 8
ENDMDL
MODEL 3
REMARK VINA RESULT:      -8.6      1.856      2.393
REMARK  8 active torsions:
REMARK  status: ('A' for Active; 'I' for Inactive)
REMARK    1  A    between atoms: C_4  and  N_5 
REMARK       I    between atoms: N_5  and  C_6 
REMARK    2  A    between atoms: C_6  and  C_7 
REMARK    3  A    between atoms: C_7  and  N_8 
REMARK       I    between atoms: N_8  and  C_9 
REMARK    4  A    between atoms: C_9  and  C_10 
REMARK    5  A    between atoms: C_10  and  S_11 
REMARK    6  A    between atoms: S_11  and  C_12 
REMARK    7  A    between atoms: C_14  and  C_15 
REMARK    8  A    between atoms: C_27  and  O_28 
ROOT
HETATM    1  N   UNL     1      42.457 -12.279   5.000  1.00  0.00    -0.352 N 
HETATM    2  C   UNL     1      43.613 -11.522   5.015  1.00  0.00     0.227 C 
HETATM    3  O   UNL     1      44.318 -11.414   4.015  1.00  0.00    -0.273 OA
HETATM    4  H   UNL     1      41.778 -12.165   5.744  1.00  0.00     0.162 HD
ENDROOT
BRANCH   2   5
HETATM    5  C   UNL     1      43.894 -10.887   6.370  1.00  0.00     0.185 C 
BRANCH   5   6
HETATM    6  S   UNL     1      42.479  -9.931   6.983  1.00  0.00    -0.081 SA
BRANCH   6   7
HETATM    7  C   UNL     1      42.812  -9.961   8.667  1.00  0.00     0.185 A 
HETATM    8  N   UNL     1      42.329  -9.190   9.604  1.00  0.00    -0.201 NA
HETATM    9  C   UNL     1      42.921  -9.672  10.755  1.00  0.00     0.185 A 
HETATM   10  N   UNL     1      43.748 -10.714  10.538  1.00  0.00    -0.152 NA
HETATM   11  N   UNL     1      43.658 -10.871   9.206  1.00  0.00    -0.253 N 
HETATM   12  H   UNL     1      44.182 -11.602   8.742  1.00  0.00     0.191 HD
BRANCH   9  13
HETATM   13  C   UNL     1      42.662  -9.111  12.077  1.00  0.00     0.052 A 
HETATM   14  C   UNL     1      41.625  -9.587  12.887  1.00  0.00     0.130 A 
HETATM   15  F   UNL     1      40.818 -10.579  12.481  1.00  0.00    -0.205 F 
HETATM   16  C   UNL     1      41.388  -9.044  14.152  1.00  0.00     0.043 A 
HETATM   17  C   UNL     1      42.189  -8.009  14.630  1.00  0.00     0.003 A 
HETATM   18  C   UNL     1      43.226  -7.520  13.840  1.00  0.00     0.001 A 
HETATM   19  C   UNL     1      43.461  -8.066  12.574  1.00  0.00     0.018 A 
ENDBRANCH   9  13
ENDBRANCH   6   7
ENDBRANCH   5   6
ENDBRANCH   2   5
BRANCH   1  20
HETATM   20  C   UNL     1      42.020 -12.946   3.787  1.00  0.00     0.225 C 
BRANCH  20  21
HETATM   21  C   UNL     1      41.922 -14.457   4.003  1.00  0.00     0.239 C 
HETATM   22  N   UNL     1      43.110 -15.108   3.741  1.00  0.00    -0.323 N 
HETATM   23  H   UNL     1      43.866 -14.556   3.327  1.00  0.00     0.169 HD
HETATM   24  O   UNL     1      40.854 -14.973   4.319  1.00  0.00    -0.271 OA
BRANCH  22  25
HETATM   25  C   UNL     1      43.409 -16.482   3.886  1.00  0.00     0.069 A 
HETATM   26  C   UNL     1      43.258 -17.415   2.856  1.00  0.00     0.039 A 
HETATM   27  C   UNL     1      43.568 -18.767   3.064  1.00  0.00    -0.060 A 
HETATM   28  C   UNL     1      43.364 -19.766   1.962  1.00  0.00     0.048 C 
HETATM   29  C   UNL     1      44.007 -19.181   4.323  1.00  0.00     0.009 A 
HETATM   30  C   UNL     1      44.158 -18.259   5.363  1.00  0.00     0.039 A 
HETATM   31  C   UNL     1      43.859 -16.911   5.152  1.00  0.00     0.095 A 
BRANCH  31  32
HETATM   32  O   UNL     1      43.962 -15.925   6.105  1.00  0.00    -0.354 OA
HETATM   33  C   UNL     1      43.190 -16.080   7.289  1.00  0.00     0.210 C 
ENDBRANCH  31  32
ENDBRANCH  22  25
ENDBRANCH  20  21
ENDBRANCH   1  20
TORSDOF 8
ENDMDL
MODEL 4
REMARK VINA RESULT:      -8.4      4.406      8.186
REMARK  8 active torsions:
REMARK  status: ('A' for Active; 'I' for Inactive)
REMARK    1  A    between atoms: C_4  and  N_5 
REMARK       I    between atoms: N_5  and  C_6 
REMARK    2  A    between atoms: C_6  and  C_7 
REMARK    3  A    between atoms: C_7  and  N_8 
REMARK       I    between atoms: N_8  and  C_9 
REMARK    4  A    between atoms: C_9  and  C_10 
REMARK    5  A    between atoms: C_10  and  S_11 
REMARK    6  A    between atoms: S_11  and  C_12 
REMARK    7  A    between atoms: C_14  and  C_15 
REMARK    8  A    between atoms: C_27  and  O_28 
ROOT
HETATM    1  N   UNL     1      42.137 -13.268   6.658  1.00  0.00    -0.352 N 
HETATM    2  C   UNL     1      42.295 -12.670   5.422  1.00  0.00     0.227 C 
HETATM    3  O   UNL     1      43.232 -12.967   4.686  1.00  0.00    -0.273 OA
HETATM    4  H   UNL     1      41.247 -13.189   7.139  1.00  0.00     0.162 HD
ENDROOT
BRANCH   2   5
HETATM    5  C   UNL     1      41.221 -11.636   5.116  1.00  0.00     0.185 C 
BRANCH   5   6
HETATM    6  S   UNL     1      39.699 -12.398   4.487  1.00  0.00    -0.081 SA
BRANCH   6   7
HETATM    7  C   UNL     1      40.083 -12.482   2.815  1.00  0.00     0.185 A 
HETATM    8  N   UNL     1      39.395 -13.032   1.851  1.00  0.00    -0.201 NA
HETATM    9  C   UNL     1      40.161 -12.786   0.728  1.00  0.00     0.185 A 
HETATM   10  N   UNL     1      41.293 -12.102   0.988  1.00  0.00    -0.152 NA
HETATM   11  N   UNL     1      41.214 -11.927   2.319  1.00  0.00    -0.253 N 
HETATM   12  H   UNL     1      41.944 -11.428   2.811  1.00  0.00     0.191 HD
BRANCH   9  13
HETATM   13  C   UNL     1      39.771 -13.218  -0.610  1.00  0.00     0.052 A 
HETATM   14  C   UNL     1      39.473 -14.555  -0.894  1.00  0.00     0.130 A 
HETATM   15  F   UNL     1      39.538 -15.503   0.054  1.00  0.00    -0.205 F 
HETATM   16  C   UNL     1      39.099 -14.957  -2.178  1.00  0.00     0.043 A 
HETATM   17  C   UNL     1      39.015 -14.021  -3.207  1.00  0.00     0.003 A 
HETATM   18  C   UNL     1      39.308 -12.684  -2.947  1.00  0.00     0.001 A 
HETATM   19  C   UNL     1      39.683 -12.286  -1.659  1.00  0.00     0.018 A 
ENDBRANCH   9  13
ENDBRANCH   6   7
ENDBRANCH   5   6
ENDBRANCH   2   5
BRANCH   1  20
HETATM   20  C   UNL     1      43.059 -14.292   7.113  1.00  0.00     0.225 C 
BRANCH  20  21
HETATM   21  C   UNL     1      42.732 -15.641   6.468  1.00  0.00     0.239 C 
HETATM   22  N   UNL     1      43.646 -16.001   5.500  1.00  0.00    -0.323 N 
HETATM   23  H   UNL     1      44.348 -15.303   5.235  1.00  0.00     0.169 HD
HETATM   24  O   UNL     1      41.717 -16.254   6.786  1.00  0.00    -0.271 OA
BRANCH  22  25
HETATM   25  C   UNL     1      43.700 -17.192   4.741  1.00  0.00     0.069 A 
HETATM   26  C   UNL     1      44.000 -18.441   5.292  1.00  0.00     0.039 A 
HETATM   27  C   UNL     1      44.044 -19.588   4.486  1.00  0.00    -0.060 A 
HETATM   28  C   UNL     1      44.405 -20.917   5.082  1.00  0.00     0.048 C 
HETATM   29  C   UNL     1      43.808 -19.467   3.114  1.00  0.00     0.009 A 
HETATM   30  C   UNL     1      43.511 -18.223   2.551  1.00  0.00     0.039 A 
HETATM   31  C   UNL     1      43.458 -17.083   3.356  1.00  0.00     0.095 A 
BRANCH  31  32
HETATM   32  O   UNL     1      43.187 -15.814   2.904  1.00  0.00    -0.354 OA
HETATM   33  C   UNL     1      42.344 -15.693   1.766  1.00  0.00     0.210 C 
ENDBRANCH  31  32
ENDBRANCH  22  25
ENDBRANCH  20  21
ENDBRANCH   1  20
TORSDOF 8
ENDMDL
MODEL 5
REMARK VINA RESULT:      -8.3      3.081     10.006
REMARK  8 active torsions:
REMARK  status: ('A' for Active; 'I' for Inactive)
REMARK    1  A    between atoms: C_4  and  N_5 
REMARK       I    between atoms: N_5  and  C_6 
REMARK    2  A    between atoms: C_6  and  C_7 
REMARK    3  A    between atoms: C_7  and  N_8 
REMARK       I    between atoms: N_8  and  C_9 
REMARK    4  A    between atoms: C_9  and  C_10 
REMARK    5  A    between atoms: C_10  and  S_11 
REMARK    6  A    between atoms: S_11  and  C_12 
REMARK    7  A    between atoms: C_14  and  C_15 
REMARK    8  A    between atoms: C_27  and  O_28 
ROOT
HETATM    1  N   UNL     1      43.145 -12.308   6.931  1.00  0.00    -0.352 N 
HETATM    2  C   UNL     1      42.363 -12.181   5.798  1.00  0.00     0.227 C 
HETATM    3  O   UNL     1      42.733 -11.506   4.841  1.00  0.00    -0.273 OA
HETATM    4  H   UNL     1      42.940 -13.044   7.597  1.00  0.00     0.162 HD
ENDROOT
BRANCH   2   5
HETATM    5  C   UNL     1      41.043 -12.932   5.896  1.00  0.00     0.185 C 
BRANCH   5   6
HETATM    6  S   UNL     1      40.378 -13.361   4.263  1.00  0.00    -0.081 SA
BRANCH   6   7
HETATM    7  C   UNL     1      41.547 -14.516   3.765  1.00  0.00     0.185 A 
HETATM    8  N   UNL     1      41.558 -15.805   3.982  1.00  0.00    -0.201 NA
HETATM    9  C   UNL     1      42.708 -16.228   3.344  1.00  0.00     0.185 A 
HETATM   10  N   UNL     1      43.390 -15.231   2.747  1.00  0.00    -0.152 NA
HETATM   11  N   UNL     1      42.630 -14.160   3.035  1.00  0.00    -0.253 N 
HETATM   12  H   UNL     1      42.898 -13.242   2.705  1.00  0.00     0.191 HD
BRANCH   9  13
HETATM   13  C   UNL     1      43.130 -17.624   3.312  1.00  0.00     0.052 A 
HETATM   14  C   UNL     1      43.834 -18.204   4.375  1.00  0.00     0.130 A 
HETATM   15  F   UNL     1      44.155 -17.498   5.469  1.00  0.00    -0.205 F 
HETATM   16  C   UNL     1      44.232 -19.542   4.335  1.00  0.00     0.043 A 
HETATM   17  C   UNL     1      43.931 -20.328   3.224  1.00  0.00     0.003 A 
HETATM   18  C   UNL     1      43.233 -19.771   2.155  1.00  0.00     0.001 A 
HETATM   19  C   UNL     1      42.836 -18.431   2.199  1.00  0.00     0.018 A 
ENDBRANCH   9  13
ENDBRANCH   6   7
ENDBRANCH   5   6
ENDBRANCH   2   5
BRANCH   1  20
HETATM   20  C   UNL     1      44.448 -11.673   7.011  1.00  0.00     0.225 C 
BRANCH  20  21
HETATM   21  C   UNL     1      44.566 -10.835   8.285  1.00  0.00     0.239 C 
HETATM   22  N   UNL     1      43.482 -10.002   8.474  1.00  0.00    -0.323 N 
HETATM   23  H   UNL     1      42.799  -9.941   7.713  1.00  0.00     0.169 HD
HETATM   24  O   UNL     1      45.572 -10.903   8.985  1.00  0.00    -0.271 OA
BRANCH  22  25
HETATM   25  C   UNL     1      43.218  -9.135   9.558  1.00  0.00     0.069 A 
HETATM   26  C   UNL     1      43.046  -9.578  10.873  1.00  0.00     0.039 A 
HETATM   27  C   UNL     1      42.781  -8.668  11.907  1.00  0.00    -0.060 A 
HETATM   28  C   UNL     1      42.560  -9.160  13.307  1.00  0.00     0.048 C 
HETATM   29  C   UNL     1      42.664  -7.309  11.606  1.00  0.00     0.009 A 
HETATM   30  C   UNL     1      42.830  -6.854  10.295  1.00  0.00     0.039 A 
HETATM   31  C   UNL     1      43.104  -7.760   9.268  1.00  0.00     0.095 A 
BRANCH  31  32
HETATM   32  O   UNL     1      43.273  -7.422   7.946  1.00  0.00    -0.354 OA
HETATM   33  C   UNL     1      42.151  -6.878   7.263  1.00  0.00     0.210 C 
ENDBRANCH  31  32
ENDBRANCH  22  25
ENDBRANCH  20  21
ENDBRANCH   1  20
TORSDOF 8
ENDMDL
MODEL 6
REMARK VINA RESULT:      -8.2      3.413     10.192
REMARK  8 active torsions:
REMARK  status: ('A' for Active; 'I' for Inactive)
REMARK    1  A    between atoms: C_4  and  N_5 
REMARK       I    between atoms: N_5  and  C_6 
REMARK    2  A    between atoms: C_6  and  C_7 
REMARK    3  A    between atoms: C_7  and  N_8 
REMARK       I    between atoms: N_8  and  C_9 
REMARK    4  A    between atoms: C_9  and  C_10 
REMARK    5  A    between atoms: C_10  and  S_11 
REMARK    6  A    between atoms: S_11  and  C_12 
REMARK    7  A    between atoms: C_14  and  C_15 
REMARK    8  A    between atoms: C_27  and  O_28 
ROOT
HETATM    1  N   UNL     1      40.010 -10.448   7.569  1.00  0.00    -0.352 N 
HETATM    2  C   UNL     1      39.749 -11.306   6.517  1.00  0.00     0.227 C 
HETATM    3  O   UNL     1      38.697 -11.937   6.455  1.00  0.00    -0.273 OA
HETATM    4  H   UNL     1      40.759  -9.770   7.484  1.00  0.00     0.162 HD
ENDROOT
BRANCH   2   5
HETATM    5  C   UNL     1      40.885 -11.376   5.507  1.00  0.00     0.185 C 
BRANCH   5   6
HETATM    6  S   UNL     1      40.349 -12.080   3.923  1.00  0.00    -0.081 SA
BRANCH   6   7
HETATM    7  C   UNL     1      40.783 -13.723   4.171  1.00  0.00     0.185 A 
HETATM    8  N   UNL     1      41.682 -14.430   3.541  1.00  0.00    -0.201 NA
HETATM    9  C   UNL     1      41.617 -15.662   4.161  1.00  0.00     0.185 A 
HETATM   10  N   UNL     1      40.702 -15.718   5.150  1.00  0.00    -0.152 NA
HETATM   11  N   UNL     1      40.190 -14.476   5.129  1.00  0.00    -0.253 N 
HETATM   12  H   UNL     1      39.463 -14.213   5.782  1.00  0.00     0.191 HD
BRANCH   9  13
HETATM   13  C   UNL     1      42.467 -16.787   3.786  1.00  0.00     0.052 A 
HETATM   14  C   UNL     1      43.501 -17.236   4.616  1.00  0.00     0.130 A 
HETATM   15  F   UNL     1      43.759 -16.647   5.794  1.00  0.00    -0.205 F 
HETATM   16  C   UNL     1      44.308 -18.315   4.248  1.00  0.00     0.043 A 
HETATM   17  C   UNL     1      44.093 -18.967   3.036  1.00  0.00     0.003 A 
HETATM   18  C   UNL     1      43.070 -18.536   2.194  1.00  0.00     0.001 A 
HETATM   19  C   UNL     1      42.264 -17.455   2.566  1.00  0.00     0.018 A 
ENDBRANCH   9  13
ENDBRANCH   6   7
ENDBRANCH   5   6
ENDBRANCH   2   5
BRANCH   1  20
HETATM   20  C   UNL     1      39.031 -10.241   8.621  1.00  0.00     0.225 C 
BRANCH  20  21
HETATM   21  C   UNL     1      39.594  -9.331   9.714  1.00  0.00     0.239 C 
HETATM   22  N   UNL     1      40.625  -9.920  10.415  1.00  0.00    -0.323 N 
HETATM   23  H   UNL     1      40.818 -10.908  10.225  1.00  0.00     0.169 HD
HETATM   24  O   UNL     1      39.093  -8.230   9.928  1.00  0.00    -0.271 OA
BRANCH  22  25
HETATM   25  C   UNL     1      41.417  -9.365  11.446  1.00  0.00     0.069 A 
HETATM   26  C   UNL     1      40.959  -9.181  12.753  1.00  0.00     0.039 A 
HETATM   27  C   UNL     1      41.792  -8.619  13.732  1.00  0.00    -0.060 A 
HETATM   28  C   UNL     1      41.275  -8.391  15.122  1.00  0.00     0.048 C 
HETATM   29  C   UNL     1      43.083  -8.219  13.381  1.00  0.00     0.009 A 
HETATM   30  C   UNL     1      43.551  -8.393  12.076  1.00  0.00     0.039 A 
HETATM   31  C   UNL     1      42.725  -8.962  11.105  1.00  0.00     0.095 A 
BRANCH  31  32
HETATM   32  O   UNL     1      43.081  -9.168   9.793  1.00  0.00    -0.354 OA
HETATM   33  C   UNL     1      44.125 -10.098   9.539  1.00  0.00     0.210 C 
ENDBRANCH  31  32
ENDBRANCH  22  25
ENDBRANCH  20  21
ENDBRANCH   1  20
TORSDOF 8
ENDMDL
MODEL 7
REMARK VINA RESULT:      -8.1      4.469      8.531
REMARK  8 active torsions:
REMARK  status: ('A' for Active; 'I' for Inactive)
REMARK    1  A    between atoms: C_4  and  N_5 
REMARK       I    between atoms: N_5  and  C_6 
REMARK    2  A    between atoms: C_6  and  C_7 
REMARK    3  A    between atoms: C_7  and  N_8 
REMARK       I    between atoms: N_8  and  C_9 
REMARK    4  A    between atoms: C_9  and  C_10 
REMARK    5  A    between atoms: C_10  and  S_11 
REMARK    6  A    between atoms: S_11  and  C_12 
REMARK    7  A    between atoms: C_14  and  C_15 
REMARK    8  A    between atoms: C_27  and  O_28 
ROOT
HETATM    1  N   UNL     1      43.942 -10.742   6.681  1.00  0.00    -0.352 N 
HETATM    2  C   UNL     1      43.576 -12.052   6.436  1.00  0.00     0.227 C 
HETATM    3  O   UNL     1      44.301 -12.988   6.765  1.00  0.00    -0.273 OA
HETATM    4  H   UNL     1      43.241 -10.011   6.622  1.00  0.00     0.162 HD
ENDROOT
BRANCH   2   5
HETATM    5  C   UNL     1      42.236 -12.176   5.726  1.00  0.00     0.185 C 
BRANCH   5   6
HETATM    6  S   UNL     1      41.510 -10.557   5.349  1.00  0.00    -0.081 SA
BRANCH   6   7
HETATM    7  C   UNL     1      40.533 -10.341   6.745  1.00  0.00     0.185 A 
HETATM    8  N   UNL     1      40.787  -9.631   7.811  1.00  0.00    -0.201 NA
HETATM    9  C   UNL     1      39.659  -9.804   8.590  1.00  0.00     0.185 A 
HETATM   10  N   UNL     1      38.731 -10.600   8.022  1.00  0.00    -0.152 NA
HETATM   11  N   UNL     1      39.316 -10.925   6.856  1.00  0.00    -0.253 N 
HETATM   12  H   UNL     1      38.840 -11.528   6.197  1.00  0.00     0.191 HD
BRANCH   9  13
HETATM   13  C   UNL     1      39.490  -9.174   9.895  1.00  0.00     0.052 A 
HETATM   14  C   UNL     1      38.972  -7.880  10.025  1.00  0.00     0.130 A 
HETATM   15  F   UNL     1      38.613  -7.159   8.952  1.00  0.00    -0.205 F 
HETATM   16  C   UNL     1      38.812  -7.288  11.279  1.00  0.00     0.043 A 
HETATM   17  C   UNL     1      39.169  -7.984  12.432  1.00  0.00     0.003 A 
HETATM   18  C   UNL     1      39.687  -9.273  12.326  1.00  0.00     0.001 A 
HETATM   19  C   UNL     1      39.846  -9.863  11.068  1.00  0.00     0.018 A 
ENDBRANCH   9  13
ENDBRANCH   6   7
ENDBRANCH   5   6
ENDBRANCH   2   5
BRANCH   1  20
HETATM   20  C   UNL     1      45.183 -10.431   7.367  1.00  0.00     0.225 C 
BRANCH  20  21
HETATM   21  C   UNL     1      45.019  -9.191   8.248  1.00  0.00     0.239 C 
HETATM   22  N   UNL     1      43.820  -9.180   8.930  1.00  0.00    -0.323 N 
HETATM   23  H   UNL     1      43.138  -9.905   8.691  1.00  0.00     0.169 HD
HETATM   24  O   UNL     1      45.878  -8.313   8.254  1.00  0.00    -0.271 OA
BRANCH  22  25
HETATM   25  C   UNL     1      43.353  -8.235   9.871  1.00  0.00     0.069 A 
HETATM   26  C   UNL     1      43.367  -8.452  11.252  1.00  0.00     0.039 A 
HETATM   27  C   UNL     1      42.884  -7.476  12.136  1.00  0.00    -0.060 A 
HETATM   28  C   UNL     1      42.868  -7.738  13.613  1.00  0.00     0.048 C 
HETATM   29  C   UNL     1      42.363  -6.287  11.621  1.00  0.00     0.009 A 
HETATM   30  C   UNL     1      42.339  -6.059  10.242  1.00  0.00     0.039 A 
HETATM   31  C   UNL     1      42.829  -7.027   9.363  1.00  0.00     0.095 A 
BRANCH  31  32
HETATM   32  O   UNL     1      42.843  -6.910   7.993  1.00  0.00    -0.354 OA
HETATM   33  C   UNL     1      41.732  -6.269   7.382  1.00  0.00     0.210 C 
ENDBRANCH  31  32
ENDBRANCH  22  25
ENDBRANCH  20  21
ENDBRANCH   1  20
TORSDOF 8
ENDMDL
MODEL 8
REMARK VINA RESULT:      -8.1      2.028      3.673
REMARK  8 active torsions:
REMARK  status: ('A' for Active; 'I' for Inactive)
REMARK    1  A    between atoms: C_4  and  N_5 
REMARK       I    between atoms: N_5  and  C_6 
REMARK    2  A    between atoms: C_6  and  C_7 
REMARK    3  A    between atoms: C_7  and  N_8 
REMARK       I    between atoms: N_8  and  C_9 
REMARK    4  A    between atoms: C_9  and  C_10 
REMARK    5  A    between atoms: C_10  and  S_11 
REMARK    6  A    between atoms: S_11  and  C_12 
REMARK    7  A    between atoms: C_14  and  C_15 
REMARK    8  A    between atoms: C_27  and  O_28 
ROOT
HETATM    1  N   UNL     1      43.154 -11.614   7.009  1.00  0.00    -0.352 N 
HETATM    2  C   UNL     1      44.432 -11.284   6.599  1.00  0.00     0.227 C 
HETATM    3  O   UNL     1      44.702 -11.140   5.409  1.00  0.00    -0.273 OA
HETATM    4  H   UNL     1      42.899 -11.495   7.983  1.00  0.00     0.162 HD
ENDROOT
BRANCH   2   5
HETATM    5  C   UNL     1      45.414 -11.148   7.753  1.00  0.00     0.185 C 
BRANCH   5   6
HETATM    6  S   UNL     1      46.000  -9.442   7.955  1.00  0.00    -0.081 SA
BRANCH   6   7
HETATM    7  C   UNL     1      44.802  -8.846   9.030  1.00  0.00     0.185 A 
HETATM    8  N   UNL     1      44.503  -9.270  10.229  1.00  0.00    -0.201 NA
HETATM    9  C   UNL     1      43.490  -8.421  10.629  1.00  0.00     0.185 A 
HETATM   10  N   UNL     1      43.169  -7.495   9.703  1.00  0.00    -0.152 NA
HETATM   11  N   UNL     1      44.016  -7.793   8.703  1.00  0.00    -0.253 N 
HETATM   12  H   UNL     1      44.009  -7.248   7.850  1.00  0.00     0.191 HD
BRANCH   9  13
HETATM   13  C   UNL     1      42.842  -8.515  11.932  1.00  0.00     0.052 A 
HETATM   14  C   UNL     1      41.743  -9.354  12.149  1.00  0.00     0.130 A 
HETATM   15  F   UNL     1      41.234 -10.109  11.164  1.00  0.00    -0.205 F 
HETATM   16  C   UNL     1      41.132  -9.438  13.402  1.00  0.00     0.043 A 
HETATM   17  C   UNL     1      41.612  -8.678  14.466  1.00  0.00     0.003 A 
HETATM   18  C   UNL     1      42.704  -7.834  14.273  1.00  0.00     0.001 A 
HETATM   19  C   UNL     1      43.314  -7.753  13.016  1.00  0.00     0.018 A 
ENDBRANCH   9  13
ENDBRANCH   6   7
ENDBRANCH   5   6
ENDBRANCH   2   5
BRANCH   1  20
HETATM   20  C   UNL     1      42.080 -11.768   6.046  1.00  0.00     0.225 C 
BRANCH  20  21
HETATM   21  C   UNL     1      41.868 -13.243   5.700  1.00  0.00     0.239 C 
HETATM   22  N   UNL     1      42.612 -13.644   4.610  1.00  0.00    -0.323 N 
HETATM   23  H   UNL     1      43.111 -12.917   4.090  1.00  0.00     0.169 HD
HETATM   24  O   UNL     1      41.062 -13.921   6.332  1.00  0.00    -0.271 OA
BRANCH  22  25
HETATM   25  C   UNL     1      42.715 -14.935   4.044  1.00  0.00     0.069 A 
HETATM   26  C   UNL     1      43.453 -15.972   4.623  1.00  0.00     0.039 A 
HETATM   27  C   UNL     1      43.522 -17.231   4.010  1.00  0.00    -0.060 A 
HETATM   28  C   UNL     1      44.349 -18.324   4.621  1.00  0.00     0.048 C 
HETATM   29  C   UNL     1      42.864 -17.435   2.795  1.00  0.00     0.009 A 
HETATM   30  C   UNL     1      42.127 -16.406   2.203  1.00  0.00     0.039 A 
HETATM   31  C   UNL     1      42.051 -15.155   2.820  1.00  0.00     0.095 A 
BRANCH  31  32
HETATM   32  O   UNL     1      41.364 -14.073   2.320  1.00  0.00    -0.354 OA
HETATM   33  C   UNL     1      41.204 -13.997   0.910  1.00  0.00     0.210 C 
ENDBRANCH  31  32
ENDBRANCH  22  25
ENDBRANCH  20  21
ENDBRANCH   1  20
TORSDOF 8
ENDMDL
MODEL 9
REMARK VINA RESULT:      -8.1      5.745      8.659
REMARK  8 active torsions:
REMARK  status: ('A' for Active; 'I' for Inactive)
REMARK    1  A    between atoms: C_4  and  N_5 
REMARK       I    between atoms: N_5  and  C_6 
REMARK    2  A    between atoms: C_6  and  C_7 
REMARK    3  A    between atoms: C_7  and  N_8 
REMARK       I    between atoms: N_8  and  C_9 
REMARK    4  A    between atoms: C_9  and  C_10 
REMARK    5  A    between atoms: C_10  and  S_11 
REMARK    6  A    between atoms: S_11  and  C_12 
REMARK    7  A    between atoms: C_14  and  C_15 
REMARK    8  A    between atoms: C_27  and  O_28 
ROOT
HETATM    1  N   UNL     1      41.331 -13.485   0.346  1.00  0.00    -0.352 N 
HETATM    2  C   UNL     1      40.360 -14.369  -0.087  1.00  0.00     0.227 C 
HETATM    3  O   UNL     1      39.862 -15.192   0.677  1.00  0.00    -0.273 OA
HETATM    4  H   UNL     1      41.552 -12.673  -0.221  1.00  0.00     0.162 HD
ENDROOT
BRANCH   2   5
HETATM    5  C   UNL     1      40.020 -14.209  -1.562  1.00  0.00     0.185 C 
BRANCH   5   6
HETATM    6  S   UNL     1      38.439 -13.353  -1.810  1.00  0.00    -0.081 SA
BRANCH   6   7
HETATM    7  C   UNL     1      38.982 -11.724  -1.795  1.00  0.00     0.185 A 
HETATM    8  N   UNL     1      40.178 -11.264  -2.051  1.00  0.00    -0.201 NA
HETATM    9  C   UNL     1      40.035  -9.898  -1.910  1.00  0.00     0.185 A 
HETATM   10  N   UNL     1      38.785  -9.520  -1.575  1.00  0.00    -0.152 NA
HETATM   11  N   UNL     1      38.144 -10.700  -1.507  1.00  0.00    -0.253 N 
HETATM   12  H   UNL     1      37.160 -10.733  -1.273  1.00  0.00     0.191 HD
BRANCH   9  13
HETATM   13  C   UNL     1      41.132  -8.958  -2.116  1.00  0.00     0.052 A 
HETATM   14  C   UNL     1      41.413  -8.422  -3.377  1.00  0.00     0.130 A 
HETATM   15  F   UNL     1      40.686  -8.752  -4.456  1.00  0.00    -0.205 F 
HETATM   16  C   UNL     1      42.464  -7.521  -3.563  1.00  0.00     0.043 A 
HETATM   17  C   UNL     1      43.257  -7.140  -2.483  1.00  0.00     0.003 A 
HETATM   18  C   UNL     1      42.996  -7.663  -1.218  1.00  0.00     0.001 A 
HETATM   19  C   UNL     1      41.942  -8.565  -1.036  1.00  0.00     0.018 A 
ENDBRANCH   9  13
ENDBRANCH   6   7
ENDBRANCH   5   6
ENDBRANCH   2   5
BRANCH   1  20
HETATM   20  C   UNL     1      41.769 -13.479   1.729  1.00  0.00     0.225 C 
BRANCH  20  21
HETATM   21  C   UNL     1      42.797 -14.585   1.977  1.00  0.00     0.239 C 
HETATM   22  N   UNL     1      42.290 -15.619   2.736  1.00  0.00    -0.323 N 
HETATM   23  H   UNL     1      41.360 -15.490   3.143  1.00  0.00     0.169 HD
HETATM   24  O   UNL     1      43.948 -14.470   1.565  1.00  0.00    -0.271 OA
BRANCH  22  25
HETATM   25  C   UNL     1      42.923 -16.825   3.112  1.00  0.00     0.069 A 
HETATM   26  C   UNL     1      42.958 -17.962   2.298  1.00  0.00     0.039 A 
HETATM   27  C   UNL     1      43.599 -19.133   2.730  1.00  0.00    -0.060 A 
HETATM   28  C   UNL     1      43.596 -20.358   1.864  1.00  0.00     0.048 C 
HETATM   29  C   UNL     1      44.182 -19.163   3.999  1.00  0.00     0.009 A 
HETATM   30  C   UNL     1      44.150 -18.035   4.823  1.00  0.00     0.039 A 
HETATM   31  C   UNL     1      43.521 -16.866   4.389  1.00  0.00     0.095 A 
BRANCH  31  32
HETATM   32  O   UNL     1      43.422 -15.707   5.122  1.00  0.00    -0.354 OA
HETATM   33  C   UNL     1      44.020 -15.698   6.411  1.00  0.00     0.210 C 
ENDBRANCH  31  32
ENDBRANCH  22  25
ENDBRANCH  20  21
ENDBRANCH   1  20
TORSDOF 8
ENDMDL
MODEL 10
REMARK VINA RESULT:      -8.1      3.424     10.242
REMARK  8 active torsions:
REMARK  status: ('A' for Active; 'I' for Inactive)
REMARK    1  A    between atoms: C_4  and  N_5 
REMARK       I    between atoms: N_5  and  C_6 
REMARK    2  A    between atoms: C_6  and  C_7 
REMARK    3  A    between atoms: C_7  and  N_8 
REMARK       I    between atoms: N_8  and  C_9 
REMARK    4  A    between atoms: C_9  and  C_10 
REMARK    5  A    between atoms: C_10  and  S_11 
REMARK    6  A    between atoms: S_11  and  C_12 
REMARK    7  A    between atoms: C_14  and  C_15 
REMARK    8  A    between atoms: C_27  and  O_28 
ROOT
HETATM    1  N   UNL     1      44.452 -10.295   7.954  1.00  0.00    -0.352 N 
HETATM    2  C   UNL     1      45.238 -10.925   7.007  1.00  0.00     0.227 C 
HETATM    3  O   UNL     1      46.459 -10.973   7.123  1.00  0.00    -0.273 OA
HETATM    4  H   UNL     1      43.453 -10.468   7.966  1.00  0.00     0.162 HD
ENDROOT
BRANCH   2   5
HETATM    5  C   UNL     1      44.433 -11.505   5.853  1.00  0.00     0.185 C 
BRANCH   5   6
HETATM    6  S   UNL     1      42.683 -11.722   6.280  1.00  0.00    -0.081 SA
BRANCH   6   7
HETATM    7  C   UNL     1      42.506 -13.397   5.948  1.00  0.00     0.185 A 
HETATM    8  N   UNL     1      43.100 -14.109   5.028  1.00  0.00    -0.201 NA
HETATM    9  C   UNL     1      42.600 -15.381   5.232  1.00  0.00     0.185 A 
HETATM   10  N   UNL     1      41.720 -15.455   6.251  1.00  0.00    -0.152 NA
HETATM   11  N   UNL     1      41.681 -14.182   6.681  1.00  0.00    -0.253 N 
HETATM   12  H   UNL     1      41.091 -13.926   7.462  1.00  0.00     0.191 HD
BRANCH   9  13
HETATM   13  C   UNL     1      42.999 -16.530   4.427  1.00  0.00     0.052 A 
HETATM   14  C   UNL     1      43.960 -17.444   4.875  1.00  0.00     0.130 A 
HETATM   15  F   UNL     1      44.561 -17.299   6.066  1.00  0.00    -0.205 F 
HETATM   16  C   UNL     1      44.333 -18.542   4.098  1.00  0.00     0.043 A 
HETATM   17  C   UNL     1      43.747 -18.746   2.850  1.00  0.00     0.003 A 
HETATM   18  C   UNL     1      42.789 -17.849   2.384  1.00  0.00     0.001 A 
HETATM   19  C   UNL     1      42.418 -16.750   3.166  1.00  0.00     0.018 A 
ENDBRANCH   9  13
ENDBRANCH   6   7
ENDBRANCH   5   6
ENDBRANCH   2   5
BRANCH   1  20
HETATM   20  C   UNL     1      45.046  -9.697   9.136  1.00  0.00     0.225 C 
BRANCH  20  21
HETATM   21  C   UNL     1      44.178  -9.955  10.369  1.00  0.00     0.239 C 
HETATM   22  N   UNL     1      43.329  -8.904  10.648  1.00  0.00    -0.323 N 
HETATM   23  H   UNL     1      43.449  -8.046  10.103  1.00  0.00     0.169 HD
HETATM   24  O   UNL     1      44.317 -10.984  11.025  1.00  0.00    -0.271 OA
BRANCH  22  25
HETATM   25  C   UNL     1      42.351  -8.811  11.665  1.00  0.00     0.069 A 
HETATM   26  C   UNL     1      42.644  -8.454  12.984  1.00  0.00     0.039 A 
HETATM   27  C   UNL     1      41.629  -8.383  13.950  1.00  0.00    -0.060 A 
HETATM   28  C   UNL     1      41.963  -8.036  15.371  1.00  0.00     0.048 C 
HETATM   29  C   UNL     1      40.319  -8.701  13.586  1.00  0.00     0.009 A 
HETATM   30  C   UNL     1      40.013  -9.064  12.272  1.00  0.00     0.039 A 
HETATM   31  C   UNL     1      41.023  -9.124  11.308  1.00  0.00     0.095 A 
BRANCH  31  32
HETATM   32  O   UNL     1      40.834  -9.479   9.994  1.00  0.00    -0.354 OA
HETATM   33  C   UNL     1      39.685  -8.962   9.337  1.00  0.00     0.210 C 
ENDBRANCH  31  32
ENDBRANCH  22  25
ENDBRANCH  20  21
ENDBRANCH   1  20
TORSDOF 8
ENDMDL
