MODEL 1
REMARK VINA RESULT:      -8.9      0.000      0.000
REMARK  6 active torsions:
REMARK  status: ('A' for Active; 'I' for Inactive)
REMARK    1  A    between atoms: C_9  and  C_10 
REMARK    2  A    between atoms: C_10  and  N_11 
REMARK       I    between atoms: N_11  and  C_12 
REMARK    3  A    between atoms: N_11  and  C_22 
REMARK    4  A    between atoms: C_12  and  C_13 
REMARK    5  A    between atoms: C_16  and  O_17 
REMARK    6  A    between atoms: C_22  and  C_23 
ROOT
HETATM    1  N   UNL     1      42.164 -14.700   3.031  1.00  0.00    -0.341 N 
HETATM    2  C   UNL     1      43.178 -15.425   2.401  1.00  0.00     0.254 C 
HETATM    3  O   UNL     1      43.931 -14.944   1.557  1.00  0.00    -0.267 OA
ENDROOT
BRANCH   1   4
HETATM    4  C   UNL     1      41.990 -13.294   2.633  1.00  0.00     0.170 C 
BRANCH   4   5
HETATM    5  C   UNL     1      40.953 -13.076   1.561  1.00  0.00     0.029 A 
HETATM    6  C   UNL     1      40.032 -11.928   1.852  1.00  0.00     0.253 A 
HETATM    7  N   UNL     1      39.052 -11.656   0.936  1.00  0.00    -0.322 N 
HETATM    8  O   UNL     1      40.135 -11.254   2.873  1.00  0.00    -0.268 OA
HETATM    9  C   UNL     1      38.842 -12.409  -0.222  1.00  0.00     0.045 A 
HETATM   10  H   UNL     1      38.445 -10.882   1.161  1.00  0.00     0.169 HD
HETATM   11  C   UNL     1      39.687 -13.489  -0.494  1.00  0.00    -0.008 A 
HETATM   12  C   UNL     1      37.790 -12.088  -1.078  1.00  0.00     0.031 A 
HETATM   13  C   UNL     1      39.456 -14.266  -1.634  1.00  0.00     0.020 A 
HETATM   14  C   UNL     1      40.777 -13.791   0.434  1.00  0.00     0.028 A 
HETATM   15  C   UNL     1      38.384 -13.972  -2.491  1.00  0.00    -0.061 A 
HETATM   16  C   UNL     1      38.136 -14.801  -3.718  1.00  0.00     0.048 C 
HETATM   17  C   UNL     1      37.566 -12.868  -2.213  1.00  0.00     0.009 A 
ENDBRANCH   4   5
ENDBRANCH   1   4
BRANCH   1  18
HETATM   18  C   UNL     1      41.044 -15.308   3.776  1.00  0.00     0.158 C 
BRANCH  18  19
HETATM   19  C   UNL     1      41.159 -15.150   5.298  1.00  0.00     0.139 C 
HETATM   20  O   UNL     1      41.269 -16.422   5.959  1.00  0.00    -0.384 OA
HETATM   21  C   UNL     1      42.138 -16.279   7.092  1.00  0.00     0.168 C 
HETATM   22  C   UNL     1      42.571 -14.828   7.143  1.00  0.00     0.029 C 
HETATM   23  C   UNL     1      42.409 -14.390   5.710  1.00  0.00     0.035 C 
ENDBRANCH  18  19
ENDBRANCH   1  18
BRANCH   2  24
HETATM   24  C   UNL     1      43.395 -16.848   2.753  1.00  0.00     0.032 A 
HETATM   25  C   UNL     1      44.023 -17.144   3.965  1.00  0.00     0.020 A 
HETATM   26  C   UNL     1      44.214 -18.475   4.339  1.00  0.00     0.038 A 
HETATM   27  C   UNL     1      43.772 -19.516   3.518  1.00  0.00     0.068 A 
HETATM   28  C   UNL     1      43.118 -19.216   2.321  1.00  0.00     0.038 A 
HETATM   29  C   UNL     1      42.917 -17.882   1.944  1.00  0.00     0.020 A 
BRANCH  27  30
HETATM   30  O   UNL     1      44.028 -20.769   4.004  1.00  0.00    -0.356 OA
HETATM   31  C   UNL     1      44.165 -20.903   5.412  1.00  0.00     0.210 C 
ENDBRANCH  27  30
ENDBRANCH   2  24
TORSDOF 6
ENDMDL
MODEL 2
REMARK VINA RESULT:      -8.4      1.883      2.420
REMARK  6 active torsions:
REMARK  status: ('A' for Active; 'I' for Inactive)
REMARK    1  A    between atoms: C_9  and  C_10 
REMARK    2  A    between atoms: C_10  and  N_11 
REMARK       I    between atoms: N_11  and  C_12 
REMARK    3  A    between atoms: N_11  and  C_22 
REMARK    4  A    between atoms: C_12  and  C_13 
REMARK    5  A    between atoms: C_16  and  O_17 
REMARK    6  A    between atoms: C_22  and  C_23 
ROOT
HETATM    1  N   UNL     1      41.827 -14.223   3.529  1.00  0.00    -0.341 N 
HETATM    2  C   UNL     1      41.299 -15.498   3.750  1.00  0.00     0.254 C 
HETATM    3  O   UNL     1      40.103 -15.762   3.652  1.00  0.00    -0.267 OA
ENDROOT
BRANCH   1   4
HETATM    4  C   UNL     1      40.880 -13.150   3.186  1.00  0.00     0.170 C 
BRANCH   4   5
HETATM    5  C   UNL     1      40.670 -12.958   1.706  1.00  0.00     0.029 A 
HETATM    6  C   UNL     1      41.250 -11.676   1.186  1.00  0.00     0.253 A 
HETATM    7  N   UNL     1      41.104 -11.412  -0.149  1.00  0.00    -0.322 N 
HETATM    8  O   UNL     1      41.829 -10.879   1.918  1.00  0.00    -0.268 OA
HETATM    9  C   UNL     1      40.414 -12.246  -1.034  1.00  0.00     0.045 A 
HETATM   10  H   UNL     1      41.498 -10.541  -0.470  1.00  0.00     0.169 HD
HETATM   11  C   UNL     1      39.859 -13.436  -0.555  1.00  0.00    -0.008 A 
HETATM   12  C   UNL     1      40.274 -11.876  -2.370  1.00  0.00     0.031 A 
HETATM   13  C   UNL     1      39.138 -14.255  -1.431  1.00  0.00     0.020 A 
HETATM   14  C   UNL     1      40.029 -13.783   0.856  1.00  0.00     0.028 A 
HETATM   15  C   UNL     1      38.965 -13.882  -2.774  1.00  0.00    -0.061 A 
HETATM   16  C   UNL     1      38.196 -14.760  -3.718  1.00  0.00     0.048 C 
HETATM   17  C   UNL     1      39.554 -12.697  -3.238  1.00  0.00     0.009 A 
ENDBRANCH   4   5
ENDBRANCH   1   4
BRANCH   1  18
HETATM   18  C   UNL     1      43.171 -13.792   3.958  1.00  0.00     0.158 C 
BRANCH  18  19
HETATM   19  C   UNL     1      43.156 -12.805   5.132  1.00  0.00     0.139 C 
HETATM   20  O   UNL     1      43.723 -13.381   6.322  1.00  0.00    -0.384 OA
HETATM   21  C   UNL     1      44.423 -12.355   7.041  1.00  0.00     0.168 C 
HETATM   22  C   UNL     1      44.258 -11.068   6.260  1.00  0.00     0.029 C 
HETATM   23  C   UNL     1      43.996 -11.567   4.862  1.00  0.00     0.035 C 
ENDBRANCH  18  19
ENDBRANCH   1  18
BRANCH   2  24
HETATM   24  C   UNL     1      42.201 -16.617   4.107  1.00  0.00     0.032 A 
HETATM   25  C   UNL     1      42.782 -17.358   3.076  1.00  0.00     0.020 A 
HETATM   26  C   UNL     1      43.661 -18.399   3.381  1.00  0.00     0.038 A 
HETATM   27  C   UNL     1      43.975 -18.700   4.709  1.00  0.00     0.068 A 
HETATM   28  C   UNL     1      43.415 -17.938   5.737  1.00  0.00     0.038 A 
HETATM   29  C   UNL     1      42.538 -16.888   5.437  1.00  0.00     0.020 A 
BRANCH  27  30
HETATM   30  O   UNL     1      44.844 -19.746   4.863  1.00  0.00    -0.356 OA
HETATM   31  C   UNL     1      44.296 -20.987   5.286  1.00  0.00     0.210 C 
ENDBRANCH  27  30
ENDBRANCH   2  24
TORSDOF 6
ENDMDL
MODEL 3
REMARK VINA RESULT:      -8.3      2.724      8.535
REMARK  6 active torsions:
REMARK  status: ('A' for Active; 'I' for Inactive)
REMARK    1  A    between atoms: C_9  and  C_10 
REMARK    2  A    between atoms: C_10  and  N_11 
REMARK       I    between atoms: N_11  and  C_12 
REMARK    3  A    between atoms: N_11  and  C_22 
REMARK    4  A    between atoms: C_12  and  C_13 
REMARK    5  A    between atoms: C_16  and  O_17 
REMARK    6  A    between atoms: C_22  and  C_23 
ROOT
HETATM    1  N   UNL     1      40.081 -12.990   0.891  1.00  0.00    -0.341 N 
HETATM    2  C   UNL     1      39.857 -11.627   1.098  1.00  0.00     0.254 C 
HETATM    3  O   UNL     1      39.277 -11.179   2.085  1.00  0.00    -0.267 OA
ENDROOT
BRANCH   1   4
HETATM    4  C   UNL     1      39.568 -13.922   1.907  1.00  0.00     0.170 C 
BRANCH   4   5
HETATM    5  C   UNL     1      40.605 -14.859   2.470  1.00  0.00     0.029 A 
HETATM    6  C   UNL     1      41.327 -14.299   3.661  1.00  0.00     0.253 A 
HETATM    7  N   UNL     1      42.292 -15.078   4.239  1.00  0.00    -0.322 N 
HETATM    8  O   UNL     1      41.077 -13.183   4.107  1.00  0.00    -0.268 OA
HETATM    9  C   UNL     1      42.665 -16.336   3.757  1.00  0.00     0.045 A 
HETATM   10  H   UNL     1      42.765 -14.674   5.034  1.00  0.00     0.169 HD
HETATM   11  C   UNL     1      42.008 -16.860   2.640  1.00  0.00    -0.008 A 
HETATM   12  C   UNL     1      43.692 -17.042   4.381  1.00  0.00     0.031 A 
HETATM   13  C   UNL     1      42.404 -18.103   2.135  1.00  0.00     0.020 A 
HETATM   14  C   UNL     1      40.937 -16.082   2.016  1.00  0.00     0.028 A 
HETATM   15  C   UNL     1      43.455 -18.813   2.736  1.00  0.00    -0.061 A 
HETATM   16  C   UNL     1      43.880 -20.149   2.200  1.00  0.00     0.048 C 
HETATM   17  C   UNL     1      44.082 -18.281   3.872  1.00  0.00     0.009 A 
ENDBRANCH   4   5
ENDBRANCH   1   4
BRANCH   1  18
HETATM   18  C   UNL     1      40.457 -13.585  -0.406  1.00  0.00     0.158 C 
BRANCH  18  19
HETATM   19  C   UNL     1      39.269 -14.159  -1.188  1.00  0.00     0.139 C 
HETATM   20  O   UNL     1      38.202 -13.203  -1.317  1.00  0.00    -0.384 OA
HETATM   21  C   UNL     1      37.576 -13.382  -2.595  1.00  0.00     0.168 C 
HETATM   22  C   UNL     1      38.284 -14.530  -3.285  1.00  0.00     0.029 C 
HETATM   23  C   UNL     1      39.636 -14.526  -2.617  1.00  0.00     0.035 C 
ENDBRANCH  18  19
ENDBRANCH   1  18
BRANCH   2  24
HETATM   24  C   UNL     1      40.342 -10.641   0.105  1.00  0.00     0.032 A 
HETATM   25  C   UNL     1      39.434 -10.135  -0.828  1.00  0.00     0.020 A 
HETATM   26  C   UNL     1      39.854  -9.182  -1.757  1.00  0.00     0.038 A 
HETATM   27  C   UNL     1      41.172  -8.717  -1.754  1.00  0.00     0.068 A 
HETATM   28  C   UNL     1      42.069  -9.203  -0.801  1.00  0.00     0.038 A 
HETATM   29  C   UNL     1      41.652 -10.155   0.138  1.00  0.00     0.020 A 
BRANCH  27  30
HETATM   30  O   UNL     1      41.448  -7.788  -2.720  1.00  0.00    -0.356 OA
HETATM   31  C   UNL     1      42.745  -7.209  -2.711  1.00  0.00     0.210 C 
ENDBRANCH  27  30
ENDBRANCH   2  24
TORSDOF 6
ENDMDL
MODEL 4
REMARK VINA RESULT:      -8.1      3.319      8.157
REMARK  6 active torsions:
REMARK  status: ('A' for Active; 'I' for Inactive)
REMARK    1  A    between atoms: C_9  and  C_10 
REMARK    2  A    between atoms: C_10  and  N_11 
REMARK       I    between atoms: N_11  and  C_12 
REMARK    3  A    between atoms: N_11  and  C_22 
REMARK    4  A    between atoms: C_12  and  C_13 
REMARK    5  A    between atoms: C_16  and  O_17 
REMARK    6  A    between atoms: C_22  and  C_23 
ROOT
HETATM    1  N   UNL     1      42.445 -13.700   5.702  1.00  0.00    -0.341 N 
HETATM    2  C   UNL     1      42.430 -12.314   5.873  1.00  0.00     0.254 C 
HETATM    3  O   UNL     1      43.353 -11.685   6.388  1.00  0.00    -0.267 OA
ENDROOT
BRANCH   1   4
HETATM    4  C   UNL     1      43.626 -14.429   6.192  1.00  0.00     0.170 C 
BRANCH   4   5
HETATM    5  C   UNL     1      43.618 -15.904   5.880  1.00  0.00     0.029 A 
HETATM    6  C   UNL     1      43.579 -16.768   7.106  1.00  0.00     0.253 A 
HETATM    7  N   UNL     1      43.574 -18.125   6.923  1.00  0.00    -0.322 N 
HETATM    8  O   UNL     1      43.561 -16.293   8.238  1.00  0.00    -0.268 OA
HETATM    9  C   UNL     1      43.644 -18.738   5.669  1.00  0.00     0.045 A 
HETATM   10  H   UNL     1      43.553 -18.681   7.765  1.00  0.00     0.169 HD
HETATM   11  C   UNL     1      43.694 -17.941   4.522  1.00  0.00    -0.008 A 
HETATM   12  C   UNL     1      43.679 -20.128   5.578  1.00  0.00     0.031 A 
HETATM   13  C   UNL     1      43.800 -18.553   3.269  1.00  0.00     0.020 A 
HETATM   14  C   UNL     1      43.656 -16.485   4.667  1.00  0.00     0.028 A 
HETATM   15  C   UNL     1      43.864 -19.951   3.162  1.00  0.00    -0.061 A 
HETATM   16  C   UNL     1      43.973 -20.611   1.819  1.00  0.00     0.048 C 
HETATM   17  C   UNL     1      43.785 -20.732   4.324  1.00  0.00     0.009 A 
ENDBRANCH   4   5
ENDBRANCH   1   4
BRANCH   1  18
HETATM   18  C   UNL     1      41.251 -14.518   5.412  1.00  0.00     0.158 C 
BRANCH  18  19
HETATM   19  C   UNL     1      40.840 -14.505   3.934  1.00  0.00     0.139 C 
HETATM   20  O   UNL     1      41.939 -14.148   3.078  1.00  0.00    -0.384 OA
HETATM   21  C   UNL     1      41.827 -14.888   1.853  1.00  0.00     0.168 C 
HETATM   22  C   UNL     1      40.573 -15.732   1.953  1.00  0.00     0.029 C 
HETATM   23  C   UNL     1      40.394 -15.872   3.443  1.00  0.00     0.035 C 
ENDBRANCH  18  19
ENDBRANCH   1  18
BRANCH   2  24
HETATM   24  C   UNL     1      41.265 -11.527   5.409  1.00  0.00     0.032 A 
HETATM   25  C   UNL     1      40.175 -11.382   6.270  1.00  0.00     0.020 A 
HETATM   26  C   UNL     1      39.075 -10.621   5.873  1.00  0.00     0.038 A 
HETATM   27  C   UNL     1      39.058  -9.989   4.627  1.00  0.00     0.068 A 
HETATM   28  C   UNL     1      40.162 -10.111   3.780  1.00  0.00     0.038 A 
HETATM   29  C   UNL     1      41.272 -10.869   4.176  1.00  0.00     0.020 A 
BRANCH  27  30
HETATM   30  O   UNL     1      37.917  -9.280   4.365  1.00  0.00    -0.356 OA
HETATM   31  C   UNL     1      37.739  -8.058   5.069  1.00  0.00     0.210 C 
ENDBRANCH  27  30
ENDBRANCH   2  24
TORSDOF 6
ENDMDL
MODEL 5
REMARK VINA RESULT:      -8.1      2.451      7.581
REMARK  6 active torsions:
REMARK  status: ('A' for Active; 'I' for Inactive)
REMARK    1  A    between atoms: C_9  and  C_10 
REMARK    2  A    between atoms: C_10  and  N_11 
REMARK       I    between atoms: N_11  and  C_12 
REMARK    3  A    between atoms: N_11  and  C_22 
REMARK    4  A    between atoms: C_12  and  C_13 
REMARK    5  A    between atoms: C_16  and  O_17 
REMARK    6  A    between atoms: C_22  and  C_23 
ROOT
HETATM    1  N   UNL     1      42.107 -13.298   4.231  1.00  0.00    -0.341 N 
HETATM    2  C   UNL     1      42.751 -12.724   3.133  1.00  0.00     0.254 C 
HETATM    3  O   UNL     1      43.973 -12.702   2.999  1.00  0.00    -0.267 OA
ENDROOT
BRANCH   1   4
HETATM    4  C   UNL     1      42.955 -13.881   5.283  1.00  0.00     0.170 C 
BRANCH   4   5
HETATM    5  C   UNL     1      43.166 -15.368   5.157  1.00  0.00     0.029 A 
HETATM    6  C   UNL     1      43.443 -16.041   6.469  1.00  0.00     0.253 A 
HETATM    7  N   UNL     1      43.653 -17.393   6.453  1.00  0.00    -0.322 N 
HETATM    8  O   UNL     1      43.492 -15.415   7.524  1.00  0.00    -0.268 OA
HETATM    9  C   UNL     1      43.663 -18.163   5.287  1.00  0.00     0.045 A 
HETATM   10  H   UNL     1      43.843 -17.818   7.348  1.00  0.00     0.169 HD
HETATM   11  C   UNL     1      43.419 -17.542   4.059  1.00  0.00    -0.008 A 
HETATM   12  C   UNL     1      43.931 -19.529   5.359  1.00  0.00     0.031 A 
HETATM   13  C   UNL     1      43.463 -18.305   2.887  1.00  0.00     0.020 A 
HETATM   14  C   UNL     1      43.144 -16.105   4.031  1.00  0.00     0.028 A 
HETATM   15  C   UNL     1      43.759 -19.676   2.941  1.00  0.00    -0.061 A 
HETATM   16  C   UNL     1      43.803 -20.499   1.686  1.00  0.00     0.048 C 
HETATM   17  C   UNL     1      43.974 -20.283   4.186  1.00  0.00     0.009 A 
ENDBRANCH   4   5
ENDBRANCH   1   4
BRANCH   1  18
HETATM   18  C   UNL     1      40.698 -13.051   4.594  1.00  0.00     0.158 C 
BRANCH  18  19
HETATM   19  C   UNL     1      40.527 -12.105   5.790  1.00  0.00     0.139 C 
HETATM   20  O   UNL     1      41.171 -10.840   5.567  1.00  0.00    -0.384 OA
HETATM   21  C   UNL     1      40.387  -9.808   6.184  1.00  0.00     0.168 C 
HETATM   22  C   UNL     1      39.201 -10.482   6.844  1.00  0.00     0.029 C 
HETATM   23  C   UNL     1      39.070 -11.758   6.053  1.00  0.00     0.035 C 
ENDBRANCH  18  19
ENDBRANCH   1  18
BRANCH   2  24
HETATM   24  C   UNL     1      41.951 -12.113   2.046  1.00  0.00     0.032 A 
HETATM   25  C   UNL     1      41.348 -12.956   1.110  1.00  0.00     0.020 A 
HETATM   26  C   UNL     1      40.563 -12.411   0.093  1.00  0.00     0.038 A 
HETATM   27  C   UNL     1      40.363 -11.031   0.007  1.00  0.00     0.068 A 
HETATM   28  C   UNL     1      40.944 -10.193   0.962  1.00  0.00     0.038 A 
HETATM   29  C   UNL     1      41.728 -10.734   1.990  1.00  0.00     0.020 A 
BRANCH  27  30
HETATM   30  O   UNL     1      39.577 -10.635  -1.040  1.00  0.00    -0.356 OA
HETATM   31  C   UNL     1      38.499 -11.488  -1.400  1.00  0.00     0.210 C 
ENDBRANCH  27  30
ENDBRANCH   2  24
TORSDOF 6
ENDMDL
MODEL 6
REMARK VINA RESULT:      -8.1      2.746      3.487
REMARK  6 active torsions:
REMARK  status: ('A' for Active; 'I' for Inactive)
REMARK    1  A    between atoms: C_9  and  C_10 
REMARK    2  A    between atoms: C_10  and  N_11 
REMARK       I    between atoms: N_11  and  C_12 
REMARK    3  A    between atoms: N_11  and  C_22 
REMARK    4  A    between atoms: C_12  and  C_13 
REMARK    5  A    between atoms: C_16  and  O_17 
REMARK    6  A    between atoms: C_22  and  C_23 
ROOT
HETATM    1  N   UNL     1      41.475 -14.210   2.839  1.00  0.00    -0.341 N 
HETATM    2  C   UNL     1      41.079 -15.518   3.129  1.00  0.00     0.254 C 
HETATM    3  O   UNL     1      39.904 -15.880   3.153  1.00  0.00    -0.267 OA
ENDROOT
BRANCH   1   4
HETATM    4  C   UNL     1      40.414 -13.225   2.575  1.00  0.00     0.170 C 
BRANCH   4   5
HETATM    5  C   UNL     1      40.601 -12.439   1.303  1.00  0.00     0.029 A 
HETATM    6  C   UNL     1      40.189 -13.193   0.073  1.00  0.00     0.253 A 
HETATM    7  N   UNL     1      40.327 -12.560  -1.132  1.00  0.00    -0.322 N 
HETATM    8  O   UNL     1      39.750 -14.338   0.129  1.00  0.00    -0.268 OA
HETATM    9  C   UNL     1      40.864 -11.278  -1.278  1.00  0.00     0.045 A 
HETATM   10  H   UNL     1      40.047 -13.093  -1.942  1.00  0.00     0.169 HD
HETATM   11  C   UNL     1      41.263 -10.573  -0.140  1.00  0.00    -0.008 A 
HETATM   12  C   UNL     1      41.010 -10.727  -2.550  1.00  0.00     0.031 A 
HETATM   13  C   UNL     1      41.834  -9.304  -0.286  1.00  0.00     0.020 A 
HETATM   14  C   UNL     1      41.092 -11.192   1.176  1.00  0.00     0.028 A 
HETATM   15  C   UNL     1      42.013  -8.748  -1.563  1.00  0.00    -0.061 A 
HETATM   16  C   UNL     1      42.621  -7.385  -1.724  1.00  0.00     0.048 C 
HETATM   17  C   UNL     1      41.581  -9.461  -2.689  1.00  0.00     0.009 A 
ENDBRANCH   4   5
ENDBRANCH   1   4
BRANCH   1  18
HETATM   18  C   UNL     1      42.814 -13.661   3.128  1.00  0.00     0.158 C 
BRANCH  18  19
HETATM   19  C   UNL     1      42.858 -12.767   4.374  1.00  0.00     0.139 C 
HETATM   20  O   UNL     1      43.278 -13.497   5.540  1.00  0.00    -0.384 OA
HETATM   21  C   UNL     1      44.061 -12.626   6.370  1.00  0.00     0.168 C 
HETATM   22  C   UNL     1      44.105 -11.275   5.686  1.00  0.00     0.029 C 
HETATM   23  C   UNL     1      43.862 -11.634   4.242  1.00  0.00     0.035 C 
ENDBRANCH  18  19
ENDBRANCH   1  18
BRANCH   2  24
HETATM   24  C   UNL     1      42.101 -16.552   3.413  1.00  0.00     0.032 A 
HETATM   25  C   UNL     1      42.479 -16.765   4.740  1.00  0.00     0.020 A 
HETATM   26  C   UNL     1      43.418 -17.754   5.042  1.00  0.00     0.038 A 
HETATM   27  C   UNL     1      43.973 -18.542   4.031  1.00  0.00     0.068 A 
HETATM   28  C   UNL     1      43.570 -18.345   2.708  1.00  0.00     0.038 A 
HETATM   29  C   UNL     1      42.624 -17.360   2.399  1.00  0.00     0.020 A 
BRANCH  27  30
HETATM   30  O   UNL     1      44.881 -19.467   4.467  1.00  0.00    -0.356 OA
HETATM   31  C   UNL     1      44.366 -20.645   5.073  1.00  0.00     0.210 C 
ENDBRANCH  27  30
ENDBRANCH   2  24
TORSDOF 6
ENDMDL
MODEL 7
REMARK VINA RESULT:      -8.0      2.960      7.738
REMARK  6 active torsions:
REMARK  status: ('A' for Active; 'I' for Inactive)
REMARK    1  A    between atoms: C_9  and  C_10 
REMARK    2  A    between atoms: C_10  and  N_11 
REMARK       I    between atoms: N_11  and  C_12 
REMARK    3  A    between atoms: N_11  and  C_22 
REMARK    4  A    between atoms: C_12  and  C_13 
REMARK    5  A    between atoms: C_16  and  O_17 
REMARK    6  A    between atoms: C_22  and  C_23 
ROOT
HETATM    1  N   UNL     1      42.180 -13.153   4.874  1.00  0.00    -0.341 N 
HETATM    2  C   UNL     1      41.072 -13.030   4.032  1.00  0.00     0.254 C 
HETATM    3  O   UNL     1      40.014 -13.629   4.213  1.00  0.00    -0.267 OA
ENDROOT
BRANCH   1   4
HETATM    4  C   UNL     1      42.060 -14.069   6.019  1.00  0.00     0.170 C 
BRANCH   4   5
HETATM    5  C   UNL     1      42.515 -15.478   5.736  1.00  0.00     0.029 A 
HETATM    6  C   UNL     1      42.984 -16.207   6.961  1.00  0.00     0.253 A 
HETATM    7  N   UNL     1      43.422 -17.494   6.802  1.00  0.00    -0.322 N 
HETATM    8  O   UNL     1      42.990 -15.680   8.070  1.00  0.00    -0.268 OA
HETATM    9  C   UNL     1      43.492 -18.142   5.565  1.00  0.00     0.045 A 
HETATM   10  H   UNL     1      43.736 -17.958   7.641  1.00  0.00     0.169 HD
HETATM   11  C   UNL     1      43.069 -17.466   4.417  1.00  0.00    -0.008 A 
HETATM   12  C   UNL     1      43.994 -19.440   5.489  1.00  0.00     0.031 A 
HETATM   13  C   UNL     1      43.172 -18.100   3.174  1.00  0.00     0.020 A 
HETATM   14  C   UNL     1      42.551 -16.103   4.545  1.00  0.00     0.028 A 
HETATM   15  C   UNL     1      43.702 -19.397   3.078  1.00  0.00    -0.061 A 
HETATM   16  C   UNL     1      43.809 -20.082   1.747  1.00  0.00     0.048 C 
HETATM   17  C   UNL     1      44.094 -20.066   4.246  1.00  0.00     0.009 A 
ENDBRANCH   4   5
ENDBRANCH   1   4
BRANCH   1  18
HETATM   18  C   UNL     1      43.549 -12.733   4.518  1.00  0.00     0.158 C 
BRANCH  18  19
HETATM   19  C   UNL     1      44.059 -11.537   5.332  1.00  0.00     0.139 C 
HETATM   20  O   UNL     1      42.987 -10.854   6.004  1.00  0.00    -0.384 OA
HETATM   21  C   UNL     1      43.467 -10.375   7.269  1.00  0.00     0.168 C 
HETATM   22  C   UNL     1      44.927 -10.769   7.372  1.00  0.00     0.029 C 
HETATM   23  C   UNL     1      45.010 -11.953   6.442  1.00  0.00     0.035 C 
ENDBRANCH  18  19
ENDBRANCH   1  18
BRANCH   2  24
HETATM   24  C   UNL     1      41.135 -12.129   2.858  1.00  0.00     0.032 A 
HETATM   25  C   UNL     1      41.131 -12.699   1.582  1.00  0.00     0.020 A 
HETATM   26  C   UNL     1      41.159 -11.874   0.456  1.00  0.00     0.038 A 
HETATM   27  C   UNL     1      41.178 -10.484   0.591  1.00  0.00     0.068 A 
HETATM   28  C   UNL     1      41.152  -9.917   1.868  1.00  0.00     0.038 A 
HETATM   29  C   UNL     1      41.117 -10.739   3.002  1.00  0.00     0.020 A 
BRANCH  27  30
HETATM   30  O   UNL     1      41.208  -9.799  -0.593  1.00  0.00    -0.356 OA
HETATM   31  C   UNL     1      42.046  -8.653  -0.658  1.00  0.00     0.210 C 
ENDBRANCH  27  30
ENDBRANCH   2  24
TORSDOF 6
ENDMDL
MODEL 8
REMARK VINA RESULT:      -8.0      2.282      7.780
REMARK  6 active torsions:
REMARK  status: ('A' for Active; 'I' for Inactive)
REMARK    1  A    between atoms: C_9  and  C_10 
REMARK    2  A    between atoms: C_10  and  N_11 
REMARK       I    between atoms: N_11  and  C_12 
REMARK    3  A    between atoms: N_11  and  C_22 
REMARK    4  A    between atoms: C_12  and  C_13 
REMARK    5  A    between atoms: C_16  and  O_17 
REMARK    6  A    between atoms: C_22  and  C_23 
ROOT
HETATM    1  N   UNL     1      41.038 -13.057   2.772  1.00  0.00    -0.341 N 
HETATM    2  C   UNL     1      39.948 -13.540   2.044  1.00  0.00     0.254 C 
HETATM    3  O   UNL     1      39.138 -14.348   2.494  1.00  0.00    -0.267 OA
ENDROOT
BRANCH   1   4
HETATM    4  C   UNL     1      41.222 -13.573   4.138  1.00  0.00     0.170 C 
BRANCH   4   5
HETATM    5  C   UNL     1      41.969 -14.879   4.213  1.00  0.00     0.029 A 
HETATM    6  C   UNL     1      42.820 -15.006   5.441  1.00  0.00     0.253 A 
HETATM    7  N   UNL     1      43.541 -16.159   5.595  1.00  0.00    -0.322 N 
HETATM    8  O   UNL     1      42.885 -14.114   6.283  1.00  0.00    -0.268 OA
HETATM    9  C   UNL     1      43.556 -17.195   4.656  1.00  0.00     0.045 A 
HETATM   10  H   UNL     1      44.109 -16.214   6.427  1.00  0.00     0.169 HD
HETATM   11  C   UNL     1      42.777 -17.080   3.502  1.00  0.00    -0.008 A 
HETATM   12  C   UNL     1      44.356 -18.315   4.872  1.00  0.00     0.031 A 
HETATM   13  C   UNL     1      42.818 -18.099   2.545  1.00  0.00     0.020 A 
HETATM   14  C   UNL     1      41.954 -15.884   3.316  1.00  0.00     0.028 A 
HETATM   15  C   UNL     1      43.640 -19.221   2.735  1.00  0.00    -0.061 A 
HETATM   16  C   UNL     1      43.684 -20.319   1.712  1.00  0.00     0.048 C 
HETATM   17  C   UNL     1      44.393 -19.328   3.912  1.00  0.00     0.009 A 
ENDBRANCH   4   5
ENDBRANCH   1   4
BRANCH   1  18
HETATM   18  C   UNL     1      42.200 -12.370   2.175  1.00  0.00     0.158 C 
BRANCH  18  19
HETATM   19  C   UNL     1      42.096 -10.840   2.211  1.00  0.00     0.139 C 
HETATM   20  O   UNL     1      41.944 -10.283   0.894  1.00  0.00    -0.384 OA
HETATM   21  C   UNL     1      41.085  -9.136   0.975  1.00  0.00     0.168 C 
HETATM   22  C   UNL     1      40.704  -8.964   2.432  1.00  0.00     0.029 C 
HETATM   23  C   UNL     1      40.876 -10.358   2.980  1.00  0.00     0.035 C 
ENDBRANCH  18  19
ENDBRANCH   1  18
BRANCH   2  24
HETATM   24  C   UNL     1      39.716 -13.065   0.661  1.00  0.00     0.032 A 
HETATM   25  C   UNL     1      38.847 -11.989   0.464  1.00  0.00     0.020 A 
HETATM   26  C   UNL     1      38.632 -11.500  -0.825  1.00  0.00     0.038 A 
HETATM   27  C   UNL     1      39.288 -12.066  -1.921  1.00  0.00     0.068 A 
HETATM   28  C   UNL     1      40.180 -13.122  -1.717  1.00  0.00     0.038 A 
HETATM   29  C   UNL     1      40.405 -13.613  -0.425  1.00  0.00     0.020 A 
BRANCH  27  30
HETATM   30  O   UNL     1      38.982 -11.491  -3.125  1.00  0.00    -0.356 OA
HETATM   31  C   UNL     1      39.545 -10.215  -3.395  1.00  0.00     0.210 C 
ENDBRANCH  27  30
ENDBRANCH   2  24
TORSDOF 6
ENDMDL
MODEL 9
REMARK VINA RESULT:      -7.9      3.446      6.841
REMARK  6 active torsions:
REMARK  status: ('A' for Active; 'I' for Inactive)
REMARK    1  A    between atoms: C_9  and  C_10 
REMARK    2  A    between atoms: C_10  and  N_11 
REMARK       I    between atoms: N_11  and  C_12 
REMARK    3  A    between atoms: N_11  and  C_22 
REMARK    4  A    between atoms: C_12  and  C_13 
REMARK    5  A    between atoms: C_16  and  O_17 
REMARK    6  A    between atoms: C_22  and  C_23 
ROOT
HETATM    1  N   UNL     1      41.654 -13.057   3.723  1.00  0.00    -0.341 N 
HETATM    2  C   UNL     1      42.892 -13.538   3.291  1.00  0.00     0.254 C 
HETATM    3  O   UNL     1      43.830 -12.809   2.977  1.00  0.00    -0.267 OA
ENDROOT
BRANCH   1   4
HETATM    4  C   UNL     1      41.477 -11.597   3.776  1.00  0.00     0.170 C 
BRANCH   4   5
HETATM    5  C   UNL     1      41.690 -10.995   5.141  1.00  0.00     0.029 A 
HETATM    6  C   UNL     1      40.497 -10.239   5.648  1.00  0.00     0.253 A 
HETATM    7  N   UNL     1      40.598  -9.652   6.880  1.00  0.00    -0.322 N 
HETATM    8  O   UNL     1      39.465 -10.134   4.991  1.00  0.00    -0.268 OA
HETATM    9  C   UNL     1      41.755  -9.686   7.663  1.00  0.00     0.045 A 
HETATM   10  H   UNL     1      39.783  -9.146   7.193  1.00  0.00     0.169 HD
HETATM   11  C   UNL     1      42.876 -10.377   7.193  1.00  0.00    -0.008 A 
HETATM   12  C   UNL     1      41.785  -9.021   8.888  1.00  0.00     0.031 A 
HETATM   13  C   UNL     1      44.046 -10.382   7.959  1.00  0.00     0.020 A 
HETATM   14  C   UNL     1      42.800 -11.058   5.900  1.00  0.00     0.028 A 
HETATM   15  C   UNL     1      44.100  -9.694   9.182  1.00  0.00    -0.061 A 
HETATM   16  C   UNL     1      45.353  -9.701  10.008  1.00  0.00     0.048 C 
HETATM   17  C   UNL     1      42.956  -9.030   9.646  1.00  0.00     0.009 A 
ENDBRANCH   4   5
ENDBRANCH   1   4
BRANCH   1  18
HETATM   18  C   UNL     1      40.419 -13.863   3.780  1.00  0.00     0.158 C 
BRANCH  18  19
HETATM   19  C   UNL     1      39.791 -14.126   2.406  1.00  0.00     0.139 C 
HETATM   20  O   UNL     1      40.482 -13.422   1.359  1.00  0.00    -0.384 OA
HETATM   21  C   UNL     1      40.473 -14.232   0.175  1.00  0.00     0.168 C 
HETATM   22  C   UNL     1      39.712 -15.500   0.506  1.00  0.00     0.029 C 
HETATM   23  C   UNL     1      39.865 -15.590   2.003  1.00  0.00     0.035 C 
ENDBRANCH  18  19
ENDBRANCH   1  18
BRANCH   2  24
HETATM   24  C   UNL     1      43.126 -14.998   3.208  1.00  0.00     0.032 A 
HETATM   25  C   UNL     1      43.130 -15.739   4.392  1.00  0.00     0.020 A 
HETATM   26  C   UNL     1      43.318 -17.121   4.343  1.00  0.00     0.038 A 
HETATM   27  C   UNL     1      43.489 -17.775   3.120  1.00  0.00     0.068 A 
HETATM   28  C   UNL     1      43.455 -17.035   1.936  1.00  0.00     0.038 A 
HETATM   29  C   UNL     1      43.260 -15.648   1.978  1.00  0.00     0.020 A 
BRANCH  27  30
HETATM   30  O   UNL     1      43.668 -19.128   3.219  1.00  0.00    -0.356 OA
HETATM   31  C   UNL     1      43.269 -19.917   2.107  1.00  0.00     0.210 C 
ENDBRANCH  27  30
ENDBRANCH   2  24
TORSDOF 6
ENDMDL
MODEL 10
REMARK VINA RESULT:      -7.9      2.847      5.126
REMARK  6 active torsions:
REMARK  status: ('A' for Active; 'I' for Inactive)
REMARK    1  A    between atoms: C_9  and  C_10 
REMARK    2  A    between atoms: C_10  and  N_11 
REMARK       I    between atoms: N_11  and  C_12 
REMARK    3  A    between atoms: N_11  and  C_22 
REMARK    4  A    between atoms: C_12  and  C_13 
REMARK    5  A    between atoms: C_16  and  O_17 
REMARK    6  A    between atoms: C_22  and  C_23 
ROOT
HETATM    1  N   UNL     1      41.365 -14.127   3.565  1.00  0.00    -0.341 N 
HETATM    2  C   UNL     1      41.261 -12.978   4.352  1.00  0.00     0.254 C 
HETATM    3  O   UNL     1      40.254 -12.274   4.393  1.00  0.00    -0.267 OA
ENDROOT
BRANCH   1   4
HETATM    4  C   UNL     1      40.205 -14.483   2.732  1.00  0.00     0.170 C 
BRANCH   4   5
HETATM    5  C   UNL     1      40.247 -13.918   1.336  1.00  0.00     0.029 A 
HETATM    6  C   UNL     1      39.933 -14.932   0.276  1.00  0.00     0.253 A 
HETATM    7  N   UNL     1      39.952 -14.511  -1.027  1.00  0.00    -0.322 N 
HETATM    8  O   UNL     1      39.676 -16.101   0.549  1.00  0.00    -0.268 OA
HETATM    9  C   UNL     1      40.284 -13.211  -1.417  1.00  0.00     0.045 A 
HETATM   10  H   UNL     1      39.743 -15.216  -1.718  1.00  0.00     0.169 HD
HETATM   11  C   UNL     1      40.591 -12.263  -0.437  1.00  0.00    -0.008 A 
HETATM   12  C   UNL     1      40.322 -12.881  -2.770  1.00  0.00     0.031 A 
HETATM   13  C   UNL     1      40.959 -10.971  -0.827  1.00  0.00     0.020 A 
HETATM   14  C   UNL     1      40.540 -12.655   0.972  1.00  0.00     0.028 A 
HETATM   15  C   UNL     1      41.028 -10.631  -2.188  1.00  0.00    -0.061 A 
HETATM   16  C   UNL     1      41.418  -9.245  -2.610  1.00  0.00     0.048 C 
HETATM   17  C   UNL     1      40.690 -11.590  -3.153  1.00  0.00     0.009 A 
ENDBRANCH   4   5
ENDBRANCH   1   4
BRANCH   1  18
HETATM   18  C   UNL     1      42.637 -14.794   3.227  1.00  0.00     0.158 C 
BRANCH  18  19
HETATM   19  C   UNL     1      42.651 -16.294   3.549  1.00  0.00     0.139 C 
HETATM   20  O   UNL     1      43.015 -17.083   2.404  1.00  0.00    -0.384 OA
HETATM   21  C   UNL     1      43.782 -18.212   2.847  1.00  0.00     0.168 C 
HETATM   22  C   UNL     1      43.875 -18.125   4.357  1.00  0.00     0.029 C 
HETATM   23  C   UNL     1      43.679 -16.651   4.610  1.00  0.00     0.035 C 
ENDBRANCH  18  19
ENDBRANCH   1  18
BRANCH   2  24
HETATM   24  C   UNL     1      42.399 -12.563   5.205  1.00  0.00     0.032 A 
HETATM   25  C   UNL     1      42.652 -13.287   6.372  1.00  0.00     0.020 A 
HETATM   26  C   UNL     1      43.736 -12.939   7.181  1.00  0.00     0.038 A 
HETATM   27  C   UNL     1      44.579 -11.882   6.827  1.00  0.00     0.068 A 
HETATM   28  C   UNL     1      44.339 -11.179   5.644  1.00  0.00     0.038 A 
HETATM   29  C   UNL     1      43.257 -11.528   4.825  1.00  0.00     0.020 A 
BRANCH  27  30
HETATM   30  O   UNL     1      45.597 -11.648   7.711  1.00  0.00    -0.356 OA
HETATM   31  C   UNL     1      46.254 -10.391   7.624  1.00  0.00     0.210 C 
ENDBRANCH  27  30
ENDBRANCH   2  24
TORSDOF 6
ENDMDL
