MODEL 1
REMARK VINA RESULT:      -8.3      0.000      0.000
REMARK  9 active torsions:
REMARK  status: ('A' for Active; 'I' for Inactive)
REMARK    1  A    between atoms: C_2  and  O_3 
REMARK    2  A    between atoms: O_3  and  C_4 
REMARK    3  A    between atoms: C_4  and  C_5 
REMARK    4  A    between atoms: C_7  and  C_8 
REMARK       I    between atoms: C_8  and  N_9 
REMARK    5  A    between atoms: N_9  and  N_10 
REMARK    6  A    between atoms: N_10  and  C_11 
REMARK    7  A    between atoms: C_11  and  N_12 
REMARK    8  A    between atoms: N_12  and  C_13 
REMARK    9  A    between atoms: C_13  and  C_14 
ROOT
HETATM    1  C   UNL     1      42.359 -13.138   3.922  1.00  0.00     0.078 A 
HETATM    2  O   UNL     1      42.070 -12.584   5.134  1.00  0.00    -0.307 OA
HETATM    3  C   UNL     1      42.711 -11.375   5.204  1.00  0.00     0.145 A 
HETATM    4  C   UNL     1      43.397 -11.161   4.019  1.00  0.00     0.045 A 
HETATM    5  C   UNL     1      43.171 -12.292   3.199  1.00  0.00     0.038 A 
ENDROOT
BRANCH   3   6
HETATM    6  C   UNL     1      42.577 -10.599   6.422  1.00  0.00     0.293 C 
HETATM    7  N   UNL     1      43.080 -11.215   7.558  1.00  0.00    -0.262 N 
HETATM    8  H   UNL     1      43.687 -12.028   7.505  1.00  0.00     0.190 HD
HETATM    9  O   UNL     1      42.066  -9.479   6.491  1.00  0.00    -0.264 OA
BRANCH   7  10
HETATM   10  N   UNL     1      43.134 -10.477   8.757  1.00  0.00    -0.274 N 
HETATM   11  H   UNL     1      42.310  -9.900   8.914  1.00  0.00     0.189 HD
BRANCH  10  12
HETATM   12  C   UNL     1      44.342 -10.043   9.239  1.00  0.00     0.186 C 
HETATM   13  S   UNL     1      45.598  -9.466   8.293  1.00  0.00    -0.040 SA
BRANCH  12  14
HETATM   14  N   UNL     1      44.542 -10.151  10.578  1.00  0.00    -0.364 N 
HETATM   15  H   UNL     1      45.486  -9.927  10.877  1.00  0.00     0.162 HD
BRANCH  14  16
HETATM   16  C   UNL     1      43.736 -10.835  11.587  1.00  0.00     0.154 C 
BRANCH  16  17
HETATM   17  C   UNL     1      42.725  -9.906  12.282  1.00  0.00     0.139 C 
HETATM   18  O   UNL     1      41.543  -9.787  11.462  1.00  0.00    -0.384 OA
HETATM   19  C   UNL     1      41.266  -8.395  11.263  1.00  0.00     0.168 C 
HETATM   20  C   UNL     1      42.565  -7.660  11.495  1.00  0.00     0.029 C 
HETATM   21  C   UNL     1      43.226  -8.495  12.561  1.00  0.00     0.035 C 
ENDBRANCH  16  17
ENDBRANCH  14  16
ENDBRANCH  12  14
ENDBRANCH  10  12
ENDBRANCH   7  10
ENDBRANCH   3   6
BRANCH   1  22
HETATM   22  C   UNL     1      41.777 -14.475   3.635  1.00  0.00     0.240 C 
BRANCH  22  23
HETATM   23  O   UNL     1      42.780 -15.202   2.930  1.00  0.00    -0.345 OA
BRANCH  23  24
HETATM   24  C   UNL     1      43.215 -16.367   3.502  1.00  0.00     0.069 A 
HETATM   25  C   UNL     1      43.622 -16.520   4.838  1.00  0.00     0.037 A 
HETATM   26  C   UNL     1      44.032 -17.768   5.322  1.00  0.00     0.010 A 
HETATM   27  C   UNL     1      44.019 -18.848   4.458  1.00  0.00    -0.052 A 
HETATM   28  C   UNL     1      43.616 -18.701   3.129  1.00  0.00    -0.049 A 
HETATM   29  C   UNL     1      44.446 -20.257   4.731  1.00  0.00     0.039 C 
HETATM   30  C   UNL     1      43.212 -17.469   2.641  1.00  0.00     0.044 A 
HETATM   31  C   UNL     1      43.747 -19.991   2.383  1.00  0.00     0.039 C 
HETATM   32  C   UNL     1      43.816 -20.997   3.541  1.00  0.00     0.009 C 
ENDBRANCH  23  24
ENDBRANCH  22  23
ENDBRANCH   1  22
TORSDOF 9
ENDMDL
MODEL 2
REMARK VINA RESULT:      -8.3      2.299      3.152
REMARK  9 active torsions:
REMARK  status: ('A' for Active; 'I' for Inactive)
REMARK    1  A    between atoms: C_2  and  O_3 
REMARK    2  A    between atoms: O_3  and  C_4 
REMARK    3  A    between atoms: C_4  and  C_5 
REMARK    4  A    between atoms: C_7  and  C_8 
REMARK       I    between atoms: C_8  and  N_9 
REMARK    5  A    between atoms: N_9  and  N_10 
REMARK    6  A    between atoms: N_10  and  C_11 
REMARK    7  A    between atoms: C_11  and  N_12 
REMARK    8  A    between atoms: N_12  and  C_13 
REMARK    9  A    between atoms: C_13  and  C_14 
ROOT
HETATM    1  C   UNL     1      44.158 -11.929   5.985  1.00  0.00     0.078 A 
HETATM    2  O   UNL     1      43.680 -11.656   7.231  1.00  0.00    -0.307 OA
HETATM    3  C   UNL     1      44.701 -11.101   7.958  1.00  0.00     0.145 A 
HETATM    4  C   UNL     1      45.827 -11.012   7.155  1.00  0.00     0.045 A 
HETATM    5  C   UNL     1      45.477 -11.544   5.891  1.00  0.00     0.038 A 
ENDROOT
BRANCH   3   6
HETATM    6  C   UNL     1      44.442 -10.745   9.340  1.00  0.00     0.293 C 
HETATM    7  N   UNL     1      43.099 -10.632   9.665  1.00  0.00    -0.262 N 
HETATM    8  H   UNL     1      42.366 -10.987   9.057  1.00  0.00     0.190 HD
HETATM    9  O   UNL     1      45.311 -10.551  10.192  1.00  0.00    -0.264 OA
BRANCH   7  10
HETATM   10  N   UNL     1      42.745 -10.442  11.016  1.00  0.00    -0.274 N 
HETATM   11  H   UNL     1      42.967 -11.242  11.607  1.00  0.00     0.189 HD
BRANCH  10  12
HETATM   12  C   UNL     1      41.661  -9.668  11.338  1.00  0.00     0.186 C 
HETATM   13  S   UNL     1      40.889  -8.619  10.285  1.00  0.00    -0.040 SA
BRANCH  12  14
HETATM   14  N   UNL     1      41.232  -9.720  12.625  1.00  0.00    -0.364 N 
HETATM   15  H   UNL     1      41.528 -10.550  13.129  1.00  0.00     0.162 HD
BRANCH  14  16
HETATM   16  C   UNL     1      40.171  -8.960  13.283  1.00  0.00     0.154 C 
BRANCH  16  17
HETATM   17  C   UNL     1      40.704  -7.792  14.132  1.00  0.00     0.139 C 
HETATM   18  O   UNL     1      40.907  -6.640  13.287  1.00  0.00    -0.384 OA
HETATM   19  C   UNL     1      42.244  -6.162  13.482  1.00  0.00     0.168 C 
HETATM   20  C   UNL     1      43.041  -7.324  14.027  1.00  0.00     0.029 C 
HETATM   21  C   UNL     1      42.018  -8.061  14.853  1.00  0.00     0.035 C 
ENDBRANCH  16  17
ENDBRANCH  14  16
ENDBRANCH  12  14
ENDBRANCH  10  12
ENDBRANCH   7  10
ENDBRANCH   3   6
BRANCH   1  22
HETATM   22  C   UNL     1      43.216 -12.559   5.023  1.00  0.00     0.240 C 
BRANCH  22  23
HETATM   23  O   UNL     1      42.650 -13.680   5.698  1.00  0.00    -0.345 OA
BRANCH  23  24
HETATM   24  C   UNL     1      43.105 -14.917   5.328  1.00  0.00     0.069 A 
HETATM   25  C   UNL     1      43.824 -15.804   6.147  1.00  0.00     0.037 A 
HETATM   26  C   UNL     1      44.223 -17.056   5.666  1.00  0.00     0.010 A 
HETATM   27  C   UNL     1      43.887 -17.406   4.371  1.00  0.00    -0.052 A 
HETATM   28  C   UNL     1      43.173 -16.527   3.553  1.00  0.00    -0.049 A 
HETATM   29  C   UNL     1      44.234 -18.660   3.631  1.00  0.00     0.039 C 
HETATM   30  C   UNL     1      42.777 -15.285   4.019  1.00  0.00     0.044 A 
HETATM   31  C   UNL     1      42.985 -17.103   2.185  1.00  0.00     0.039 C 
HETATM   32  C   UNL     1      43.253 -18.591   2.451  1.00  0.00     0.009 C 
ENDBRANCH  23  24
ENDBRANCH  22  23
ENDBRANCH   1  22
TORSDOF 9
ENDMDL
MODEL 3
REMARK VINA RESULT:      -8.3      2.269      3.330
REMARK  9 active torsions:
REMARK  status: ('A' for Active; 'I' for Inactive)
REMARK    1  A    between atoms: C_2  and  O_3 
REMARK    2  A    between atoms: O_3  and  C_4 
REMARK    3  A    between atoms: C_4  and  C_5 
REMARK    4  A    between atoms: C_7  and  C_8 
REMARK       I    between atoms: C_8  and  N_9 
REMARK    5  A    between atoms: N_9  and  N_10 
REMARK    6  A    between atoms: N_10  and  C_11 
REMARK    7  A    between atoms: C_11  and  N_12 
REMARK    8  A    between atoms: N_12  and  C_13 
REMARK    9  A    between atoms: C_13  and  C_14 
ROOT
HETATM    1  C   UNL     1      44.237 -11.870   6.058  1.00  0.00     0.078 A 
HETATM    2  O   UNL     1      43.794 -11.658   7.329  1.00  0.00    -0.307 OA
HETATM    3  C   UNL     1      44.798 -11.034   8.023  1.00  0.00     0.145 A 
HETATM    4  C   UNL     1      45.876 -10.840   7.175  1.00  0.00     0.045 A 
HETATM    5  C   UNL     1      45.515 -11.377   5.916  1.00  0.00     0.038 A 
ENDROOT
BRANCH   3   6
HETATM    6  C   UNL     1      44.572 -10.724   9.422  1.00  0.00     0.293 C 
HETATM    7  N   UNL     1      43.245 -10.782   9.820  1.00  0.00    -0.262 N 
HETATM    8  H   UNL     1      42.531 -11.221   9.246  1.00  0.00     0.190 HD
HETATM    9  O   UNL     1      45.456 -10.430  10.229  1.00  0.00    -0.264 OA
BRANCH   7  10
HETATM   10  N   UNL     1      42.946 -10.649  11.190  1.00  0.00    -0.274 N 
HETATM   11  H   UNL     1      43.180 -11.476  11.737  1.00  0.00     0.189 HD
BRANCH  10  12
HETATM   12  C   UNL     1      41.884  -9.879  11.587  1.00  0.00     0.186 C 
HETATM   13  S   UNL     1      41.618  -9.349  13.154  1.00  0.00    -0.040 SA
BRANCH  12  14
HETATM   14  N   UNL     1      40.954  -9.582  10.641  1.00  0.00    -0.364 N 
HETATM   15  H   UNL     1      40.931 -10.234   9.863  1.00  0.00     0.162 HD
BRANCH  14  16
HETATM   16  C   UNL     1      40.232  -8.334  10.407  1.00  0.00     0.154 C 
BRANCH  16  17
HETATM   17  C   UNL     1      40.849  -7.482   9.285  1.00  0.00     0.139 C 
HETATM   18  O   UNL     1      41.901  -8.229   8.639  1.00  0.00    -0.384 OA
HETATM   19  C   UNL     1      43.087  -7.425   8.624  1.00  0.00     0.168 C 
HETATM   20  C   UNL     1      42.933  -6.408   9.730  1.00  0.00     0.029 C 
HETATM   21  C   UNL     1      41.447  -6.154   9.733  1.00  0.00     0.035 C 
ENDBRANCH  16  17
ENDBRANCH  14  16
ENDBRANCH  12  14
ENDBRANCH  10  12
ENDBRANCH   7  10
ENDBRANCH   3   6
BRANCH   1  22
HETATM   22  C   UNL     1      43.306 -12.558   5.125  1.00  0.00     0.240 C 
BRANCH  22  23
HETATM   23  O   UNL     1      42.790 -13.680   5.836  1.00  0.00    -0.345 OA
BRANCH  23  24
HETATM   24  C   UNL     1      43.194 -14.918   5.412  1.00  0.00     0.069 A 
HETATM   25  C   UNL     1      43.884 -15.864   6.189  1.00  0.00     0.037 A 
HETATM   26  C   UNL     1      44.231 -17.111   5.655  1.00  0.00     0.010 A 
HETATM   27  C   UNL     1      43.873 -17.394   4.350  1.00  0.00    -0.052 A 
HETATM   28  C   UNL     1      43.188 -16.456   3.573  1.00  0.00    -0.049 A 
HETATM   29  C   UNL     1      44.166 -18.629   3.556  1.00  0.00     0.039 C 
HETATM   30  C   UNL     1      42.843 -15.220   4.092  1.00  0.00     0.044 A 
HETATM   31  C   UNL     1      42.969 -16.968   2.185  1.00  0.00     0.039 C 
HETATM   32  C   UNL     1      43.181 -18.476   2.388  1.00  0.00     0.009 C 
ENDBRANCH  23  24
ENDBRANCH  22  23
ENDBRANCH   1  22
TORSDOF 9
ENDMDL
MODEL 4
REMARK VINA RESULT:      -8.3      2.133      3.051
REMARK  9 active torsions:
REMARK  status: ('A' for Active; 'I' for Inactive)
REMARK    1  A    between atoms: C_2  and  O_3 
REMARK    2  A    between atoms: O_3  and  C_4 
REMARK    3  A    between atoms: C_4  and  C_5 
REMARK    4  A    between atoms: C_7  and  C_8 
REMARK       I    between atoms: C_8  and  N_9 
REMARK    5  A    between atoms: N_9  and  N_10 
REMARK    6  A    between atoms: N_10  and  C_11 
REMARK    7  A    between atoms: C_11  and  N_12 
REMARK    8  A    between atoms: N_12  and  C_13 
REMARK    9  A    between atoms: C_13  and  C_14 
ROOT
HETATM    1  C   UNL     1      41.508 -13.183   4.179  1.00  0.00     0.078 A 
HETATM    2  O   UNL     1      41.274 -12.587   5.382  1.00  0.00    -0.307 OA
HETATM    3  C   UNL     1      40.000 -12.080   5.357  1.00  0.00     0.145 A 
HETATM    4  C   UNL     1      39.424 -12.375   4.131  1.00  0.00     0.045 A 
HETATM    5  C   UNL     1      40.392 -13.081   3.377  1.00  0.00     0.038 A 
ENDROOT
BRANCH   3   6
HETATM    6  C   UNL     1      39.524 -11.368   6.527  1.00  0.00     0.293 C 
HETATM    7  N   UNL     1      40.523 -10.802   7.305  1.00  0.00    -0.262 N 
HETATM    8  H   UNL     1      41.475 -10.699   6.966  1.00  0.00     0.190 HD
HETATM    9  O   UNL     1      38.339 -11.248   6.845  1.00  0.00    -0.264 OA
BRANCH   7  10
HETATM   10  N   UNL     1      40.151  -9.962   8.373  1.00  0.00    -0.274 N 
HETATM   11  H   UNL     1      39.183  -9.648   8.321  1.00  0.00     0.189 HD
BRANCH  10  12
HETATM   12  C   UNL     1      41.080  -9.136   8.950  1.00  0.00     0.186 C 
HETATM   13  S   UNL     1      41.266  -7.509   8.594  1.00  0.00    -0.040 SA
BRANCH  12  14
HETATM   14  N   UNL     1      41.946  -9.706   9.827  1.00  0.00    -0.364 N 
HETATM   15  H   UNL     1      41.619  -9.713  10.789  1.00  0.00     0.162 HD
BRANCH  14  16
HETATM   16  C   UNL     1      43.368 -10.003   9.670  1.00  0.00     0.154 C 
BRANCH  16  17
HETATM   17  C   UNL     1      43.857  -9.858   8.219  1.00  0.00     0.139 C 
HETATM   18  O   UNL     1      43.623 -11.092   7.509  1.00  0.00    -0.384 OA
HETATM   19  C   UNL     1      44.850 -11.504   6.894  1.00  0.00     0.168 C 
HETATM   20  C   UNL     1      45.963 -10.830   7.660  1.00  0.00     0.029 C 
HETATM   21  C   UNL     1      45.335  -9.521   8.064  1.00  0.00     0.035 C 
ENDBRANCH  16  17
ENDBRANCH  14  16
ENDBRANCH  12  14
ENDBRANCH  10  12
ENDBRANCH   7  10
ENDBRANCH   3   6
BRANCH   1  22
HETATM   22  C   UNL     1      42.849 -13.791   3.976  1.00  0.00     0.240 C 
BRANCH  22  23
HETATM   23  O   UNL     1      42.643 -14.943   3.163  1.00  0.00    -0.345 OA
BRANCH  23  24
HETATM   24  C   UNL     1      43.116 -16.133   3.647  1.00  0.00     0.069 A 
HETATM   25  C   UNL     1      43.592 -16.355   4.951  1.00  0.00     0.037 A 
HETATM   26  C   UNL     1      44.035 -17.624   5.343  1.00  0.00     0.010 A 
HETATM   27  C   UNL     1      43.987 -18.655   4.424  1.00  0.00    -0.052 A 
HETATM   28  C   UNL     1      43.516 -18.439   3.126  1.00  0.00    -0.049 A 
HETATM   29  C   UNL     1      44.439 -20.072   4.597  1.00  0.00     0.039 C 
HETATM   30  C   UNL     1      43.079 -17.187   2.728  1.00  0.00     0.044 A 
HETATM   31  C   UNL     1      43.619 -19.684   2.305  1.00  0.00     0.039 C 
HETATM   32  C   UNL     1      43.755 -20.752   3.401  1.00  0.00     0.009 C 
ENDBRANCH  23  24
ENDBRANCH  22  23
ENDBRANCH   1  22
TORSDOF 9
ENDMDL
MODEL 5
REMARK VINA RESULT:      -8.1      2.455      3.127
REMARK  9 active torsions:
REMARK  status: ('A' for Active; 'I' for Inactive)
REMARK    1  A    between atoms: C_2  and  O_3 
REMARK    2  A    between atoms: O_3  and  C_4 
REMARK    3  A    between atoms: C_4  and  C_5 
REMARK    4  A    between atoms: C_7  and  C_8 
REMARK       I    between atoms: C_8  and  N_9 
REMARK    5  A    between atoms: N_9  and  N_10 
REMARK    6  A    between atoms: N_10  and  C_11 
REMARK    7  A    between atoms: C_11  and  N_12 
REMARK    8  A    between atoms: N_12  and  C_13 
REMARK    9  A    between atoms: C_13  and  C_14 
ROOT
HETATM    1  C   UNL     1      40.216 -14.384   2.535  1.00  0.00     0.078 A 
HETATM    2  O   UNL     1      40.438 -14.232   3.871  1.00  0.00    -0.307 OA
HETATM    3  C   UNL     1      39.943 -13.008   4.241  1.00  0.00     0.145 A 
HETATM    4  C   UNL     1      39.391 -12.393   3.129  1.00  0.00     0.045 A 
HETATM    5  C   UNL     1      39.568 -13.275   2.036  1.00  0.00     0.038 A 
ENDROOT
BRANCH   3   6
HETATM    6  C   UNL     1      40.085 -12.603   5.626  1.00  0.00     0.293 C 
HETATM    7  N   UNL     1      40.797 -11.427   5.813  1.00  0.00    -0.262 N 
HETATM    8  H   UNL     1      41.000 -10.794   5.046  1.00  0.00     0.190 HD
HETATM    9  O   UNL     1      39.628 -13.218   6.591  1.00  0.00    -0.264 OA
BRANCH   7  10
HETATM   10  N   UNL     1      40.855 -10.873   7.107  1.00  0.00    -0.274 N 
HETATM   11  H   UNL     1      39.996 -10.999   7.639  1.00  0.00     0.189 HD
BRANCH  10  12
HETATM   12  C   UNL     1      41.614  -9.755   7.339  1.00  0.00     0.186 C 
HETATM   13  S   UNL     1      41.632  -8.392   6.366  1.00  0.00    -0.040 SA
BRANCH  12  14
HETATM   14  N   UNL     1      42.453  -9.795   8.407  1.00  0.00    -0.364 N 
HETATM   15  H   UNL     1      42.560 -10.718   8.817  1.00  0.00     0.162 HD
BRANCH  14  16
HETATM   16  C   UNL     1      42.952  -8.702   9.238  1.00  0.00     0.154 C 
BRANCH  16  17
HETATM   17  C   UNL     1      44.460  -8.804   9.525  1.00  0.00     0.139 C 
HETATM   18  O   UNL     1      45.194  -8.150   8.468  1.00  0.00    -0.384 OA
HETATM   19  C   UNL     1      46.179  -9.062   7.966  1.00  0.00     0.168 C 
HETATM   20  C   UNL     1      45.706 -10.450   8.327  1.00  0.00     0.029 C 
HETATM   21  C   UNL     1      45.004 -10.222   9.642  1.00  0.00     0.035 C 
ENDBRANCH  16  17
ENDBRANCH  14  16
ENDBRANCH  12  14
ENDBRANCH  10  12
ENDBRANCH   7  10
ENDBRANCH   3   6
BRANCH   1  22
HETATM   22  C   UNL     1      40.694 -15.645   1.911  1.00  0.00     0.240 C 
BRANCH  22  23
HETATM   23  O   UNL     1      42.117 -15.605   1.974  1.00  0.00    -0.345 OA
BRANCH  23  24
HETATM   24  C   UNL     1      42.727 -16.549   2.756  1.00  0.00     0.069 A 
HETATM   25  C   UNL     1      43.227 -16.339   4.052  1.00  0.00     0.037 A 
HETATM   26  C   UNL     1      43.817 -17.388   4.769  1.00  0.00     0.010 A 
HETATM   27  C   UNL     1      43.887 -18.635   4.177  1.00  0.00    -0.052 A 
HETATM   28  C   UNL     1      43.393 -18.848   2.888  1.00  0.00    -0.049 A 
HETATM   29  C   UNL     1      44.502 -19.886   4.724  1.00  0.00     0.039 C 
HETATM   30  C   UNL     1      42.811 -17.817   2.171  1.00  0.00     0.044 A 
HETATM   31  C   UNL     1      43.639 -20.256   2.446  1.00  0.00     0.039 C 
HETATM   32  C   UNL     1      43.901 -20.948   3.791  1.00  0.00     0.009 C 
ENDBRANCH  23  24
ENDBRANCH  22  23
ENDBRANCH   1  22
TORSDOF 9
ENDMDL
MODEL 6
REMARK VINA RESULT:      -8.1      1.791      2.468
REMARK  9 active torsions:
REMARK  status: ('A' for Active; 'I' for Inactive)
REMARK    1  A    between atoms: C_2  and  O_3 
REMARK    2  A    between atoms: O_3  and  C_4 
REMARK    3  A    between atoms: C_4  and  C_5 
REMARK    4  A    between atoms: C_7  and  C_8 
REMARK       I    between atoms: C_8  and  N_9 
REMARK    5  A    between atoms: N_9  and  N_10 
REMARK    6  A    between atoms: N_10  and  C_11 
REMARK    7  A    between atoms: C_11  and  N_12 
REMARK    8  A    between atoms: N_12  and  C_13 
REMARK    9  A    between atoms: C_13  and  C_14 
ROOT
HETATM    1  C   UNL     1      42.018 -12.440   4.128  1.00  0.00     0.078 A 
HETATM    2  O   UNL     1      42.170 -12.258   5.470  1.00  0.00    -0.307 OA
HETATM    3  C   UNL     1      43.416 -11.728   5.682  1.00  0.00     0.145 A 
HETATM    4  C   UNL     1      44.047 -11.562   4.459  1.00  0.00     0.045 A 
HETATM    5  C   UNL     1      43.150 -12.019   3.465  1.00  0.00     0.038 A 
ENDROOT
BRANCH   3   6
HETATM    6  C   UNL     1      43.825 -11.468   7.049  1.00  0.00     0.293 C 
HETATM    7  N   UNL     1      42.972 -10.636   7.758  1.00  0.00    -0.262 N 
HETATM    8  H   UNL     1      42.038 -10.415   7.428  1.00  0.00     0.190 HD
HETATM    9  O   UNL     1      44.837 -11.928   7.581  1.00  0.00    -0.264 OA
BRANCH   7  10
HETATM   10  N   UNL     1      43.203 -10.450   9.136  1.00  0.00    -0.274 N 
HETATM   11  H   UNL     1      43.595 -11.271   9.594  1.00  0.00     0.189 HD
BRANCH  10  12
HETATM   12  C   UNL     1      42.387  -9.621   9.861  1.00  0.00     0.186 C 
HETATM   13  S   UNL     1      42.046  -8.029   9.466  1.00  0.00    -0.040 SA
BRANCH  12  14
HETATM   14  N   UNL     1      41.873 -10.122  11.014  1.00  0.00    -0.364 N 
HETATM   15  H   UNL     1      41.641 -11.110  10.971  1.00  0.00     0.162 HD
BRANCH  14  16
HETATM   16  C   UNL     1      41.310  -9.419  12.164  1.00  0.00     0.154 C 
BRANCH  16  17
HETATM   17  C   UNL     1      42.326  -9.210  13.300  1.00  0.00     0.139 C 
HETATM   18  O   UNL     1      41.620  -8.945  14.531  1.00  0.00    -0.384 OA
HETATM   19  C   UNL     1      42.143  -7.740  15.104  1.00  0.00     0.168 C 
HETATM   20  C   UNL     1      42.784  -6.968  13.975  1.00  0.00     0.029 C 
HETATM   21  C   UNL     1      43.310  -8.067  13.088  1.00  0.00     0.035 C 
ENDBRANCH  16  17
ENDBRANCH  14  16
ENDBRANCH  12  14
ENDBRANCH  10  12
ENDBRANCH   7  10
ENDBRANCH   3   6
BRANCH   1  22
HETATM   22  C   UNL     1      40.733 -13.028   3.667  1.00  0.00     0.240 C 
BRANCH  22  23
HETATM   23  O   UNL     1      40.597 -14.270   4.352  1.00  0.00    -0.345 OA
BRANCH  23  24
HETATM   24  C   UNL     1      41.310 -15.329   3.858  1.00  0.00     0.069 A 
HETATM   25  C   UNL     1      41.330 -15.749   2.517  1.00  0.00     0.037 A 
HETATM   26  C   UNL     1      42.114 -16.838   2.120  1.00  0.00     0.010 A 
HETATM   27  C   UNL     1      42.877 -17.486   3.075  1.00  0.00    -0.052 A 
HETATM   28  C   UNL     1      42.859 -17.073   4.409  1.00  0.00    -0.049 A 
HETATM   29  C   UNL     1      43.753 -18.687   2.900  1.00  0.00     0.039 C 
HETATM   30  C   UNL     1      42.084 -15.999   4.811  1.00  0.00     0.044 A 
HETATM   31  C   UNL     1      43.712 -17.964   5.256  1.00  0.00     0.039 C 
HETATM   32  C   UNL     1      44.587 -18.638   4.190  1.00  0.00     0.009 C 
ENDBRANCH  23  24
ENDBRANCH  22  23
ENDBRANCH   1  22
TORSDOF 9
ENDMDL
MODEL 7
REMARK VINA RESULT:      -8.1      4.142      6.513
REMARK  9 active torsions:
REMARK  status: ('A' for Active; 'I' for Inactive)
REMARK    1  A    between atoms: C_2  and  O_3 
REMARK    2  A    between atoms: O_3  and  C_4 
REMARK    3  A    between atoms: C_4  and  C_5 
REMARK    4  A    between atoms: C_7  and  C_8 
REMARK       I    between atoms: C_8  and  N_9 
REMARK    5  A    between atoms: N_9  and  N_10 
REMARK    6  A    between atoms: N_10  and  C_11 
REMARK    7  A    between atoms: C_11  and  N_12 
REMARK    8  A    between atoms: N_12  and  C_13 
REMARK    9  A    between atoms: C_13  and  C_14 
ROOT
HETATM    1  C   UNL     1      42.108 -15.288   6.821  1.00  0.00     0.078 A 
HETATM    2  O   UNL     1      42.407 -13.991   6.528  1.00  0.00    -0.307 OA
HETATM    3  C   UNL     1      41.248 -13.374   6.132  1.00  0.00     0.145 A 
HETATM    4  C   UNL     1      40.210 -14.290   6.192  1.00  0.00     0.045 A 
HETATM    5  C   UNL     1      40.763 -15.516   6.633  1.00  0.00     0.038 A 
ENDROOT
BRANCH   3   6
HETATM    6  C   UNL     1      41.315 -11.980   5.738  1.00  0.00     0.293 C 
HETATM    7  N   UNL     1      41.830 -11.762   4.469  1.00  0.00    -0.262 N 
HETATM    8  H   UNL     1      41.935 -12.515   3.795  1.00  0.00     0.190 HD
HETATM    9  O   UNL     1      40.954 -11.032   6.438  1.00  0.00    -0.264 OA
BRANCH   7  10
HETATM   10  N   UNL     1      41.790 -10.457   3.940  1.00  0.00    -0.274 N 
HETATM   11  H   UNL     1      41.563  -9.747   4.634  1.00  0.00     0.189 HD
BRANCH  10  12
HETATM   12  C   UNL     1      41.397 -10.256   2.642  1.00  0.00     0.186 C 
HETATM   13  S   UNL     1      40.299  -9.093   2.144  1.00  0.00    -0.040 SA
BRANCH  12  14
HETATM   14  N   UNL     1      41.897 -11.110   1.711  1.00  0.00    -0.364 N 
HETATM   15  H   UNL     1      42.903 -11.047   1.588  1.00  0.00     0.162 HD
BRANCH  14  16
HETATM   16  C   UNL     1      41.204 -11.846   0.657  1.00  0.00     0.154 C 
BRANCH  16  17
HETATM   17  C   UNL     1      40.124 -12.799   1.198  1.00  0.00     0.139 C 
HETATM   18  O   UNL     1      40.512 -13.270   2.506  1.00  0.00    -0.384 OA
HETATM   19  C   UNL     1      40.450 -14.701   2.512  1.00  0.00     0.168 C 
HETATM   20  C   UNL     1      40.553 -15.143   1.071  1.00  0.00     0.029 C 
HETATM   21  C   UNL     1      39.853 -14.027   0.338  1.00  0.00     0.035 C 
ENDBRANCH  16  17
ENDBRANCH  14  16
ENDBRANCH  12  14
ENDBRANCH  10  12
ENDBRANCH   7  10
ENDBRANCH   3   6
BRANCH   1  22
HETATM   22  C   UNL     1      43.232 -16.156   7.259  1.00  0.00     0.240 C 
BRANCH  22  23
HETATM   23  O   UNL     1      44.189 -16.130   6.203  1.00  0.00    -0.345 OA
BRANCH  23  24
HETATM   24  C   UNL     1      43.910 -16.888   5.098  1.00  0.00     0.069 A 
HETATM   25  C   UNL     1      43.482 -16.394   3.854  1.00  0.00     0.037 A 
HETATM   26  C   UNL     1      43.243 -17.265   2.783  1.00  0.00     0.010 A 
HETATM   27  C   UNL     1      43.448 -18.619   2.974  1.00  0.00    -0.052 A 
HETATM   28  C   UNL     1      43.872 -19.114   4.210  1.00  0.00    -0.049 A 
HETATM   29  C   UNL     1      43.223 -19.735   2.002  1.00  0.00     0.039 C 
HETATM   30  C   UNL     1      44.107 -18.261   5.275  1.00  0.00     0.044 A 
HETATM   31  C   UNL     1      43.961 -20.607   4.186  1.00  0.00     0.039 C 
HETATM   32  C   UNL     1      43.998 -20.878   2.675  1.00  0.00     0.009 C 
ENDBRANCH  23  24
ENDBRANCH  22  23
ENDBRANCH   1  22
TORSDOF 9
ENDMDL
MODEL 8
REMARK VINA RESULT:      -8.0      2.101      2.623
REMARK  9 active torsions:
REMARK  status: ('A' for Active; 'I' for Inactive)
REMARK    1  A    between atoms: C_2  and  O_3 
REMARK    2  A    between atoms: O_3  and  C_4 
REMARK    3  A    between atoms: C_4  and  C_5 
REMARK    4  A    between atoms: C_7  and  C_8 
REMARK       I    between atoms: C_8  and  N_9 
REMARK    5  A    between atoms: N_9  and  N_10 
REMARK    6  A    between atoms: N_10  and  C_11 
REMARK    7  A    between atoms: C_11  and  N_12 
REMARK    8  A    between atoms: N_12  and  C_13 
REMARK    9  A    between atoms: C_13  and  C_14 
ROOT
HETATM    1  C   UNL     1      43.410 -13.660   6.385  1.00  0.00     0.078 A 
HETATM    2  O   UNL     1      43.784 -13.083   7.561  1.00  0.00    -0.307 OA
HETATM    3  C   UNL     1      44.130 -11.783   7.297  1.00  0.00     0.145 A 
HETATM    4  C   UNL     1      43.956 -11.538   5.944  1.00  0.00     0.045 A 
HETATM    5  C   UNL     1      43.495 -12.743   5.361  1.00  0.00     0.038 A 
ENDROOT
BRANCH   3   6
HETATM    6  C   UNL     1      44.593 -10.961   8.398  1.00  0.00     0.293 C 
HETATM    7  N   UNL     1      43.699 -10.850   9.453  1.00  0.00    -0.262 N 
HETATM    8  H   UNL     1      42.897 -11.468   9.545  1.00  0.00     0.190 HD
HETATM    9  O   UNL     1      45.684 -10.389   8.440  1.00  0.00    -0.264 OA
BRANCH   7  10
HETATM   10  N   UNL     1      44.121 -10.202  10.630  1.00  0.00    -0.274 N 
HETATM   11  H   UNL     1      44.589 -10.824  11.288  1.00  0.00     0.189 HD
BRANCH  10  12
HETATM   12  C   UNL     1      43.404  -9.143  11.123  1.00  0.00     0.186 C 
HETATM   13  S   UNL     1      43.097  -7.724  10.289  1.00  0.00    -0.040 SA
BRANCH  12  14
HETATM   14  N   UNL     1      42.969  -9.243  12.407  1.00  0.00    -0.364 N 
HETATM   15  H   UNL     1      43.673  -9.018  13.103  1.00  0.00     0.162 HD
BRANCH  14  16
HETATM   16  C   UNL     1      41.787  -9.917  12.938  1.00  0.00     0.154 C 
BRANCH  16  17
HETATM   17  C   UNL     1      40.914  -9.002  13.815  1.00  0.00     0.139 C 
HETATM   18  O   UNL     1      40.466  -7.875  13.033  1.00  0.00    -0.384 OA
HETATM   19  C   UNL     1      40.793  -6.672  13.740  1.00  0.00     0.168 C 
HETATM   20  C   UNL     1      41.917  -7.021  14.687  1.00  0.00     0.029 C 
HETATM   21  C   UNL     1      41.600  -8.447  15.057  1.00  0.00     0.035 C 
ENDBRANCH  16  17
ENDBRANCH  14  16
ENDBRANCH  12  14
ENDBRANCH  10  12
ENDBRANCH   7  10
ENDBRANCH   3   6
BRANCH   1  22
HETATM   22  C   UNL     1      43.008 -15.091   6.433  1.00  0.00     0.240 C 
BRANCH  22  23
HETATM   23  O   UNL     1      44.099 -15.828   5.887  1.00  0.00    -0.345 OA
BRANCH  23  24
HETATM   24  C   UNL     1      43.815 -16.670   4.846  1.00  0.00     0.069 A 
HETATM   25  C   UNL     1      43.305 -16.281   3.596  1.00  0.00     0.037 A 
HETATM   26  C   UNL     1      43.070 -17.230   2.593  1.00  0.00     0.010 A 
HETATM   27  C   UNL     1      43.360 -18.556   2.858  1.00  0.00    -0.052 A 
HETATM   28  C   UNL     1      43.866 -18.947   4.099  1.00  0.00    -0.049 A 
HETATM   29  C   UNL     1      43.156 -19.743   1.968  1.00  0.00     0.039 C 
HETATM   30  C   UNL     1      44.098 -18.016   5.097  1.00  0.00     0.044 A 
HETATM   31  C   UNL     1      44.039 -20.432   4.164  1.00  0.00     0.039 C 
HETATM   32  C   UNL     1      44.025 -20.797   2.672  1.00  0.00     0.009 C 
ENDBRANCH  23  24
ENDBRANCH  22  23
ENDBRANCH   1  22
TORSDOF 9
ENDMDL
MODEL 9
REMARK VINA RESULT:      -8.0      1.895      2.488
REMARK  9 active torsions:
REMARK  status: ('A' for Active; 'I' for Inactive)
REMARK    1  A    between atoms: C_2  and  O_3 
REMARK    2  A    between atoms: O_3  and  C_4 
REMARK    3  A    between atoms: C_4  and  C_5 
REMARK    4  A    between atoms: C_7  and  C_8 
REMARK       I    between atoms: C_8  and  N_9 
REMARK    5  A    between atoms: N_9  and  N_10 
REMARK    6  A    between atoms: N_10  and  C_11 
REMARK    7  A    between atoms: C_11  and  N_12 
REMARK    8  A    between atoms: N_12  and  C_13 
REMARK    9  A    between atoms: C_13  and  C_14 
ROOT
HETATM    1  C   UNL     1      43.169 -13.422   5.854  1.00  0.00     0.078 A 
HETATM    2  O   UNL     1      43.690 -12.914   7.006  1.00  0.00    -0.307 OA
HETATM    3  C   UNL     1      44.055 -11.615   6.763  1.00  0.00     0.145 A 
HETATM    4  C   UNL     1      43.746 -11.301   5.449  1.00  0.00     0.045 A 
HETATM    5  C   UNL     1      43.179 -12.460   4.868  1.00  0.00     0.038 A 
ENDROOT
BRANCH   3   6
HETATM    6  C   UNL     1      44.666 -10.863   7.841  1.00  0.00     0.293 C 
HETATM    7  N   UNL     1      43.875  -9.847   8.358  1.00  0.00    -0.262 N 
HETATM    8  H   UNL     1      42.882  -9.785   8.157  1.00  0.00     0.190 HD
HETATM    9  O   UNL     1      45.792 -11.072   8.297  1.00  0.00    -0.264 OA
BRANCH   7  10
HETATM   10  N   UNL     1      44.320  -9.165   9.507  1.00  0.00    -0.274 N 
HETATM   11  H   UNL     1      45.314  -8.942   9.486  1.00  0.00     0.189 HD
BRANCH  10  12
HETATM   12  C   UNL     1      43.727  -9.407  10.719  1.00  0.00     0.186 C 
HETATM   13  S   UNL     1      43.697 -10.895  11.489  1.00  0.00    -0.040 SA
BRANCH  12  14
HETATM   14  N   UNL     1      43.067  -8.370  11.297  1.00  0.00    -0.364 N 
HETATM   15  H   UNL     1      43.024  -7.533  10.723  1.00  0.00     0.162 HD
BRANCH  14  16
HETATM   16  C   UNL     1      42.708  -8.161  12.698  1.00  0.00     0.154 C 
BRANCH  16  17
HETATM   17  C   UNL     1      41.199  -8.313  12.962  1.00  0.00     0.139 C 
HETATM   18  O   UNL     1      40.969  -9.494  13.758  1.00  0.00    -0.384 OA
HETATM   19  C   UNL     1      39.984 -10.302  13.101  1.00  0.00     0.168 C 
HETATM   20  C   UNL     1      40.000  -9.900  11.645  1.00  0.00     0.029 C 
HETATM   21  C   UNL     1      40.331  -8.431  11.716  1.00  0.00     0.035 C 
ENDBRANCH  16  17
ENDBRANCH  14  16
ENDBRANCH  12  14
ENDBRANCH  10  12
ENDBRANCH   7  10
ENDBRANCH   3   6
BRANCH   1  22
HETATM   22  C   UNL     1      42.720 -14.838   5.884  1.00  0.00     0.240 C 
BRANCH  22  23
HETATM   23  O   UNL     1      43.851 -15.622   5.513  1.00  0.00    -0.345 OA
BRANCH  23  24
HETATM   24  C   UNL     1      43.650 -16.582   4.559  1.00  0.00     0.069 A 
HETATM   25  C   UNL     1      43.196 -16.353   3.249  1.00  0.00     0.037 A 
HETATM   26  C   UNL     1      43.045 -17.415   2.349  1.00  0.00     0.010 A 
HETATM   27  C   UNL     1      43.362 -18.692   2.773  1.00  0.00    -0.052 A 
HETATM   28  C   UNL     1      43.812 -18.925   4.075  1.00  0.00    -0.049 A 
HETATM   29  C   UNL     1      43.244 -19.976   2.013  1.00  0.00     0.039 C 
HETATM   30  C   UNL     1      43.962 -17.882   4.973  1.00  0.00     0.044 A 
HETATM   31  C   UNL     1      44.029 -20.386   4.313  1.00  0.00     0.039 C 
HETATM   32  C   UNL     1      44.106 -20.913   2.873  1.00  0.00     0.009 C 
ENDBRANCH  23  24
ENDBRANCH  22  23
ENDBRANCH   1  22
TORSDOF 9
ENDMDL
MODEL 10
REMARK VINA RESULT:      -7.9      2.173      2.806
REMARK  9 active torsions:
REMARK  status: ('A' for Active; 'I' for Inactive)
REMARK    1  A    between atoms: C_2  and  O_3 
REMARK    2  A    between atoms: O_3  and  C_4 
REMARK    3  A    between atoms: C_4  and  C_5 
REMARK    4  A    between atoms: C_7  and  C_8 
REMARK       I    between atoms: C_8  and  N_9 
REMARK    5  A    between atoms: N_9  and  N_10 
REMARK    6  A    between atoms: N_10  and  C_11 
REMARK    7  A    between atoms: C_11  and  N_12 
REMARK    8  A    between atoms: N_12  and  C_13 
REMARK    9  A    between atoms: C_13  and  C_14 
ROOT
HETATM    1  C   UNL     1      43.153 -13.088   6.232  1.00  0.00     0.078 A 
HETATM    2  O   UNL     1      42.514 -11.970   6.678  1.00  0.00    -0.307 OA
HETATM    3  C   UNL     1      43.439 -11.190   7.324  1.00  0.00     0.145 A 
HETATM    4  C   UNL     1      44.673 -11.818   7.268  1.00  0.00     0.045 A 
HETATM    5  C   UNL     1      44.487 -13.034   6.568  1.00  0.00     0.038 A 
ENDROOT
BRANCH   3   6
HETATM    6  C   UNL     1      42.989  -9.945   7.916  1.00  0.00     0.293 C 
HETATM    7  N   UNL     1      41.640  -9.912   8.239  1.00  0.00    -0.262 N 
HETATM    8  H   UNL     1      41.075 -10.755   8.269  1.00  0.00     0.190 HD
HETATM    9  O   UNL     1      43.709  -8.969   8.136  1.00  0.00    -0.264 OA
BRANCH   7  10
HETATM   10  N   UNL     1      41.146  -8.807   8.958  1.00  0.00    -0.274 N 
HETATM   11  H   UNL     1      41.811  -8.038   9.025  1.00  0.00     0.189 HD
BRANCH  10  12
HETATM   12  C   UNL     1      40.259  -9.000   9.986  1.00  0.00     0.186 C 
HETATM   13  S   UNL     1      38.876  -8.090  10.239  1.00  0.00    -0.040 SA
BRANCH  12  14
HETATM   14  N   UNL     1      40.571  -9.963  10.891  1.00  0.00    -0.364 N 
HETATM   15  H   UNL     1      40.606 -10.901  10.504  1.00  0.00     0.162 HD
BRANCH  14  16
HETATM   16  C   UNL     1      40.541  -9.912  12.351  1.00  0.00     0.154 C 
BRANCH  16  17
HETATM   17  C   UNL     1      41.943  -9.836  12.981  1.00  0.00     0.139 C 
HETATM   18  O   UNL     1      42.054  -8.625  13.757  1.00  0.00    -0.384 OA
HETATM   19  C   UNL     1      43.229  -7.921  13.335  1.00  0.00     0.168 C 
HETATM   20  C   UNL     1      43.547  -8.408  11.941  1.00  0.00     0.029 C 
HETATM   21  C   UNL     1      43.100  -9.847  11.990  1.00  0.00     0.035 C 
ENDBRANCH  16  17
ENDBRANCH  14  16
ENDBRANCH  12  14
ENDBRANCH  10  12
ENDBRANCH   7  10
ENDBRANCH   3   6
BRANCH   1  22
HETATM   22  C   UNL     1      42.329 -14.093   5.511  1.00  0.00     0.240 C 
BRANCH  22  23
HETATM   23  O   UNL     1      42.916 -14.235   4.220  1.00  0.00    -0.345 OA
BRANCH  23  24
HETATM   24  C   UNL     1      43.098 -15.513   3.762  1.00  0.00     0.069 A 
HETATM   25  C   UNL     1      43.089 -15.907   2.413  1.00  0.00     0.037 A 
HETATM   26  C   UNL     1      43.306 -17.244   2.059  1.00  0.00     0.010 A 
HETATM   27  C   UNL     1      43.537 -18.166   3.064  1.00  0.00    -0.052 A 
HETATM   28  C   UNL     1      43.545 -17.778   4.406  1.00  0.00    -0.049 A 
HETATM   29  C   UNL     1      43.752 -19.642   2.934  1.00  0.00     0.039 C 
HETATM   30  C   UNL     1      43.329 -16.459   4.766  1.00  0.00     0.044 A 
HETATM   31  C   UNL     1      43.754 -18.957   5.302  1.00  0.00     0.039 C 
HETATM   32  C   UNL     1      44.334 -19.981   4.315  1.00  0.00     0.009 C 
ENDBRANCH  23  24
ENDBRANCH  22  23
ENDBRANCH   1  22
TORSDOF 9
ENDMDL
