MODEL 1
REMARK VINA RESULT:      -8.9      0.000      0.000
REMARK  5 active torsions:
REMARK  status: ('A' for Active; 'I' for Inactive)
REMARK    1  A    between atoms: C_7  and  C_8 
REMARK    2  A    between atoms: N_9  and  N_10 
REMARK       I    between atoms: N_10  and  C_11 
REMARK    3  A    between atoms: C_11  and  C_12 
REMARK    4  A    between atoms: C_12  and  N_13 
REMARK       I    between atoms: N_13  and  C_14 
REMARK    5  A    between atoms: C_14  and  C_15 
ROOT
HETATM    1  N   UNL     1      40.538 -14.293   2.877  1.00  0.00    -0.246 N 
HETATM    2  C   UNL     1      39.976 -13.260   3.612  1.00  0.00     0.255 C 
HETATM    3  O   UNL     1      39.938 -13.190   4.840  1.00  0.00    -0.270 OA
HETATM    4  H   UNL     1      40.524 -14.241   1.855  1.00  0.00     0.192 HD
ENDROOT
BRANCH   1   5
HETATM    5  N   UNL     1      41.092 -15.366   3.509  1.00  0.00    -0.184 NA
HETATM    6  C   UNL     1      42.381 -15.453   3.436  1.00  0.00     0.153 C 
BRANCH   6   7
HETATM    7  C   UNL     1      43.073 -16.569   4.057  1.00  0.00     0.018 A 
HETATM    8  C   UNL     1      43.691 -16.580   5.303  1.00  0.00     0.018 A 
HETATM    9  C   UNL     1      43.838 -15.515   6.333  1.00  0.00     0.069 C 
HETATM   10  N   UNL     1      44.211 -17.834   5.501  1.00  0.00    -0.358 N 
HETATM   11  H   UNL     1      44.713 -18.128   6.327  1.00  0.00     0.166 HD
HETATM   12  C   UNL     1      43.950 -18.645   4.424  1.00  0.00     0.043 A 
HETATM   13  C   UNL     1      43.240 -17.880   3.498  1.00  0.00     0.004 A 
HETATM   14  C   UNL     1      44.284 -19.987   4.207  1.00  0.00     0.030 A 
HETATM   15  C   UNL     1      42.845 -18.496   2.290  1.00  0.00     0.014 A 
HETATM   16  C   UNL     1      43.171 -19.838   2.056  1.00  0.00     0.001 A 
HETATM   17  C   UNL     1      43.881 -20.570   3.003  1.00  0.00     0.002 A 
ENDBRANCH   6   7
ENDBRANCH   1   5
BRANCH   2  18
HETATM   18  C   UNL     1      39.294 -12.210   2.732  1.00  0.00     0.227 C 
BRANCH  18  19
HETATM   19  N   UNL     1      38.806 -12.736   1.467  1.00  0.00    -0.348 N 
HETATM   20  C   UNL     1      39.316 -12.345   0.255  1.00  0.00     0.253 C 
HETATM   21  O   UNL     1      40.152 -11.446   0.180  1.00  0.00    -0.268 OA
HETATM   22  H   UNL     1      38.036 -13.395   1.503  1.00  0.00     0.163 HD
BRANCH  20  23
HETATM   23  C   UNL     1      38.846 -13.046  -0.979  1.00  0.00     0.053 A 
HETATM   24  C   UNL     1      37.847 -12.595  -1.856  1.00  0.00     0.049 A 
HETATM   25 CL   UNL     1      37.014 -11.088  -1.688  1.00  0.00    -0.083 Cl
HETATM   26  C   UNL     1      37.485 -13.371  -2.968  1.00  0.00     0.025 A 
HETATM   27  C   UNL     1      38.114 -14.589  -3.221  1.00  0.00     0.002 A 
HETATM   28  C   UNL     1      39.115 -15.039  -2.368  1.00  0.00     0.001 A 
HETATM   29  C   UNL     1      39.478 -14.273  -1.258  1.00  0.00     0.019 A 
ENDBRANCH  20  23
ENDBRANCH  18  19
ENDBRANCH   2  18
TORSDOF 5
ENDMDL
MODEL 2
REMARK VINA RESULT:      -8.6      4.123      7.680
REMARK  5 active torsions:
REMARK  status: ('A' for Active; 'I' for Inactive)
REMARK    1  A    between atoms: C_7  and  C_8 
REMARK    2  A    between atoms: N_9  and  N_10 
REMARK       I    between atoms: N_10  and  C_11 
REMARK    3  A    between atoms: C_11  and  C_12 
REMARK    4  A    between atoms: C_12  and  N_13 
REMARK       I    between atoms: N_13  and  C_14 
REMARK    5  A    between atoms: C_14  and  C_15 
ROOT
HETATM    1  N   UNL     1      42.082 -13.334   2.747  1.00  0.00    -0.246 N 
HETATM    2  C   UNL     1      40.852 -13.912   2.468  1.00  0.00     0.255 C 
HETATM    3  O   UNL     1      39.777 -13.590   2.973  1.00  0.00    -0.270 OA
HETATM    4  H   UNL     1      42.913 -13.674   2.256  1.00  0.00     0.192 HD
ENDROOT
BRANCH   1   5
HETATM    5  N   UNL     1      42.180 -12.332   3.666  1.00  0.00    -0.184 NA
HETATM    6  C   UNL     1      42.471 -12.705   4.870  1.00  0.00     0.153 C 
BRANCH   6   7
HETATM    7  C   UNL     1      42.580 -11.721   5.932  1.00  0.00     0.018 A 
HETATM    8  C   UNL     1      41.539 -11.032   6.544  1.00  0.00     0.018 A 
HETATM    9  C   UNL     1      40.068 -11.077   6.316  1.00  0.00     0.069 C 
HETATM   10  N   UNL     1      42.083 -10.210   7.498  1.00  0.00    -0.358 N 
HETATM   11  H   UNL     1      41.556  -9.594   8.101  1.00  0.00     0.166 HD
HETATM   12  C   UNL     1      43.450 -10.341   7.530  1.00  0.00     0.043 A 
HETATM   13  C   UNL     1      43.795 -11.279   6.557  1.00  0.00     0.004 A 
HETATM   14  C   UNL     1      44.395  -9.706   8.345  1.00  0.00     0.030 A 
HETATM   15  C   UNL     1      45.161 -11.596   6.393  1.00  0.00     0.014 A 
HETATM   16  C   UNL     1      46.121 -10.971   7.200  1.00  0.00     0.001 A 
HETATM   17  C   UNL     1      45.739 -10.039   8.161  1.00  0.00     0.002 A 
ENDBRANCH   6   7
ENDBRANCH   1   5
BRANCH   2  18
HETATM   18  C   UNL     1      40.959 -15.098   1.509  1.00  0.00     0.227 C 
BRANCH  18  19
HETATM   19  N   UNL     1      41.474 -16.308   2.130  1.00  0.00    -0.348 N 
HETATM   20  C   UNL     1      42.798 -16.663   2.078  1.00  0.00     0.253 C 
HETATM   21  O   UNL     1      43.602 -16.015   1.410  1.00  0.00    -0.268 OA
HETATM   22  H   UNL     1      40.805 -16.916   2.589  1.00  0.00     0.163 HD
BRANCH  20  23
HETATM   23  C   UNL     1      43.253 -17.850   2.867  1.00  0.00     0.053 A 
HETATM   24  C   UNL     1      43.717 -17.833   4.191  1.00  0.00     0.049 A 
HETATM   25 CL   UNL     1      43.785 -16.416   5.180  1.00  0.00    -0.083 Cl
HETATM   26  C   UNL     1      44.141 -19.023   4.803  1.00  0.00     0.025 A 
HETATM   27  C   UNL     1      44.098 -20.233   4.111  1.00  0.00     0.002 A 
HETATM   28  C   UNL     1      43.626 -20.264   2.804  1.00  0.00     0.001 A 
HETATM   29  C   UNL     1      43.207 -19.083   2.188  1.00  0.00     0.019 A 
ENDBRANCH  20  23
ENDBRANCH  18  19
ENDBRANCH   2  18
TORSDOF 5
ENDMDL
MODEL 3
REMARK VINA RESULT:      -8.4      6.182      9.331
REMARK  5 active torsions:
REMARK  status: ('A' for Active; 'I' for Inactive)
REMARK    1  A    between atoms: C_7  and  C_8 
REMARK    2  A    between atoms: N_9  and  N_10 
REMARK       I    between atoms: N_10  and  C_11 
REMARK    3  A    between atoms: C_11  and  C_12 
REMARK    4  A    between atoms: C_12  and  N_13 
REMARK       I    between atoms: N_13  and  C_14 
REMARK    5  A    between atoms: C_14  and  C_15 
ROOT
HETATM    1  N   UNL     1      43.875 -11.562   6.761  1.00  0.00    -0.246 N 
HETATM    2  C   UNL     1      45.164 -11.171   6.431  1.00  0.00     0.255 C 
HETATM    3  O   UNL     1      45.668 -11.234   5.310  1.00  0.00    -0.270 OA
HETATM    4  H   UNL     1      43.555 -11.453   7.727  1.00  0.00     0.192 HD
ENDROOT
BRANCH   1   5
HETATM    5  N   UNL     1      43.051 -12.091   5.812  1.00  0.00    -0.184 NA
HETATM    6  C   UNL     1      42.640 -13.297   6.037  1.00  0.00     0.153 C 
BRANCH   6   7
HETATM    7  C   UNL     1      41.775 -13.963   5.080  1.00  0.00     0.018 A 
HETATM    8  C   UNL     1      40.456 -13.639   4.779  1.00  0.00     0.018 A 
HETATM    9  C   UNL     1      39.562 -12.576   5.313  1.00  0.00     0.069 C 
HETATM   10  N   UNL     1      40.019 -14.515   3.817  1.00  0.00    -0.358 N 
HETATM   11  H   UNL     1      39.096 -14.510   3.407  1.00  0.00     0.166 HD
HETATM   12  C   UNL     1      41.013 -15.400   3.478  1.00  0.00     0.043 A 
HETATM   13  C   UNL     1      42.127 -15.083   4.255  1.00  0.00     0.004 A 
HETATM   14  C   UNL     1      41.006 -16.445   2.546  1.00  0.00     0.030 A 
HETATM   15  C   UNL     1      43.297 -15.857   4.088  1.00  0.00     0.014 A 
HETATM   16  C   UNL     1      43.308 -16.906   3.159  1.00  0.00     0.001 A 
HETATM   17  C   UNL     1      42.178 -17.193   2.401  1.00  0.00     0.002 A 
ENDBRANCH   6   7
ENDBRANCH   1   5
BRANCH   2  18
HETATM   18  C   UNL     1      45.976 -10.722   7.646  1.00  0.00     0.227 C 
BRANCH  18  19
HETATM   19  N   UNL     1      45.162 -10.204   8.735  1.00  0.00    -0.348 N 
HETATM   20  C   UNL     1      44.971  -8.862   8.945  1.00  0.00     0.253 C 
HETATM   21  O   UNL     1      45.571  -8.025   8.273  1.00  0.00    -0.268 OA
HETATM   22  H   UNL     1      44.751 -10.879   9.370  1.00  0.00     0.163 HD
BRANCH  20  23
HETATM   23  C   UNL     1      44.005  -8.433  10.002  1.00  0.00     0.053 A 
HETATM   24  C   UNL     1      43.011  -7.452   9.864  1.00  0.00     0.049 A 
HETATM   25 CL   UNL     1      42.686  -6.598   8.395  1.00  0.00    -0.083 Cl
HETATM   26  C   UNL     1      42.186  -7.127  10.952  1.00  0.00     0.025 A 
HETATM   27  C   UNL     1      42.335  -7.777  12.176  1.00  0.00     0.002 A 
HETATM   28  C   UNL     1      43.307  -8.761  12.321  1.00  0.00     0.001 A 
HETATM   29  C   UNL     1      44.133  -9.086  11.244  1.00  0.00     0.019 A 
ENDBRANCH  20  23
ENDBRANCH  18  19
ENDBRANCH   2  18
TORSDOF 5
ENDMDL
MODEL 4
REMARK VINA RESULT:      -8.4      1.928      2.165
REMARK  5 active torsions:
REMARK  status: ('A' for Active; 'I' for Inactive)
REMARK    1  A    between atoms: C_7  and  C_8 
REMARK    2  A    between atoms: N_9  and  N_10 
REMARK       I    between atoms: N_10  and  C_11 
REMARK    3  A    between atoms: C_11  and  C_12 
REMARK    4  A    between atoms: C_12  and  N_13 
REMARK       I    between atoms: N_13  and  C_14 
REMARK    5  A    between atoms: C_14  and  C_15 
ROOT
HETATM    1  N   UNL     1      42.467 -13.286   2.504  1.00  0.00    -0.246 N 
HETATM    2  C   UNL     1      42.820 -11.971   2.771  1.00  0.00     0.255 C 
HETATM    3  O   UNL     1      43.763 -11.610   3.472  1.00  0.00    -0.270 OA
HETATM    4  H   UNL     1      41.667 -13.471   1.894  1.00  0.00     0.192 HD
ENDROOT
BRANCH   1   5
HETATM    5  N   UNL     1      43.173 -14.314   3.054  1.00  0.00    -0.184 NA
HETATM    6  C   UNL     1      42.466 -15.295   3.512  1.00  0.00     0.153 C 
BRANCH   6   7
HETATM    7  C   UNL     1      43.117 -16.433   4.138  1.00  0.00     0.018 A 
HETATM    8  C   UNL     1      43.707 -16.471   5.397  1.00  0.00     0.018 A 
HETATM    9  C   UNL     1      43.855 -15.420   6.441  1.00  0.00     0.069 C 
HETATM   10  N   UNL     1      44.192 -17.739   5.594  1.00  0.00    -0.358 N 
HETATM   11  H   UNL     1      44.669 -18.053   6.428  1.00  0.00     0.166 HD
HETATM   12  C   UNL     1      43.936 -18.533   4.503  1.00  0.00     0.043 A 
HETATM   13  C   UNL     1      43.266 -17.743   3.569  1.00  0.00     0.004 A 
HETATM   14  C   UNL     1      44.244 -19.880   4.280  1.00  0.00     0.030 A 
HETATM   15  C   UNL     1      42.884 -18.337   2.346  1.00  0.00     0.014 A 
HETATM   16  C   UNL     1      43.184 -19.685   2.107  1.00  0.00     0.001 A 
HETATM   17  C   UNL     1      43.854 -20.442   3.062  1.00  0.00     0.002 A 
ENDBRANCH   6   7
ENDBRANCH   1   5
BRANCH   2  18
HETATM   18  C   UNL     1      41.840 -10.962   2.170  1.00  0.00     0.227 C 
BRANCH  18  19
HETATM   19  N   UNL     1      40.843 -11.563   1.298  1.00  0.00    -0.348 N 
HETATM   20  C   UNL     1      40.804 -11.331  -0.054  1.00  0.00     0.253 C 
HETATM   21  O   UNL     1      41.560 -10.515  -0.578  1.00  0.00    -0.268 OA
HETATM   22  H   UNL     1      40.139 -12.150   1.731  1.00  0.00     0.163 HD
BRANCH  20  23
HETATM   23  C   UNL     1      39.831 -12.105  -0.885  1.00  0.00     0.053 A 
HETATM   24  C   UNL     1      39.707 -13.502  -0.927  1.00  0.00     0.049 A 
HETATM   25 CL   UNL     1      40.637 -14.589   0.045  1.00  0.00    -0.083 Cl
HETATM   26  C   UNL     1      38.764 -14.100  -1.778  1.00  0.00     0.025 A 
HETATM   27  C   UNL     1      37.937 -13.318  -2.583  1.00  0.00     0.002 A 
HETATM   28  C   UNL     1      38.040 -11.933  -2.540  1.00  0.00     0.001 A 
HETATM   29  C   UNL     1      38.978 -11.332  -1.698  1.00  0.00     0.019 A 
ENDBRANCH  20  23
ENDBRANCH  18  19
ENDBRANCH   2  18
TORSDOF 5
ENDMDL
MODEL 5
REMARK VINA RESULT:      -8.3      6.370      9.371
REMARK  5 active torsions:
REMARK  status: ('A' for Active; 'I' for Inactive)
REMARK    1  A    between atoms: C_7  and  C_8 
REMARK    2  A    between atoms: N_9  and  N_10 
REMARK       I    between atoms: N_10  and  C_11 
REMARK    3  A    between atoms: C_11  and  C_12 
REMARK    4  A    between atoms: C_12  and  N_13 
REMARK       I    between atoms: N_13  and  C_14 
REMARK    5  A    between atoms: C_14  and  C_15 
ROOT
HETATM    1  N   UNL     1      43.089 -12.136   6.770  1.00  0.00    -0.246 N 
HETATM    2  C   UNL     1      43.824 -11.304   7.600  1.00  0.00     0.255 C 
HETATM    3  O   UNL     1      44.943 -11.545   8.051  1.00  0.00    -0.270 OA
HETATM    4  H   UNL     1      42.169 -11.827   6.444  1.00  0.00     0.192 HD
ENDROOT
BRANCH   1   5
HETATM    5  N   UNL     1      43.583 -13.352   6.401  1.00  0.00    -0.184 NA
HETATM    6  C   UNL     1      42.698 -14.247   6.101  1.00  0.00     0.153 C 
BRANCH   6   7
HETATM    7  C   UNL     1      43.115 -15.584   5.715  1.00  0.00     0.018 A 
HETATM    8  C   UNL     1      43.559 -16.597   6.557  1.00  0.00     0.018 A 
HETATM    9  C   UNL     1      43.744 -16.633   8.033  1.00  0.00     0.069 C 
HETATM   10  N   UNL     1      43.840 -17.693   5.781  1.00  0.00    -0.358 N 
HETATM   11  H   UNL     1      44.179 -18.579   6.131  1.00  0.00     0.166 HD
HETATM   12  C   UNL     1      43.591 -17.429   4.456  1.00  0.00     0.043 A 
HETATM   13  C   UNL     1      43.138 -16.111   4.380  1.00  0.00     0.004 A 
HETATM   14  C   UNL     1      43.729 -18.253   3.334  1.00  0.00     0.030 A 
HETATM   15  C   UNL     1      42.807 -15.594   3.108  1.00  0.00     0.014 A 
HETATM   16  C   UNL     1      42.938 -16.406   1.974  1.00  0.00     0.001 A 
HETATM   17  C   UNL     1      43.393 -17.716   2.088  1.00  0.00     0.002 A 
ENDBRANCH   6   7
ENDBRANCH   1   5
BRANCH   2  18
HETATM   18  C   UNL     1      43.056 -10.044   8.004  1.00  0.00     0.227 C 
BRANCH  18  19
HETATM   19  N   UNL     1      42.621 -10.044   9.392  1.00  0.00    -0.348 N 
HETATM   20  C   UNL     1      42.704  -8.935  10.195  1.00  0.00     0.253 C 
HETATM   21  O   UNL     1      43.250  -7.906   9.800  1.00  0.00    -0.268 OA
HETATM   22  H   UNL     1      42.273 -10.918   9.770  1.00  0.00     0.163 HD
BRANCH  20  23
HETATM   23  C   UNL     1      42.100  -8.995  11.563  1.00  0.00     0.053 A 
HETATM   24  C   UNL     1      40.779  -9.356  11.868  1.00  0.00     0.049 A 
HETATM   25 CL   UNL     1      39.615  -9.866  10.694  1.00  0.00    -0.083 Cl
HETATM   26  C   UNL     1      40.336  -9.342  13.199  1.00  0.00     0.025 A 
HETATM   27  C   UNL     1      41.199  -8.979  14.233  1.00  0.00     0.002 A 
HETATM   28  C   UNL     1      42.514  -8.633  13.944  1.00  0.00     0.001 A 
HETATM   29  C   UNL     1      42.960  -8.642  12.621  1.00  0.00     0.019 A 
ENDBRANCH  20  23
ENDBRANCH  18  19
ENDBRANCH   2  18
TORSDOF 5
ENDMDL
MODEL 6
REMARK VINA RESULT:      -8.0      6.170      9.421
REMARK  5 active torsions:
REMARK  status: ('A' for Active; 'I' for Inactive)
REMARK    1  A    between atoms: C_7  and  C_8 
REMARK    2  A    between atoms: N_9  and  N_10 
REMARK       I    between atoms: N_10  and  C_11 
REMARK    3  A    between atoms: C_11  and  C_12 
REMARK    4  A    between atoms: C_12  and  N_13 
REMARK       I    between atoms: N_13  and  C_14 
REMARK    5  A    between atoms: C_14  and  C_15 
ROOT
HETATM    1  N   UNL     1      43.967 -12.641   7.067  1.00  0.00    -0.246 N 
HETATM    2  C   UNL     1      43.581 -11.340   7.352  1.00  0.00     0.255 C 
HETATM    3  O   UNL     1      42.872 -10.630   6.639  1.00  0.00    -0.270 OA
HETATM    4  H   UNL     1      44.550 -13.145   7.741  1.00  0.00     0.192 HD
ENDROOT
BRANCH   1   5
HETATM    5  N   UNL     1      43.581 -13.236   5.903  1.00  0.00    -0.184 NA
HETATM    6  C   UNL     1      42.944 -14.355   6.031  1.00  0.00     0.153 C 
BRANCH   6   7
HETATM    7  C   UNL     1      42.504 -15.082   4.853  1.00  0.00     0.018 A 
HETATM    8  C   UNL     1      41.501 -14.708   3.966  1.00  0.00     0.018 A 
HETATM    9  C   UNL     1      40.606 -13.519   3.944  1.00  0.00     0.069 C 
HETATM   10  N   UNL     1      41.420 -15.674   2.995  1.00  0.00    -0.358 N 
HETATM   11  H   UNL     1      40.776 -15.659   2.216  1.00  0.00     0.166 HD
HETATM   12  C   UNL     1      42.342 -16.668   3.218  1.00  0.00     0.043 A 
HETATM   13  C   UNL     1      43.037 -16.328   4.379  1.00  0.00     0.004 A 
HETATM   14  C   UNL     1      42.609 -17.828   2.482  1.00  0.00     0.030 A 
HETATM   15  C   UNL     1      44.054 -17.200   4.825  1.00  0.00     0.014 A 
HETATM   16  C   UNL     1      44.336 -18.365   4.099  1.00  0.00     0.001 A 
HETATM   17  C   UNL     1      43.621 -18.672   2.945  1.00  0.00     0.002 A 
ENDBRANCH   6   7
ENDBRANCH   1   5
BRANCH   2  18
HETATM   18  C   UNL     1      44.211 -10.803   8.638  1.00  0.00     0.227 C 
BRANCH  18  19
HETATM   19  N   UNL     1      43.255 -10.196   9.549  1.00  0.00    -0.348 N 
HETATM   20  C   UNL     1      43.224 -10.481  10.891  1.00  0.00     0.253 C 
HETATM   21  O   UNL     1      43.951 -11.351  11.370  1.00  0.00    -0.268 OA
HETATM   22  H   UNL     1      42.571  -9.561   9.152  1.00  0.00     0.163 HD
BRANCH  20  23
HETATM   23  C   UNL     1      42.298  -9.701  11.768  1.00  0.00     0.053 A 
HETATM   24  C   UNL     1      40.996  -9.294  11.441  1.00  0.00     0.049 A 
HETATM   25 CL   UNL     1      40.199  -9.689   9.957  1.00  0.00    -0.083 Cl
HETATM   26  C   UNL     1      40.244  -8.539  12.354  1.00  0.00     0.025 A 
HETATM   27  C   UNL     1      40.774  -8.191  13.596  1.00  0.00     0.002 A 
HETATM   28  C   UNL     1      42.057  -8.601  13.937  1.00  0.00     0.001 A 
HETATM   29  C   UNL     1      42.812  -9.350  13.032  1.00  0.00     0.019 A 
ENDBRANCH  20  23
ENDBRANCH  18  19
ENDBRANCH   2  18
TORSDOF 5
ENDMDL
MODEL 7
REMARK VINA RESULT:      -7.9      1.806      2.269
REMARK  5 active torsions:
REMARK  status: ('A' for Active; 'I' for Inactive)
REMARK    1  A    between atoms: C_7  and  C_8 
REMARK    2  A    between atoms: N_9  and  N_10 
REMARK       I    between atoms: N_10  and  C_11 
REMARK    3  A    between atoms: C_11  and  C_12 
REMARK    4  A    between atoms: C_12  and  N_13 
REMARK       I    between atoms: N_13  and  C_14 
REMARK    5  A    between atoms: C_14  and  C_15 
ROOT
HETATM    1  N   UNL     1      41.753 -14.111   2.425  1.00  0.00    -0.246 N 
HETATM    2  C   UNL     1      40.990 -14.293   1.281  1.00  0.00     0.255 C 
HETATM    3  O   UNL     1      40.457 -15.347   0.935  1.00  0.00    -0.270 OA
HETATM    4  H   UNL     1      42.140 -13.184   2.621  1.00  0.00     0.192 HD
ENDROOT
BRANCH   1   5
HETATM    5  N   UNL     1      41.990 -15.154   3.269  1.00  0.00    -0.184 NA
HETATM    6  C   UNL     1      43.169 -15.680   3.191  1.00  0.00     0.153 C 
BRANCH   6   7
HETATM    7  C   UNL     1      43.520 -16.811   4.032  1.00  0.00     0.018 A 
HETATM    8  C   UNL     1      43.853 -16.778   5.382  1.00  0.00     0.018 A 
HETATM    9  C   UNL     1      43.956 -15.642   6.337  1.00  0.00     0.069 C 
HETATM   10  N   UNL     1      44.104 -18.066   5.783  1.00  0.00    -0.358 N 
HETATM   11  H   UNL     1      44.366 -18.340   6.720  1.00  0.00     0.166 HD
HETATM   12  C   UNL     1      43.943 -18.942   4.737  1.00  0.00     0.043 A 
HETATM   13  C   UNL     1      43.580 -18.186   3.622  1.00  0.00     0.004 A 
HETATM   14  C   UNL     1      44.088 -20.333   4.699  1.00  0.00     0.030 A 
HETATM   15  C   UNL     1      43.350 -18.864   2.404  1.00  0.00     0.014 A 
HETATM   16  C   UNL     1      43.490 -20.257   2.349  1.00  0.00     0.001 A 
HETATM   17  C   UNL     1      43.854 -20.978   3.482  1.00  0.00     0.002 A 
ENDBRANCH   6   7
ENDBRANCH   1   5
BRANCH   2  18
HETATM   18  C   UNL     1      40.940 -13.046   0.397  1.00  0.00     0.227 C 
BRANCH  18  19
HETATM   19  N   UNL     1      39.654 -12.838  -0.249  1.00  0.00    -0.348 N 
HETATM   20  C   UNL     1      39.474 -11.941  -1.271  1.00  0.00     0.253 C 
HETATM   21  O   UNL     1      40.383 -11.191  -1.623  1.00  0.00    -0.268 OA
HETATM   22  H   UNL     1      38.864 -13.366   0.106  1.00  0.00     0.163 HD
BRANCH  20  23
HETATM   23  C   UNL     1      38.149 -11.902  -1.964  1.00  0.00     0.053 A 
HETATM   24  C   UNL     1      37.564 -12.951  -2.689  1.00  0.00     0.049 A 
HETATM   25 CL   UNL     1      38.263 -14.525  -2.856  1.00  0.00    -0.083 Cl
HETATM   26  C   UNL     1      36.322 -12.767  -3.315  1.00  0.00     0.025 A 
HETATM   27  C   UNL     1      35.651 -11.549  -3.220  1.00  0.00     0.002 A 
HETATM   28  C   UNL     1      36.213 -10.507  -2.492  1.00  0.00     0.001 A 
HETATM   29  C   UNL     1      37.451 -10.683  -1.869  1.00  0.00     0.019 A 
ENDBRANCH  20  23
ENDBRANCH  18  19
ENDBRANCH   2  18
TORSDOF 5
ENDMDL
MODEL 8
REMARK VINA RESULT:      -7.9      4.602      7.664
REMARK  5 active torsions:
REMARK  status: ('A' for Active; 'I' for Inactive)
REMARK    1  A    between atoms: C_7  and  C_8 
REMARK    2  A    between atoms: N_9  and  N_10 
REMARK       I    between atoms: N_10  and  C_11 
REMARK    3  A    between atoms: C_11  and  C_12 
REMARK    4  A    between atoms: C_12  and  N_13 
REMARK       I    between atoms: N_13  and  C_14 
REMARK    5  A    between atoms: C_14  and  C_15 
ROOT
HETATM    1  N   UNL     1      42.314 -13.193   5.084  1.00  0.00    -0.246 N 
HETATM    2  C   UNL     1      41.046 -12.653   4.925  1.00  0.00     0.255 C 
HETATM    3  O   UNL     1      40.208 -13.021   4.103  1.00  0.00    -0.270 OA
HETATM    4  H   UNL     1      42.927 -12.815   5.811  1.00  0.00     0.192 HD
ENDROOT
BRANCH   1   5
HETATM    5  N   UNL     1      42.738 -14.205   4.276  1.00  0.00    -0.184 NA
HETATM    6  C   UNL     1      42.570 -15.400   4.742  1.00  0.00     0.153 C 
BRANCH   6   7
HETATM    7  C   UNL     1      43.005 -16.551   3.971  1.00  0.00     0.018 A 
HETATM    8  C   UNL     1      43.174 -16.619   2.592  1.00  0.00     0.018 A 
HETATM    9  C   UNL     1      42.969 -15.597   1.529  1.00  0.00     0.069 C 
HETATM   10  N   UNL     1      43.604 -17.885   2.285  1.00  0.00    -0.358 N 
HETATM   11  H   UNL     1      43.811 -18.216   1.352  1.00  0.00     0.166 HD
HETATM   12  C   UNL     1      43.724 -18.648   3.421  1.00  0.00     0.043 A 
HETATM   13  C   UNL     1      43.352 -17.842   4.497  1.00  0.00     0.004 A 
HETATM   14  C   UNL     1      44.134 -19.978   3.571  1.00  0.00     0.030 A 
HETATM   15  C   UNL     1      43.394 -18.400   5.793  1.00  0.00     0.014 A 
HETATM   16  C   UNL     1      43.803 -19.730   5.962  1.00  0.00     0.001 A 
HETATM   17  C   UNL     1      44.166 -20.504   4.865  1.00  0.00     0.002 A 
ENDBRANCH   6   7
ENDBRANCH   1   5
BRANCH   2  18
HETATM   18  C   UNL     1      40.798 -11.448   5.834  1.00  0.00     0.227 C 
BRANCH  18  19
HETATM   19  N   UNL     1      41.857 -11.219   6.804  1.00  0.00    -0.348 N 
HETATM   20  C   UNL     1      42.364  -9.972   7.067  1.00  0.00     0.253 C 
HETATM   21  O   UNL     1      42.008  -8.992   6.412  1.00  0.00    -0.268 OA
HETATM   22  H   UNL     1      42.243 -12.031   7.272  1.00  0.00     0.163 HD
BRANCH  20  23
HETATM   23  C   UNL     1      43.350  -9.819   8.181  1.00  0.00     0.053 A 
HETATM   24  C   UNL     1      44.659 -10.325   8.200  1.00  0.00     0.049 A 
HETATM   25 CL   UNL     1      45.392 -11.175   6.884  1.00  0.00    -0.083 Cl
HETATM   26  C   UNL     1      45.471 -10.131   9.328  1.00  0.00     0.025 A 
HETATM   27  C   UNL     1      44.995  -9.430  10.436  1.00  0.00     0.002 A 
HETATM   28  C   UNL     1      43.705  -8.912  10.422  1.00  0.00     0.001 A 
HETATM   29  C   UNL     1      42.891  -9.104   9.304  1.00  0.00     0.019 A 
ENDBRANCH  20  23
ENDBRANCH  18  19
ENDBRANCH   2  18
TORSDOF 5
ENDMDL
MODEL 9
REMARK VINA RESULT:      -7.9      5.829      8.529
REMARK  5 active torsions:
REMARK  status: ('A' for Active; 'I' for Inactive)
REMARK    1  A    between atoms: C_7  and  C_8 
REMARK    2  A    between atoms: N_9  and  N_10 
REMARK       I    between atoms: N_10  and  C_11 
REMARK    3  A    between atoms: C_11  and  C_12 
REMARK    4  A    between atoms: C_12  and  N_13 
REMARK       I    between atoms: N_13  and  C_14 
REMARK    5  A    between atoms: C_14  and  C_15 
ROOT
HETATM    1  N   UNL     1      43.703 -12.841   6.569  1.00  0.00    -0.246 N 
HETATM    2  C   UNL     1      44.469 -11.687   6.496  1.00  0.00     0.255 C 
HETATM    3  O   UNL     1      44.895 -11.173   5.462  1.00  0.00    -0.270 OA
HETATM    4  H   UNL     1      43.393 -13.174   7.486  1.00  0.00     0.192 HD
ENDROOT
BRANCH   1   5
HETATM    5  N   UNL     1      43.378 -13.525   5.436  1.00  0.00    -0.184 NA
HETATM    6  C   UNL     1      42.824 -14.680   5.619  1.00  0.00     0.153 C 
BRANCH   6   7
HETATM    7  C   UNL     1      42.456 -15.501   4.480  1.00  0.00     0.018 A 
HETATM    8  C   UNL     1      41.459 -15.239   3.547  1.00  0.00     0.018 A 
HETATM    9  C   UNL     1      40.502 -14.104   3.430  1.00  0.00     0.069 C 
HETATM   10  N   UNL     1      41.455 -16.265   2.637  1.00  0.00    -0.358 N 
HETATM   11  H   UNL     1      40.832 -16.334   1.844  1.00  0.00     0.166 HD
HETATM   12  C   UNL     1      42.422 -17.191   2.944  1.00  0.00     0.043 A 
HETATM   13  C   UNL     1      43.066 -16.743   4.098  1.00  0.00     0.004 A 
HETATM   14  C   UNL     1      42.771 -18.378   2.289  1.00  0.00     0.030 A 
HETATM   15  C   UNL     1      44.117 -17.529   4.621  1.00  0.00     0.014 A 
HETATM   16  C   UNL     1      44.480 -18.719   3.977  1.00  0.00     0.001 A 
HETATM   17  C   UNL     1      43.814 -19.135   2.828  1.00  0.00     0.002 A 
ENDBRANCH   6   7
ENDBRANCH   1   5
BRANCH   2  18
HETATM   18  C   UNL     1      44.836 -11.132   7.873  1.00  0.00     0.227 C 
BRANCH  18  19
HETATM   19  N   UNL     1      43.684 -10.777   8.686  1.00  0.00    -0.348 N 
HETATM   20  C   UNL     1      43.383  -9.481   9.020  1.00  0.00     0.253 C 
HETATM   21  O   UNL     1      44.142  -8.558   8.725  1.00  0.00    -0.268 OA
HETATM   22  H   UNL     1      43.110 -11.535   9.036  1.00  0.00     0.163 HD
BRANCH  20  23
HETATM   23  C   UNL     1      42.101  -9.206   9.740  1.00  0.00     0.053 A 
HETATM   24  C   UNL     1      41.962  -8.953  11.113  1.00  0.00     0.049 A 
HETATM   25 CL   UNL     1      43.287  -8.851  12.221  1.00  0.00    -0.083 Cl
HETATM   26  C   UNL     1      40.690  -8.736  11.663  1.00  0.00     0.025 A 
HETATM   27  C   UNL     1      39.552  -8.761  10.857  1.00  0.00     0.002 A 
HETATM   28  C   UNL     1      39.679  -8.996   9.493  1.00  0.00     0.001 A 
HETATM   29  C   UNL     1      40.942  -9.216   8.940  1.00  0.00     0.019 A 
ENDBRANCH  20  23
ENDBRANCH  18  19
ENDBRANCH   2  18
TORSDOF 5
ENDMDL
MODEL 10
REMARK VINA RESULT:      -7.8      3.197      8.867
REMARK  5 active torsions:
REMARK  status: ('A' for Active; 'I' for Inactive)
REMARK    1  A    between atoms: C_7  and  C_8 
REMARK    2  A    between atoms: N_9  and  N_10 
REMARK       I    between atoms: N_10  and  C_11 
REMARK    3  A    between atoms: C_11  and  C_12 
REMARK    4  A    between atoms: C_12  and  N_13 
REMARK       I    between atoms: N_13  and  C_14 
REMARK    5  A    between atoms: C_14  and  C_15 
ROOT
HETATM    1  N   UNL     1      41.179 -12.522   1.464  1.00  0.00    -0.246 N 
HETATM    2  C   UNL     1      42.031 -11.587   2.033  1.00  0.00     0.255 C 
HETATM    3  O   UNL     1      42.218 -10.442   1.621  1.00  0.00    -0.270 OA
HETATM    4  H   UNL     1      41.092 -13.444   1.900  1.00  0.00     0.192 HD
ENDROOT
BRANCH   1   5
HETATM    5  N   UNL     1      40.475 -12.217   0.338  1.00  0.00    -0.184 NA
HETATM    6  C   UNL     1      39.424 -12.941   0.122  1.00  0.00     0.153 C 
BRANCH   6   7
HETATM    7  C   UNL     1      38.613 -12.714  -1.061  1.00  0.00     0.018 A 
HETATM    8  C   UNL     1      38.605 -13.472  -2.226  1.00  0.00     0.018 A 
HETATM    9  C   UNL     1      39.381 -14.682  -2.614  1.00  0.00     0.069 C 
HETATM   10  N   UNL     1      37.688 -12.915  -3.082  1.00  0.00    -0.358 N 
HETATM   11  H   UNL     1      37.471 -13.265  -4.005  1.00  0.00     0.166 HD
HETATM   12  C   UNL     1      37.094 -11.816  -2.511  1.00  0.00     0.043 A 
HETATM   13  C   UNL     1      37.655 -11.660  -1.243  1.00  0.00     0.004 A 
HETATM   14  C   UNL     1      36.110 -10.961  -3.018  1.00  0.00     0.030 A 
HETATM   15  C   UNL     1      37.204 -10.588  -0.443  1.00  0.00     0.014 A 
HETATM   16  C   UNL     1      36.218  -9.723  -0.935  1.00  0.00     0.001 A 
HETATM   17  C   UNL     1      35.681  -9.909  -2.205  1.00  0.00     0.002 A 
ENDBRANCH   6   7
ENDBRANCH   1   5
BRANCH   2  18
HETATM   18  C   UNL     1      42.826 -12.150   3.212  1.00  0.00     0.227 C 
BRANCH  18  19
HETATM   19  N   UNL     1      43.167 -13.556   3.069  1.00  0.00    -0.348 N 
HETATM   20  C   UNL     1      42.883 -14.490   4.033  1.00  0.00     0.253 C 
HETATM   21  O   UNL     1      42.410 -14.155   5.119  1.00  0.00    -0.268 OA
HETATM   22  H   UNL     1      43.661 -13.832   2.228  1.00  0.00     0.163 HD
BRANCH  20  23
HETATM   23  C   UNL     1      43.145 -15.931   3.734  1.00  0.00     0.053 A 
HETATM   24  C   UNL     1      43.853 -16.829   4.547  1.00  0.00     0.049 A 
HETATM   25 CL   UNL     1      44.504 -16.428   6.099  1.00  0.00    -0.083 Cl
HETATM   26  C   UNL     1      44.048 -18.154   4.129  1.00  0.00     0.025 A 
HETATM   27  C   UNL     1      43.538 -18.598   2.909  1.00  0.00     0.002 A 
HETATM   28  C   UNL     1      42.822 -17.722   2.102  1.00  0.00     0.001 A 
HETATM   29  C   UNL     1      42.627 -16.401   2.511  1.00  0.00     0.019 A 
ENDBRANCH  20  23
ENDBRANCH  18  19
ENDBRANCH   2  18
TORSDOF 5
ENDMDL
