MODEL 1
REMARK VINA RESULT:      -7.5      0.000      0.000
REMARK  6 active torsions:
REMARK  status: ('A' for Active; 'I' for Inactive)
REMARK    1  A    between atoms: C_3  and  N_4 
REMARK       I    between atoms: N_4  and  C_5 
REMARK       I    between atoms: C_5  and  N_6 
REMARK    2  A    between atoms: N_6  and  C_7 
REMARK    3  A    between atoms: C_7  and  C_8 
REMARK    4  A    between atoms: C_9  and  O_10 
REMARK    5  A    between atoms: O_10  and  C_11 
REMARK    6  A    between atoms: C_11  and  C_12 
ROOT
HETATM    1  N   UNL     1      40.428 -14.544   3.930  1.00  0.00    -0.307 N 
HETATM    2  C   UNL     1      41.720 -14.761   3.494  1.00  0.00     0.321 C 
HETATM    3  N   UNL     1      41.866 -16.069   3.092  1.00  0.00    -0.339 N 
HETATM    4  O   UNL     1      42.641 -13.958   3.524  1.00  0.00    -0.247 OA
HETATM    5  H   UNL     1      40.050 -15.366   4.379  1.00  0.00     0.170 HD
HETATM    6  H   UNL     1      41.063 -16.478   2.634  1.00  0.00     0.164 HD
ENDROOT
BRANCH   3   7
HETATM    7  C   UNL     1      43.141 -16.573   2.636  1.00  0.00     0.165 C 
BRANCH   7   8
HETATM    8  C   UNL     1      43.384 -18.004   3.049  1.00  0.00    -0.007 A 
HETATM    9  C   UNL     1      43.861 -18.331   4.333  1.00  0.00     0.076 A 
HETATM   10  C   UNL     1      44.132 -19.665   4.649  1.00  0.00     0.037 A 
HETATM   11  C   UNL     1      43.918 -20.675   3.706  1.00  0.00     0.003 A 
HETATM   12  C   UNL     1      43.424 -20.359   2.445  1.00  0.00     0.001 A 
HETATM   13  C   UNL     1      43.156 -19.033   2.117  1.00  0.00     0.011 A 
BRANCH   9  14
HETATM   14  O   UNL     1      43.998 -17.278   5.202  1.00  0.00    -0.350 OA
BRANCH  14  15
HETATM   15  C   UNL     1      43.696 -17.513   6.579  1.00  0.00     0.179 C 
BRANCH  15  16
HETATM   16  C   UNL     1      43.146 -16.211   7.181  1.00  0.00     0.002 C 
HETATM   17  C   UNL     1      43.867 -14.993   6.596  1.00  0.00     0.011 C 
HETATM   18  C   UNL     1      41.642 -16.102   6.939  1.00  0.00     0.011 C 
ENDBRANCH  15  16
ENDBRANCH  14  15
ENDBRANCH   9  14
ENDBRANCH   7   8
ENDBRANCH   3   7
BRANCH   1  19
HETATM   19  C   UNL     1      39.940 -13.301   4.395  1.00  0.00     0.059 A 
HETATM   20  C   UNL     1      39.478 -12.261   3.576  1.00  0.00    -0.032 A 
HETATM   21  C   UNL     1      39.373 -12.349   2.080  1.00  0.00     0.050 C 
HETATM   22  C   UNL     1      39.059 -11.070   4.191  1.00  0.00     0.028 A 
HETATM   23  C   UNL     1      39.058 -10.978   5.575  1.00  0.00     0.117 A 
HETATM   24  N   UNL     1      39.434 -11.982   6.389  1.00  0.00    -0.271 NA
HETATM   25  C   UNL     1      39.860 -13.112   5.778  1.00  0.00     0.146 A 
ENDBRANCH   1  19
TORSDOF 6
ENDMDL
MODEL 2
REMARK VINA RESULT:      -7.4      1.807      2.640
REMARK  6 active torsions:
REMARK  status: ('A' for Active; 'I' for Inactive)
REMARK    1  A    between atoms: C_3  and  N_4 
REMARK       I    between atoms: N_4  and  C_5 
REMARK       I    between atoms: C_5  and  N_6 
REMARK    2  A    between atoms: N_6  and  C_7 
REMARK    3  A    between atoms: C_7  and  C_8 
REMARK    4  A    between atoms: C_9  and  O_10 
REMARK    5  A    between atoms: O_10  and  C_11 
REMARK    6  A    between atoms: C_11  and  C_12 
ROOT
HETATM    1  N   UNL     1      40.598 -15.287   1.852  1.00  0.00    -0.307 N 
HETATM    2  C   UNL     1      41.957 -15.525   1.822  1.00  0.00     0.321 C 
HETATM    3  N   UNL     1      42.221 -16.799   2.274  1.00  0.00    -0.339 N 
HETATM    4  O   UNL     1      42.829 -14.723   1.522  1.00  0.00    -0.247 OA
HETATM    5  H   UNL     1      40.160 -15.761   2.630  1.00  0.00     0.170 HD
HETATM    6  H   UNL     1      41.541 -17.502   2.021  1.00  0.00     0.164 HD
ENDROOT
BRANCH   3   7
HETATM    7  C   UNL     1      43.576 -17.285   2.390  1.00  0.00     0.165 C 
BRANCH   7   8
HETATM    8  C   UNL     1      43.678 -18.531   3.236  1.00  0.00    -0.007 A 
HETATM    9  C   UNL     1      43.793 -18.463   4.638  1.00  0.00     0.076 A 
HETATM   10  C   UNL     1      43.949 -19.642   5.374  1.00  0.00     0.037 A 
HETATM   11  C   UNL     1      43.977 -20.882   4.730  1.00  0.00     0.003 A 
HETATM   12  C   UNL     1      43.840 -20.955   3.348  1.00  0.00     0.001 A 
HETATM   13  C   UNL     1      43.689 -19.787   2.604  1.00  0.00     0.011 A 
BRANCH   9  14
HETATM   14  O   UNL     1      43.712 -17.206   5.181  1.00  0.00    -0.350 OA
BRANCH  14  15
HETATM   15  C   UNL     1      42.931 -17.048   6.368  1.00  0.00     0.179 C 
BRANCH  15  16
HETATM   16  C   UNL     1      42.024 -15.822   6.187  1.00  0.00     0.002 C 
HETATM   17  C   UNL     1      42.734 -14.732   5.378  1.00  0.00     0.011 C 
HETATM   18  C   UNL     1      40.716 -16.219   5.506  1.00  0.00     0.011 C 
ENDBRANCH  15  16
ENDBRANCH  14  15
ENDBRANCH   9  14
ENDBRANCH   7   8
ENDBRANCH   3   7
BRANCH   1  19
HETATM   19  C   UNL     1      39.989 -14.080   1.437  1.00  0.00     0.059 A 
HETATM   20  C   UNL     1      39.586 -13.046   2.293  1.00  0.00    -0.032 A 
HETATM   21  C   UNL     1      39.808 -13.046   3.778  1.00  0.00     0.050 C 
HETATM   22  C   UNL     1      38.959 -11.923   1.726  1.00  0.00     0.028 A 
HETATM   23  C   UNL     1      38.813 -11.843   0.350  1.00  0.00     0.117 A 
HETATM   24  N   UNL     1      39.249 -12.790  -0.502  1.00  0.00    -0.271 NA
HETATM   25  C   UNL     1      39.825 -13.877   0.063  1.00  0.00     0.146 A 
ENDBRANCH   1  19
TORSDOF 6
ENDMDL
MODEL 3
REMARK VINA RESULT:      -7.3      2.398      7.125
REMARK  6 active torsions:
REMARK  status: ('A' for Active; 'I' for Inactive)
REMARK    1  A    between atoms: C_3  and  N_4 
REMARK       I    between atoms: N_4  and  C_5 
REMARK       I    between atoms: C_5  and  N_6 
REMARK    2  A    between atoms: N_6  and  C_7 
REMARK    3  A    between atoms: C_7  and  C_8 
REMARK    4  A    between atoms: C_9  and  O_10 
REMARK    5  A    between atoms: O_10  and  C_11 
REMARK    6  A    between atoms: C_11  and  C_12 
ROOT
HETATM    1  N   UNL     1      44.331 -17.292   4.974  1.00  0.00    -0.307 N 
HETATM    2  C   UNL     1      43.382 -16.613   5.712  1.00  0.00     0.321 C 
HETATM    3  N   UNL     1      43.966 -15.548   6.359  1.00  0.00    -0.339 N 
HETATM    4  O   UNL     1      42.211 -16.930   5.857  1.00  0.00    -0.247 OA
HETATM    5  H   UNL     1      45.232 -17.275   5.430  1.00  0.00     0.170 HD
HETATM    6  H   UNL     1      44.698 -15.073   5.849  1.00  0.00     0.164 HD
ENDROOT
BRANCH   3   7
HETATM    7  C   UNL     1      43.201 -14.699   7.244  1.00  0.00     0.165 C 
BRANCH   7   8
HETATM    8  C   UNL     1      43.104 -13.277   6.749  1.00  0.00    -0.007 A 
HETATM    9  C   UNL     1      42.050 -12.857   5.914  1.00  0.00     0.076 A 
HETATM   10  C   UNL     1      42.037 -11.546   5.428  1.00  0.00     0.037 A 
HETATM   11  C   UNL     1      43.052 -10.650   5.776  1.00  0.00     0.003 A 
HETATM   12  C   UNL     1      44.081 -11.054   6.619  1.00  0.00     0.001 A 
HETATM   13  C   UNL     1      44.108 -12.359   7.105  1.00  0.00     0.011 A 
BRANCH   9  14
HETATM   14  O   UNL     1      41.080 -13.794   5.663  1.00  0.00    -0.350 OA
BRANCH  14  15
HETATM   15  C   UNL     1      40.387 -13.711   4.416  1.00  0.00     0.179 C 
BRANCH  15  16
HETATM   16  C   UNL     1      41.111 -14.610   3.402  1.00  0.00     0.002 C 
HETATM   17  C   UNL     1      40.127 -15.568   2.723  1.00  0.00     0.011 C 
HETATM   18  C   UNL     1      41.834 -13.765   2.356  1.00  0.00     0.011 C 
ENDBRANCH  15  16
ENDBRANCH  14  15
ENDBRANCH   9  14
ENDBRANCH   7   8
ENDBRANCH   3   7
BRANCH   1  19
HETATM   19  C   UNL     1      44.059 -18.427   4.175  1.00  0.00     0.059 A 
HETATM   20  C   UNL     1      43.607 -18.388   2.849  1.00  0.00    -0.032 A 
HETATM   21  C   UNL     1      43.412 -17.123   2.062  1.00  0.00     0.050 C 
HETATM   22  C   UNL     1      43.346 -19.607   2.201  1.00  0.00     0.028 A 
HETATM   23  C   UNL     1      43.596 -20.800   2.862  1.00  0.00     0.117 A 
HETATM   24  N   UNL     1      44.091 -20.870   4.112  1.00  0.00    -0.271 NA
HETATM   25  C   UNL     1      44.311 -19.686   4.730  1.00  0.00     0.146 A 
ENDBRANCH   1  19
TORSDOF 6
ENDMDL
MODEL 4
REMARK VINA RESULT:      -7.2      2.499      3.646
REMARK  6 active torsions:
REMARK  status: ('A' for Active; 'I' for Inactive)
REMARK    1  A    between atoms: C_3  and  N_4 
REMARK       I    between atoms: N_4  and  C_5 
REMARK       I    between atoms: C_5  and  N_6 
REMARK    2  A    between atoms: N_6  and  C_7 
REMARK    3  A    between atoms: C_7  and  C_8 
REMARK    4  A    between atoms: C_9  and  O_10 
REMARK    5  A    between atoms: O_10  and  C_11 
REMARK    6  A    between atoms: C_11  and  C_12 
ROOT
HETATM    1  N   UNL     1      41.247 -14.019   0.343  1.00  0.00    -0.307 N 
HETATM    2  C   UNL     1      41.210 -14.423   1.662  1.00  0.00     0.321 C 
HETATM    3  N   UNL     1      42.472 -14.783   2.078  1.00  0.00    -0.339 N 
HETATM    4  O   UNL     1      40.212 -14.536   2.360  1.00  0.00    -0.247 OA
HETATM    5  H   UNL     1      41.937 -14.539  -0.181  1.00  0.00     0.170 HD
HETATM    6  H   UNL     1      43.230 -14.233   1.701  1.00  0.00     0.164 HD
ENDROOT
BRANCH   3   7
HETATM    7  C   UNL     1      42.702 -15.295   3.410  1.00  0.00     0.165 C 
BRANCH   7   8
HETATM    8  C   UNL     1      43.122 -16.744   3.413  1.00  0.00    -0.007 A 
HETATM    9  C   UNL     1      43.868 -17.293   4.475  1.00  0.00     0.076 A 
HETATM   10  C   UNL     1      44.289 -18.624   4.405  1.00  0.00     0.037 A 
HETATM   11  C   UNL     1      43.963 -19.414   3.299  1.00  0.00     0.003 A 
HETATM   12  C   UNL     1      43.206 -18.883   2.260  1.00  0.00     0.001 A 
HETATM   13  C   UNL     1      42.786 -17.557   2.316  1.00  0.00     0.011 A 
BRANCH   9  14
HETATM   14  O   UNL     1      44.101 -16.453   5.534  1.00  0.00    -0.350 OA
BRANCH  14  15
HETATM   15  C   UNL     1      43.638 -16.867   6.821  1.00  0.00     0.179 C 
BRANCH  15  16
HETATM   16  C   UNL     1      42.711 -15.774   7.374  1.00  0.00     0.002 C 
HETATM   17  C   UNL     1      43.241 -14.381   7.022  1.00  0.00     0.011 C 
HETATM   18  C   UNL     1      41.293 -15.952   6.838  1.00  0.00     0.011 C 
ENDBRANCH  15  16
ENDBRANCH  14  15
ENDBRANCH   9  14
ENDBRANCH   7   8
ENDBRANCH   3   7
BRANCH   1  19
HETATM   19  C   UNL     1      40.123 -13.568  -0.386  1.00  0.00     0.059 A 
HETATM   20  C   UNL     1      39.579 -12.278  -0.310  1.00  0.00    -0.032 A 
HETATM   21  C   UNL     1      40.162 -11.165   0.514  1.00  0.00     0.050 C 
HETATM   22  C   UNL     1      38.433 -11.995  -1.072  1.00  0.00     0.028 A 
HETATM   23  C   UNL     1      37.913 -12.968  -1.912  1.00  0.00     0.117 A 
HETATM   24  N   UNL     1      38.451 -14.193  -2.056  1.00  0.00    -0.271 NA
HETATM   25  C   UNL     1      39.539 -14.457  -1.294  1.00  0.00     0.146 A 
ENDBRANCH   1  19
TORSDOF 6
ENDMDL
MODEL 5
REMARK VINA RESULT:      -7.2      3.113      7.147
REMARK  6 active torsions:
REMARK  status: ('A' for Active; 'I' for Inactive)
REMARK    1  A    between atoms: C_3  and  N_4 
REMARK       I    between atoms: N_4  and  C_5 
REMARK       I    between atoms: C_5  and  N_6 
REMARK    2  A    between atoms: N_6  and  C_7 
REMARK    3  A    between atoms: C_7  and  C_8 
REMARK    4  A    between atoms: C_9  and  O_10 
REMARK    5  A    between atoms: O_10  and  C_11 
REMARK    6  A    between atoms: C_11  and  C_12 
ROOT
HETATM    1  N   UNL     1      44.236 -17.129   4.969  1.00  0.00    -0.307 N 
HETATM    2  C   UNL     1      43.243 -16.396   5.587  1.00  0.00     0.321 C 
HETATM    3  N   UNL     1      43.796 -15.321   6.247  1.00  0.00    -0.339 N 
HETATM    4  O   UNL     1      42.054 -16.675   5.632  1.00  0.00    -0.247 OA
HETATM    5  H   UNL     1      45.090 -17.118   5.508  1.00  0.00     0.170 HD
HETATM    6  H   UNL     1      44.586 -14.887   5.791  1.00  0.00     0.164 HD
ENDROOT
BRANCH   3   7
HETATM    7  C   UNL     1      42.976 -14.418   7.021  1.00  0.00     0.165 C 
BRANCH   7   8
HETATM    8  C   UNL     1      42.533 -13.210   6.232  1.00  0.00    -0.007 A 
HETATM    9  C   UNL     1      43.391 -12.114   6.018  1.00  0.00     0.076 A 
HETATM   10  C   UNL     1      42.917 -10.990   5.336  1.00  0.00     0.037 A 
HETATM   11  C   UNL     1      41.605 -10.954   4.855  1.00  0.00     0.003 A 
HETATM   12  C   UNL     1      40.761 -12.044   5.043  1.00  0.00     0.001 A 
HETATM   13  C   UNL     1      41.222 -13.167   5.726  1.00  0.00     0.011 A 
BRANCH   9  14
HETATM   14  O   UNL     1      44.671 -12.260   6.490  1.00  0.00    -0.350 OA
BRANCH  14  15
HETATM   15  C   UNL     1      45.515 -11.106   6.479  1.00  0.00     0.179 C 
BRANCH  15  16
HETATM   16  C   UNL     1      45.800 -10.704   7.934  1.00  0.00     0.002 C 
HETATM   17  C   UNL     1      46.428  -9.309   8.000  1.00  0.00     0.011 C 
HETATM   18  C   UNL     1      44.518 -10.747   8.762  1.00  0.00     0.011 C 
ENDBRANCH  15  16
ENDBRANCH  14  15
ENDBRANCH   9  14
ENDBRANCH   7   8
ENDBRANCH   3   7
BRANCH   1  19
HETATM   19  C   UNL     1      44.006 -18.287   4.191  1.00  0.00     0.059 A 
HETATM   20  C   UNL     1      43.562 -18.289   2.861  1.00  0.00    -0.032 A 
HETATM   21  C   UNL     1      43.332 -17.047   2.049  1.00  0.00     0.050 C 
HETATM   22  C   UNL     1      43.345 -19.528   2.236  1.00  0.00     0.028 A 
HETATM   23  C   UNL     1      43.628 -20.699   2.922  1.00  0.00     0.117 A 
HETATM   24  N   UNL     1      44.117 -20.729   4.176  1.00  0.00    -0.271 NA
HETATM   25  C   UNL     1      44.295 -19.526   4.773  1.00  0.00     0.146 A 
ENDBRANCH   1  19
TORSDOF 6
ENDMDL
MODEL 6
REMARK VINA RESULT:      -7.2      3.128      5.424
REMARK  6 active torsions:
REMARK  status: ('A' for Active; 'I' for Inactive)
REMARK    1  A    between atoms: C_3  and  N_4 
REMARK       I    between atoms: N_4  and  C_5 
REMARK       I    between atoms: C_5  and  N_6 
REMARK    2  A    between atoms: N_6  and  C_7 
REMARK    3  A    between atoms: C_7  and  C_8 
REMARK    4  A    between atoms: C_9  and  O_10 
REMARK    5  A    between atoms: O_10  and  C_11 
REMARK    6  A    between atoms: C_11  and  C_12 
ROOT
HETATM    1  N   UNL     1      39.582 -13.886   0.463  1.00  0.00    -0.307 N 
HETATM    2  C   UNL     1      40.259 -14.811   1.233  1.00  0.00     0.321 C 
HETATM    3  N   UNL     1      39.518 -15.122   2.351  1.00  0.00    -0.339 N 
HETATM    4  O   UNL     1      41.382 -15.247   1.027  1.00  0.00    -0.247 OA
HETATM    5  H   UNL     1      39.050 -13.250   1.038  1.00  0.00     0.170 HD
HETATM    6  H   UNL     1      38.517 -15.156   2.217  1.00  0.00     0.164 HD
ENDROOT
BRANCH   3   7
HETATM    7  C   UNL     1      40.023 -16.031   3.354  1.00  0.00     0.165 C 
BRANCH   7   8
HETATM    8  C   UNL     1      41.096 -15.412   4.216  1.00  0.00    -0.007 A 
HETATM    9  C   UNL     1      42.287 -16.101   4.519  1.00  0.00     0.076 A 
HETATM   10  C   UNL     1      43.224 -15.514   5.373  1.00  0.00     0.037 A 
HETATM   11  C   UNL     1      42.994 -14.246   5.915  1.00  0.00     0.003 A 
HETATM   12  C   UNL     1      41.831 -13.552   5.599  1.00  0.00     0.001 A 
HETATM   13  C   UNL     1      40.887 -14.130   4.753  1.00  0.00     0.011 A 
BRANCH   9  14
HETATM   14  O   UNL     1      42.441 -17.320   3.907  1.00  0.00    -0.350 OA
BRANCH  14  15
HETATM   15  C   UNL     1      43.395 -17.410   2.846  1.00  0.00     0.179 C 
BRANCH  15  16
HETATM   16  C   UNL     1      44.101 -18.771   2.948  1.00  0.00     0.002 C 
HETATM   17  C   UNL     1      44.244 -19.202   4.411  1.00  0.00     0.011 C 
HETATM   18  C   UNL     1      43.339 -19.831   2.156  1.00  0.00     0.011 C 
ENDBRANCH  15  16
ENDBRANCH  14  15
ENDBRANCH   9  14
ENDBRANCH   7   8
ENDBRANCH   3   7
BRANCH   1  19
HETATM   19  C   UNL     1      40.058 -13.368  -0.764  1.00  0.00     0.059 A 
HETATM   20  C   UNL     1      39.810 -13.929  -2.025  1.00  0.00    -0.032 A 
HETATM   21  C   UNL     1      38.939 -15.130  -2.256  1.00  0.00     0.050 C 
HETATM   22  C   UNL     1      40.387 -13.314  -3.148  1.00  0.00     0.028 A 
HETATM   23  C   UNL     1      41.127 -12.152  -2.988  1.00  0.00     0.117 A 
HETATM   24  N   UNL     1      41.328 -11.555  -1.799  1.00  0.00    -0.271 NA
HETATM   25  C   UNL     1      40.788 -12.176  -0.724  1.00  0.00     0.146 A 
ENDBRANCH   1  19
TORSDOF 6
ENDMDL
MODEL 7
REMARK VINA RESULT:      -6.9      3.552      5.123
REMARK  6 active torsions:
REMARK  status: ('A' for Active; 'I' for Inactive)
REMARK    1  A    between atoms: C_3  and  N_4 
REMARK       I    between atoms: N_4  and  C_5 
REMARK       I    between atoms: C_5  and  N_6 
REMARK    2  A    between atoms: N_6  and  C_7 
REMARK    3  A    between atoms: C_7  and  C_8 
REMARK    4  A    between atoms: C_9  and  O_10 
REMARK    5  A    between atoms: O_10  and  C_11 
REMARK    6  A    between atoms: C_11  and  C_12 
ROOT
HETATM    1  N   UNL     1      43.911 -12.238   6.002  1.00  0.00    -0.307 N 
HETATM    2  C   UNL     1      43.544 -13.471   6.503  1.00  0.00     0.321 C 
HETATM    3  N   UNL     1      43.116 -14.285   5.478  1.00  0.00    -0.339 N 
HETATM    4  O   UNL     1      43.514 -13.798   7.680  1.00  0.00    -0.247 OA
HETATM    5  H   UNL     1      43.335 -11.976   5.215  1.00  0.00     0.170 HD
HETATM    6  H   UNL     1      43.606 -14.180   4.601  1.00  0.00     0.164 HD
ENDROOT
BRANCH   3   7
HETATM    7  C   UNL     1      42.625 -15.619   5.738  1.00  0.00     0.165 C 
BRANCH   7   8
HETATM    8  C   UNL     1      43.128 -16.631   4.738  1.00  0.00    -0.007 A 
HETATM    9  C   UNL     1      42.662 -16.647   3.409  1.00  0.00     0.076 A 
HETATM   10  C   UNL     1      43.108 -17.643   2.535  1.00  0.00     0.037 A 
HETATM   11  C   UNL     1      44.021 -18.609   2.967  1.00  0.00     0.003 A 
HETATM   12  C   UNL     1      44.502 -18.582   4.272  1.00  0.00     0.001 A 
HETATM   13  C   UNL     1      44.060 -17.598   5.153  1.00  0.00     0.011 A 
BRANCH   9  14
HETATM   14  O   UNL     1      41.802 -15.634   3.067  1.00  0.00    -0.350 OA
BRANCH  14  15
HETATM   15  C   UNL     1      42.153 -14.819   1.946  1.00  0.00     0.179 C 
BRANCH  15  16
HETATM   16  C   UNL     1      41.090 -15.017   0.855  1.00  0.00     0.002 C 
HETATM   17  C   UNL     1      39.880 -15.778   1.405  1.00  0.00     0.011 C 
HETATM   18  C   UNL     1      40.652 -13.670   0.283  1.00  0.00     0.011 C 
ENDBRANCH  15  16
ENDBRANCH  14  15
ENDBRANCH   9  14
ENDBRANCH   7   8
ENDBRANCH   3   7
BRANCH   1  19
HETATM   19  C   UNL     1      44.414 -11.175   6.787  1.00  0.00     0.059 A 
HETATM   20  C   UNL     1      43.635 -10.164   7.366  1.00  0.00    -0.032 A 
HETATM   21  C   UNL     1      42.136 -10.107   7.289  1.00  0.00     0.050 C 
HETATM   22  C   UNL     1      44.291  -9.154   8.090  1.00  0.00     0.028 A 
HETATM   23  C   UNL     1      45.666  -9.216   8.258  1.00  0.00     0.117 A 
HETATM   24  N   UNL     1      46.432 -10.209   7.770  1.00  0.00    -0.271 NA
HETATM   25  C   UNL     1      45.787 -11.159   7.053  1.00  0.00     0.146 A 
ENDBRANCH   1  19
TORSDOF 6
ENDMDL
MODEL 8
REMARK VINA RESULT:      -6.8      3.580      5.099
REMARK  6 active torsions:
REMARK  status: ('A' for Active; 'I' for Inactive)
REMARK    1  A    between atoms: C_3  and  N_4 
REMARK       I    between atoms: N_4  and  C_5 
REMARK       I    between atoms: C_5  and  N_6 
REMARK    2  A    between atoms: N_6  and  C_7 
REMARK    3  A    between atoms: C_7  and  C_8 
REMARK    4  A    between atoms: C_9  and  O_10 
REMARK    5  A    between atoms: O_10  and  C_11 
REMARK    6  A    between atoms: C_11  and  C_12 
ROOT
HETATM    1  N   UNL     1      43.144 -11.877   7.330  1.00  0.00    -0.307 N 
HETATM    2  C   UNL     1      42.503 -11.945   6.109  1.00  0.00     0.321 C 
HETATM    3  N   UNL     1      41.658 -13.031   6.082  1.00  0.00    -0.339 N 
HETATM    4  O   UNL     1      42.694 -11.216   5.147  1.00  0.00    -0.247 OA
HETATM    5  H   UNL     1      43.324 -12.799   7.701  1.00  0.00     0.170 HD
HETATM    6  H   UNL     1      41.191 -13.244   6.952  1.00  0.00     0.164 HD
ENDROOT
BRANCH   3   7
HETATM    7  C   UNL     1      40.903 -13.362   4.896  1.00  0.00     0.165 C 
BRANCH   7   8
HETATM    8  C   UNL     1      41.692 -14.193   3.914  1.00  0.00    -0.007 A 
HETATM    9  C   UNL     1      42.241 -15.438   4.277  1.00  0.00     0.076 A 
HETATM   10  C   UNL     1      43.019 -16.144   3.354  1.00  0.00     0.037 A 
HETATM   11  C   UNL     1      43.241 -15.629   2.074  1.00  0.00     0.003 A 
HETATM   12  C   UNL     1      42.680 -14.412   1.703  1.00  0.00     0.001 A 
HETATM   13  C   UNL     1      41.908 -13.698   2.617  1.00  0.00     0.011 A 
BRANCH   9  14
HETATM   14  O   UNL     1      41.933 -15.879   5.540  1.00  0.00    -0.350 OA
BRANCH  14  15
HETATM   15  C   UNL     1      42.528 -17.103   5.976  1.00  0.00     0.179 C 
BRANCH  15  16
HETATM   16  C   UNL     1      43.528 -16.781   7.096  1.00  0.00     0.002 C 
HETATM   17  C   UNL     1      44.895 -16.408   6.516  1.00  0.00     0.011 C 
HETATM   18  C   UNL     1      43.000 -15.649   7.975  1.00  0.00     0.011 C 
ENDBRANCH  15  16
ENDBRANCH  14  15
ENDBRANCH   9  14
ENDBRANCH   7   8
ENDBRANCH   3   7
BRANCH   1  19
HETATM   19  C   UNL     1      44.066 -10.869   7.693  1.00  0.00     0.059 A 
HETATM   20  C   UNL     1      43.733  -9.667   8.334  1.00  0.00    -0.032 A 
HETATM   21  C   UNL     1      42.347  -9.311   8.791  1.00  0.00     0.050 C 
HETATM   22  C   UNL     1      44.763  -8.747   8.594  1.00  0.00     0.028 A 
HETATM   23  C   UNL     1      46.070  -9.074   8.268  1.00  0.00     0.117 A 
HETATM   24  N   UNL     1      46.429 -10.246   7.711  1.00  0.00    -0.271 NA
HETATM   25  C   UNL     1      45.421 -11.109   7.443  1.00  0.00     0.146 A 
ENDBRANCH   1  19
TORSDOF 6
ENDMDL
MODEL 9
REMARK VINA RESULT:      -6.6      3.636      5.218
REMARK  6 active torsions:
REMARK  status: ('A' for Active; 'I' for Inactive)
REMARK    1  A    between atoms: C_3  and  N_4 
REMARK       I    between atoms: N_4  and  C_5 
REMARK       I    between atoms: C_5  and  N_6 
REMARK    2  A    between atoms: N_6  and  C_7 
REMARK    3  A    between atoms: C_7  and  C_8 
REMARK    4  A    between atoms: C_9  and  O_10 
REMARK    5  A    between atoms: O_10  and  C_11 
REMARK    6  A    between atoms: C_11  and  C_12 
ROOT
HETATM    1  N   UNL     1      43.819 -11.354   6.536  1.00  0.00    -0.307 N 
HETATM    2  C   UNL     1      43.598 -12.705   6.716  1.00  0.00     0.321 C 
HETATM    3  N   UNL     1      43.399 -13.314   5.498  1.00  0.00    -0.339 N 
HETATM    4  O   UNL     1      43.505 -13.289   7.786  1.00  0.00    -0.247 OA
HETATM    5  H   UNL     1      43.288 -10.997   5.755  1.00  0.00     0.170 HD
HETATM    6  H   UNL     1      43.950 -12.952   4.732  1.00  0.00     0.164 HD
ENDROOT
BRANCH   3   7
HETATM    7  C   UNL     1      43.094 -14.724   5.408  1.00  0.00     0.165 C 
BRANCH   7   8
HETATM    8  C   UNL     1      43.062 -15.224   3.985  1.00  0.00    -0.007 A 
HETATM    9  C   UNL     1      43.092 -16.601   3.687  1.00  0.00     0.076 A 
HETATM   10  C   UNL     1      43.125 -17.016   2.353  1.00  0.00     0.037 A 
HETATM   11  C   UNL     1      43.114 -16.077   1.317  1.00  0.00     0.003 A 
HETATM   12  C   UNL     1      43.061 -14.718   1.607  1.00  0.00     0.001 A 
HETATM   13  C   UNL     1      43.033 -14.293   2.933  1.00  0.00     0.011 A 
BRANCH   9  14
HETATM   14  O   UNL     1      43.057 -17.444   4.769  1.00  0.00    -0.350 OA
BRANCH  14  15
HETATM   15  C   UNL     1      44.124 -18.386   4.907  1.00  0.00     0.179 C 
BRANCH  15  16
HETATM   16  C   UNL     1      43.564 -19.655   5.565  1.00  0.00     0.002 C 
HETATM   17  C   UNL     1      44.481 -20.854   5.306  1.00  0.00     0.011 C 
HETATM   18  C   UNL     1      43.381 -19.444   7.067  1.00  0.00     0.011 C 
ENDBRANCH  15  16
ENDBRANCH  14  15
ENDBRANCH   9  14
ENDBRANCH   7   8
ENDBRANCH   3   7
BRANCH   1  19
HETATM   19  C   UNL     1      44.077 -10.440   7.583  1.00  0.00     0.059 A 
HETATM   20  C   UNL     1      45.352 -10.087   8.048  1.00  0.00    -0.032 A 
HETATM   21  C   UNL     1      46.636 -10.583   7.446  1.00  0.00     0.050 C 
HETATM   22  C   UNL     1      45.440  -9.190   9.126  1.00  0.00     0.028 A 
HETATM   23  C   UNL     1      44.282  -8.641   9.655  1.00  0.00     0.117 A 
HETATM   24  N   UNL     1      43.048  -8.910   9.188  1.00  0.00    -0.271 NA
HETATM   25  C   UNL     1      42.981  -9.797   8.167  1.00  0.00     0.146 A 
ENDBRANCH   1  19
TORSDOF 6
ENDMDL
MODEL 10
REMARK VINA RESULT:      -6.4      3.391      5.376
REMARK  6 active torsions:
REMARK  status: ('A' for Active; 'I' for Inactive)
REMARK    1  A    between atoms: C_3  and  N_4 
REMARK       I    between atoms: N_4  and  C_5 
REMARK       I    between atoms: C_5  and  N_6 
REMARK    2  A    between atoms: N_6  and  C_7 
REMARK    3  A    between atoms: C_7  and  C_8 
REMARK    4  A    between atoms: C_9  and  O_10 
REMARK    5  A    between atoms: O_10  and  C_11 
REMARK    6  A    between atoms: C_11  and  C_12 
ROOT
HETATM    1  N   UNL     1      40.678 -13.771  -0.751  1.00  0.00    -0.307 N 
HETATM    2  C   UNL     1      40.773 -14.287   0.526  1.00  0.00     0.321 C 
HETATM    3  N   UNL     1      42.065 -14.692   0.772  1.00  0.00    -0.339 N 
HETATM    4  O   UNL     1      39.854 -14.450   1.314  1.00  0.00    -0.247 OA
HETATM    5  H   UNL     1      41.299 -14.251  -1.388  1.00  0.00     0.170 HD
HETATM    6  H   UNL     1      42.790 -14.119   0.364  1.00  0.00     0.164 HD
ENDROOT
BRANCH   3   7
HETATM    7  C   UNL     1      42.426 -15.318   2.024  1.00  0.00     0.165 C 
BRANCH   7   8
HETATM    8  C   UNL     1      42.784 -14.317   3.095  1.00  0.00    -0.007 A 
HETATM    9  C   UNL     1      42.628 -14.614   4.463  1.00  0.00     0.076 A 
HETATM   10  C   UNL     1      42.911 -13.634   5.418  1.00  0.00     0.037 A 
HETATM   11  C   UNL     1      43.361 -12.370   5.025  1.00  0.00     0.003 A 
HETATM   12  C   UNL     1      43.539 -12.080   3.676  1.00  0.00     0.001 A 
HETATM   13  C   UNL     1      43.255 -13.048   2.716  1.00  0.00     0.011 A 
BRANCH   9  14
HETATM   14  O   UNL     1      42.222 -15.893   4.751  1.00  0.00    -0.350 OA
BRANCH  14  15
HETATM   15  C   UNL     1      42.307 -16.322   6.112  1.00  0.00     0.179 C 
BRANCH  15  16
HETATM   16  C   UNL     1      43.507 -17.272   6.244  1.00  0.00     0.002 C 
HETATM   17  C   UNL     1      43.718 -18.066   4.951  1.00  0.00     0.011 C 
HETATM   18  C   UNL     1      44.772 -16.493   6.598  1.00  0.00     0.011 C 
ENDBRANCH  15  16
ENDBRANCH  14  15
ENDBRANCH   9  14
ENDBRANCH   7   8
ENDBRANCH   3   7
BRANCH   1  19
HETATM   19  C   UNL     1      39.491 -13.249  -1.315  1.00  0.00     0.059 A 
HETATM   20  C   UNL     1      38.637 -13.946  -2.182  1.00  0.00    -0.032 A 
HETATM   21  C   UNL     1      38.831 -15.381  -2.582  1.00  0.00     0.050 C 
HETATM   22  C   UNL     1      37.513 -13.273  -2.688  1.00  0.00     0.028 A 
HETATM   23  C   UNL     1      37.249 -11.976  -2.276  1.00  0.00     0.117 A 
HETATM   24  N   UNL     1      38.014 -11.304  -1.395  1.00  0.00    -0.271 NA
HETATM   25  C   UNL     1      39.108 -11.958  -0.939  1.00  0.00     0.146 A 
ENDBRANCH   1  19
TORSDOF 6
ENDMDL
