MODEL 1
REMARK VINA RESULT:      -9.9      0.000      0.000
REMARK  5 active torsions:
REMARK  status: ('A' for Active; 'I' for Inactive)
REMARK    1  A    between atoms: C_4  and  N_5 
REMARK    2  A    between atoms: C_7  and  C_8 
REMARK       I    between atoms: C_8  and  N_9 
REMARK    3  A    between atoms: N_9  and  N_10 
REMARK       I    between atoms: N_10  and  C_11 
REMARK    4  A    between atoms: C_11  and  C_12 
REMARK    5  A    between atoms: C_16  and  C_17 
ROOT
HETATM    1  C   UNL     1      44.176 -10.815   8.541  1.00  0.00     0.286 C 
HETATM    2  N   UNL     1      43.225 -11.508   7.829  1.00  0.00    -0.262 N 
HETATM    3  O   UNL     1      45.307 -11.231   8.764  1.00  0.00    -0.264 OA
HETATM    4  H   UNL     1      42.286 -11.148   7.652  1.00  0.00     0.190 HD
ENDROOT
BRANCH   2   5
HETATM    5  N   UNL     1      43.591 -12.755   7.314  1.00  0.00    -0.262 N 
HETATM    6  C   UNL     1      42.846 -13.358   6.324  1.00  0.00     0.288 C 
HETATM    7  O   UNL     1      41.871 -12.817   5.808  1.00  0.00    -0.264 OA
HETATM    8  H   UNL     1      44.369 -13.218   7.775  1.00  0.00     0.190 HD
BRANCH   6   9
HETATM    9  C   UNL     1      43.307 -14.668   5.946  1.00  0.00     0.121 A 
HETATM   10  N   UNL     1      44.345 -15.291   6.580  1.00  0.00    -0.272 N 
HETATM   11  H   UNL     1      44.897 -14.928   7.351  1.00  0.00     0.189 HD
HETATM   12  N   UNL     1      44.623 -16.517   6.107  1.00  0.00    -0.174 NA
HETATM   13  C   UNL     1      43.752 -16.702   5.103  1.00  0.00     0.089 A 
HETATM   14  C   UNL     1      42.907 -15.565   4.975  1.00  0.00     0.071 A 
BRANCH  13  15
HETATM   15  C   UNL     1      43.725 -17.934   4.306  1.00  0.00    -0.006 A 
HETATM   16  C   UNL     1      44.097 -19.160   4.877  1.00  0.00     0.014 A 
HETATM   17  C   UNL     1      44.052 -20.340   4.129  1.00  0.00     0.001 A 
HETATM   18  C   UNL     1      43.642 -20.308   2.798  1.00  0.00     0.000 A 
HETATM   19  C   UNL     1      43.277 -19.098   2.213  1.00  0.00     0.001 A 
HETATM   20  C   UNL     1      43.319 -17.918   2.962  1.00  0.00     0.014 A 
ENDBRANCH  13  15
ENDBRANCH   6   9
ENDBRANCH   2   5
BRANCH   1  21
HETATM   21  C   UNL     1      43.750  -9.448   9.049  1.00  0.00     0.125 C 
HETATM   22  N   UNL     1      42.738  -9.357   9.860  1.00  0.00    -0.164 NA
HETATM   23  N   UNL     1      42.372  -8.097  10.322  1.00  0.00    -0.200 N 
HETATM   24  C   UNL     1      42.963  -6.910   9.861  1.00  0.00     0.245 C 
HETATM   25  C   UNL     1      43.703  -7.066   8.560  1.00  0.00     0.111 C 
HETATM   26  O   UNL     1      42.899  -5.804  10.395  1.00  0.00    -0.271 OA
HETATM   27  C   UNL     1      44.587  -8.282   8.620  1.00  0.00     0.076 C 
BRANCH  23  28
HETATM   28  C   UNL     1      41.418  -8.119  11.392  1.00  0.00     0.068 A 
HETATM   29  C   UNL     1      41.900  -8.265  12.711  1.00  0.00     0.039 A 
HETATM   30  C   UNL     1      41.044  -8.231  13.822  1.00  0.00    -0.060 A 
HETATM   31  C   UNL     1      41.590  -8.315  15.216  1.00  0.00     0.048 C 
HETATM   32  C   UNL     1      39.680  -8.044  13.616  1.00  0.00     0.007 A 
HETATM   33  C   UNL     1      39.175  -7.945  12.320  1.00  0.00     0.009 A 
HETATM   34  C   UNL     1      40.024  -8.011  11.197  1.00  0.00    -0.033 A 
HETATM   35  C   UNL     1      39.349  -8.014   9.850  1.00  0.00     0.050 C 
ENDBRANCH  23  28
ENDBRANCH   1  21
TORSDOF 5
ENDMDL
MODEL 2
REMARK VINA RESULT:      -9.7      2.254     11.185
REMARK  5 active torsions:
REMARK  status: ('A' for Active; 'I' for Inactive)
REMARK    1  A    between atoms: C_4  and  N_5 
REMARK    2  A    between atoms: C_7  and  C_8 
REMARK       I    between atoms: C_8  and  N_9 
REMARK    3  A    between atoms: N_9  and  N_10 
REMARK       I    between atoms: N_10  and  C_11 
REMARK    4  A    between atoms: C_11  and  C_12 
REMARK    5  A    between atoms: C_16  and  C_17 
ROOT
HETATM    1  C   UNL     1      42.690 -13.138   5.794  1.00  0.00     0.286 C 
HETATM    2  N   UNL     1      43.821 -13.028   6.570  1.00  0.00    -0.262 N 
HETATM    3  O   UNL     1      41.627 -12.584   6.047  1.00  0.00    -0.264 OA
HETATM    4  H   UNL     1      44.700 -13.496   6.347  1.00  0.00     0.190 HD
ENDROOT
BRANCH   2   5
HETATM    5  N   UNL     1      43.745 -12.212   7.703  1.00  0.00    -0.262 N 
HETATM    6  C   UNL     1      44.622 -11.165   7.881  1.00  0.00     0.288 C 
HETATM    7  O   UNL     1      45.465 -10.858   7.041  1.00  0.00    -0.264 OA
HETATM    8  H   UNL     1      43.078 -12.497   8.415  1.00  0.00     0.190 HD
BRANCH   6   9
HETATM    9  C   UNL     1      44.465 -10.461   9.127  1.00  0.00     0.121 A 
HETATM   10  N   UNL     1      45.467  -9.712   9.677  1.00  0.00    -0.272 N 
HETATM   11  H   UNL     1      46.400  -9.569   9.302  1.00  0.00     0.189 HD
HETATM   12  N   UNL     1      45.134  -9.110  10.830  1.00  0.00    -0.174 NA
HETATM   13  C   UNL     1      43.871  -9.496  11.066  1.00  0.00     0.089 A 
HETATM   14  C   UNL     1      43.415 -10.340  10.016  1.00  0.00     0.071 A 
BRANCH  13  15
HETATM   15  C   UNL     1      43.126  -9.056  12.251  1.00  0.00    -0.006 A 
HETATM   16  C   UNL     1      42.045  -9.810  12.735  1.00  0.00     0.014 A 
HETATM   17  C   UNL     1      41.347  -9.407  13.876  1.00  0.00     0.001 A 
HETATM   18  C   UNL     1      41.714  -8.241  14.544  1.00  0.00     0.000 A 
HETATM   19  C   UNL     1      42.778  -7.477  14.073  1.00  0.00     0.001 A 
HETATM   20  C   UNL     1      43.480  -7.881  12.933  1.00  0.00     0.014 A 
ENDBRANCH  13  15
ENDBRANCH   6   9
ENDBRANCH   2   5
BRANCH   1  21
HETATM   21  C   UNL     1      42.827 -14.001   4.552  1.00  0.00     0.125 C 
HETATM   22  N   UNL     1      43.222 -15.233   4.673  1.00  0.00    -0.164 NA
HETATM   23  N   UNL     1      43.330 -16.009   3.523  1.00  0.00    -0.200 N 
HETATM   24  C   UNL     1      43.152 -15.493   2.230  1.00  0.00     0.245 C 
HETATM   25  C   UNL     1      43.251 -13.993   2.157  1.00  0.00     0.111 C 
HETATM   26  O   UNL     1      42.961 -16.140   1.202  1.00  0.00    -0.271 OA
HETATM   27  C   UNL     1      42.425 -13.374   3.252  1.00  0.00     0.076 C 
BRANCH  23  28
HETATM   28  C   UNL     1      43.528 -17.407   3.776  1.00  0.00     0.068 A 
HETATM   29  C   UNL     1      43.407 -18.303   2.692  1.00  0.00     0.039 A 
HETATM   30  C   UNL     1      43.649 -19.677   2.834  1.00  0.00    -0.060 A 
HETATM   31  C   UNL     1      43.584 -20.597   1.651  1.00  0.00     0.048 C 
HETATM   32  C   UNL     1      44.023 -20.170   4.082  1.00  0.00     0.007 A 
HETATM   33  C   UNL     1      44.103 -19.311   5.177  1.00  0.00     0.009 A 
HETATM   34  C   UNL     1      43.829 -17.935   5.050  1.00  0.00    -0.033 A 
HETATM   35  C   UNL     1      43.830 -17.133   6.326  1.00  0.00     0.050 C 
ENDBRANCH  23  28
ENDBRANCH   1  21
TORSDOF 5
ENDMDL
MODEL 3
REMARK VINA RESULT:      -9.4      1.695      2.828
REMARK  5 active torsions:
REMARK  status: ('A' for Active; 'I' for Inactive)
REMARK    1  A    between atoms: C_4  and  N_5 
REMARK    2  A    between atoms: C_7  and  C_8 
REMARK       I    between atoms: C_8  and  N_9 
REMARK    3  A    between atoms: N_9  and  N_10 
REMARK       I    between atoms: N_10  and  C_11 
REMARK    4  A    between atoms: C_11  and  C_12 
REMARK    5  A    between atoms: C_16  and  C_17 
ROOT
HETATM    1  C   UNL     1      44.199 -11.543   7.156  1.00  0.00     0.286 C 
HETATM    2  N   UNL     1      43.067 -12.263   6.853  1.00  0.00    -0.262 N 
HETATM    3  O   UNL     1      45.329 -11.858   6.803  1.00  0.00    -0.264 OA
HETATM    4  H   UNL     1      42.131 -11.987   7.155  1.00  0.00     0.190 HD
ENDROOT
BRANCH   2   5
HETATM    5  N   UNL     1      43.227 -13.412   6.075  1.00  0.00    -0.262 N 
HETATM    6  C   UNL     1      42.875 -13.419   4.743  1.00  0.00     0.288 C 
HETATM    7  O   UNL     1      42.465 -12.417   4.162  1.00  0.00    -0.264 OA
HETATM    8  H   UNL     1      43.521 -14.250   6.569  1.00  0.00     0.190 HD
BRANCH   6   9
HETATM    9  C   UNL     1      43.031 -14.694   4.091  1.00  0.00     0.121 A 
HETATM   10  N   UNL     1      43.034 -14.826   2.732  1.00  0.00    -0.272 N 
HETATM   11  H   UNL     1      42.925 -14.086   2.045  1.00  0.00     0.189 HD
HETATM   12  N   UNL     1      43.212 -16.086   2.302  1.00  0.00    -0.174 NA
HETATM   13  C   UNL     1      43.306 -16.820   3.422  1.00  0.00     0.089 A 
HETATM   14  C   UNL     1      43.202 -15.980   4.565  1.00  0.00     0.071 A 
BRANCH  13  15
HETATM   15  C   UNL     1      43.503 -18.274   3.391  1.00  0.00    -0.006 A 
HETATM   16  C   UNL     1      43.245 -19.004   2.221  1.00  0.00     0.014 A 
HETATM   17  C   UNL     1      43.453 -20.385   2.180  1.00  0.00     0.001 A 
HETATM   18  C   UNL     1      43.914 -21.056   3.310  1.00  0.00     0.000 A 
HETATM   19  C   UNL     1      44.167 -20.348   4.482  1.00  0.00     0.001 A 
HETATM   20  C   UNL     1      43.963 -18.965   4.523  1.00  0.00     0.014 A 
ENDBRANCH  13  15
ENDBRANCH   6   9
ENDBRANCH   2   5
BRANCH   1  21
HETATM   21  C   UNL     1      43.977 -10.279   7.970  1.00  0.00     0.125 C 
HETATM   22  N   UNL     1      42.765  -9.849   8.159  1.00  0.00    -0.164 NA
HETATM   23  N   UNL     1      42.583  -8.696   8.917  1.00  0.00    -0.200 N 
HETATM   24  C   UNL     1      43.648  -7.910   9.383  1.00  0.00     0.245 C 
HETATM   25  C   UNL     1      44.947  -8.161   8.666  1.00  0.00     0.111 C 
HETATM   26  O   UNL     1      43.596  -7.054  10.265  1.00  0.00    -0.271 OA
HETATM   27  C   UNL     1      45.194  -9.641   8.565  1.00  0.00     0.076 C 
BRANCH  23  28
HETATM   28  C   UNL     1      41.219  -8.441   9.278  1.00  0.00     0.068 A 
HETATM   29  C   UNL     1      40.450  -7.615   8.430  1.00  0.00     0.039 A 
HETATM   30  C   UNL     1      39.091  -7.366   8.671  1.00  0.00    -0.060 A 
HETATM   31  C   UNL     1      38.278  -6.542   7.715  1.00  0.00     0.048 C 
HETATM   32  C   UNL     1      38.482  -7.955   9.776  1.00  0.00     0.007 A 
HETATM   33  C   UNL     1      39.233  -8.737  10.653  1.00  0.00     0.009 A 
HETATM   34  C   UNL     1      40.607  -8.965  10.437  1.00  0.00    -0.033 A 
HETATM   35  C   UNL     1      41.335  -9.723  11.516  1.00  0.00     0.050 C 
ENDBRANCH  23  28
ENDBRANCH   1  21
TORSDOF 5
ENDMDL
MODEL 4
REMARK VINA RESULT:      -9.4      1.960      2.865
REMARK  5 active torsions:
REMARK  status: ('A' for Active; 'I' for Inactive)
REMARK    1  A    between atoms: C_4  and  N_5 
REMARK    2  A    between atoms: C_7  and  C_8 
REMARK       I    between atoms: C_8  and  N_9 
REMARK    3  A    between atoms: N_9  and  N_10 
REMARK       I    between atoms: N_10  and  C_11 
REMARK    4  A    between atoms: C_11  and  C_12 
REMARK    5  A    between atoms: C_16  and  C_17 
ROOT
HETATM    1  C   UNL     1      40.790 -10.863   6.168  1.00  0.00     0.286 C 
HETATM    2  N   UNL     1      41.743 -11.752   6.608  1.00  0.00    -0.262 N 
HETATM    3  O   UNL     1      40.112 -11.026   5.161  1.00  0.00    -0.264 OA
HETATM    4  H   UNL     1      42.302 -11.602   7.450  1.00  0.00     0.190 HD
ENDROOT
BRANCH   2   5
HETATM    5  N   UNL     1      41.924 -12.920   5.864  1.00  0.00    -0.262 N 
HETATM    6  C   UNL     1      43.074 -13.670   5.989  1.00  0.00     0.288 C 
HETATM    7  O   UNL     1      43.960 -13.390   6.793  1.00  0.00    -0.264 OA
HETATM    8  H   UNL     1      41.211 -13.122   5.168  1.00  0.00     0.190 HD
BRANCH   6   9
HETATM    9  C   UNL     1      43.145 -14.805   5.107  1.00  0.00     0.121 A 
HETATM   10  N   UNL     1      42.935 -14.701   3.761  1.00  0.00    -0.272 N 
HETATM   11  H   UNL     1      42.708 -13.859   3.241  1.00  0.00     0.189 HD
HETATM   12  N   UNL     1      43.063 -15.859   3.093  1.00  0.00    -0.174 NA
HETATM   13  C   UNL     1      43.344 -16.770   4.038  1.00  0.00     0.089 A 
HETATM   14  C   UNL     1      43.409 -16.145   5.314  1.00  0.00     0.071 A 
BRANCH  13  15
HETATM   15  C   UNL     1      43.557 -18.187   3.721  1.00  0.00    -0.006 A 
HETATM   16  C   UNL     1      44.003 -19.079   4.709  1.00  0.00     0.014 A 
HETATM   17  C   UNL     1      44.186 -20.434   4.418  1.00  0.00     0.001 A 
HETATM   18  C   UNL     1      43.932 -20.913   3.135  1.00  0.00     0.000 A 
HETATM   19  C   UNL     1      43.497 -20.040   2.141  1.00  0.00     0.001 A 
HETATM   20  C   UNL     1      43.311 -18.685   2.432  1.00  0.00     0.014 A 
ENDBRANCH  13  15
ENDBRANCH   6   9
ENDBRANCH   2   5
BRANCH   1  21
HETATM   21  C   UNL     1      40.597  -9.626   7.029  1.00  0.00     0.125 C 
HETATM   22  N   UNL     1      41.039  -9.626   8.251  1.00  0.00    -0.164 NA
HETATM   23  N   UNL     1      40.862  -8.478   9.018  1.00  0.00    -0.200 N 
HETATM   24  C   UNL     1      40.124  -7.369   8.578  1.00  0.00     0.245 C 
HETATM   25  C   UNL     1      39.209  -7.668   7.421  1.00  0.00     0.111 C 
HETATM   26  O   UNL     1      40.144  -6.237   9.060  1.00  0.00    -0.271 OA
HETATM   27  C   UNL     1      39.955  -8.444   6.370  1.00  0.00     0.076 C 
BRANCH  23  28
HETATM   28  C   UNL     1      41.593  -8.480  10.252  1.00  0.00     0.068 A 
HETATM   29  C   UNL     1      40.897  -8.804  11.437  1.00  0.00     0.039 A 
HETATM   30  C   UNL     1      41.545  -8.894  12.677  1.00  0.00    -0.060 A 
HETATM   31  C   UNL     1      40.796  -9.310  13.909  1.00  0.00     0.048 C 
HETATM   32  C   UNL     1      42.916  -8.660  12.740  1.00  0.00     0.007 A 
HETATM   33  C   UNL     1      43.616  -8.293  11.591  1.00  0.00     0.009 A 
HETATM   34  C   UNL     1      42.966  -8.168  10.347  1.00  0.00    -0.033 A 
HETATM   35  C   UNL     1      43.802  -7.648   9.206  1.00  0.00     0.050 C 
ENDBRANCH  23  28
ENDBRANCH   1  21
TORSDOF 5
ENDMDL
MODEL 5
REMARK VINA RESULT:      -9.3      2.543     11.054
REMARK  5 active torsions:
REMARK  status: ('A' for Active; 'I' for Inactive)
REMARK    1  A    between atoms: C_4  and  N_5 
REMARK    2  A    between atoms: C_7  and  C_8 
REMARK       I    between atoms: C_8  and  N_9 
REMARK    3  A    between atoms: N_9  and  N_10 
REMARK       I    between atoms: N_10  and  C_11 
REMARK    4  A    between atoms: C_11  and  C_12 
REMARK    5  A    between atoms: C_16  and  C_17 
ROOT
HETATM    1  C   UNL     1      40.738 -11.852   5.445  1.00  0.00     0.286 C 
HETATM    2  N   UNL     1      41.763 -11.970   6.355  1.00  0.00    -0.262 N 
HETATM    3  O   UNL     1      39.979 -10.893   5.385  1.00  0.00    -0.264 OA
HETATM    4  H   UNL     1      42.388 -12.777   6.394  1.00  0.00     0.190 HD
ENDROOT
BRANCH   2   5
HETATM    5  N   UNL     1      41.954 -10.911   7.247  1.00  0.00    -0.262 N 
HETATM    6  C   UNL     1      43.217 -10.434   7.521  1.00  0.00     0.288 C 
HETATM    7  O   UNL     1      44.222 -10.866   6.961  1.00  0.00    -0.264 OA
HETATM    8  H   UNL     1      41.126 -10.589   7.742  1.00  0.00     0.190 HD
BRANCH   6   9
HETATM    9  C   UNL     1      43.259  -9.390   8.511  1.00  0.00     0.121 A 
HETATM   10  N   UNL     1      43.811  -8.165   8.260  1.00  0.00    -0.272 N 
HETATM   11  H   UNL     1      44.243  -7.854   7.396  1.00  0.00     0.189 HD
HETATM   12  N   UNL     1      43.742  -7.309   9.292  1.00  0.00    -0.174 NA
HETATM   13  C   UNL     1      43.143  -8.003  10.273  1.00  0.00     0.089 A 
HETATM   14  C   UNL     1      42.821  -9.311   9.818  1.00  0.00     0.071 A 
BRANCH  13  15
HETATM   15  C   UNL     1      42.879  -7.422  11.595  1.00  0.00    -0.006 A 
HETATM   16  C   UNL     1      42.215  -6.191  11.713  1.00  0.00     0.014 A 
HETATM   17  C   UNL     1      41.941  -5.645  12.969  1.00  0.00     0.001 A 
HETATM   18  C   UNL     1      42.333  -6.318  14.124  1.00  0.00     0.000 A 
HETATM   19  C   UNL     1      43.000  -7.536  14.025  1.00  0.00     0.001 A 
HETATM   20  C   UNL     1      43.272  -8.085  12.768  1.00  0.00     0.014 A 
ENDBRANCH  13  15
ENDBRANCH   6   9
ENDBRANCH   2   5
BRANCH   1  21
HETATM   21  C   UNL     1      40.591 -13.007   4.468  1.00  0.00     0.125 C 
HETATM   22  N   UNL     1      41.512 -13.923   4.422  1.00  0.00    -0.164 NA
HETATM   23  N   UNL     1      41.352 -14.978   3.529  1.00  0.00    -0.200 N 
HETATM   24  C   UNL     1      40.309 -15.036   2.591  1.00  0.00     0.245 C 
HETATM   25  C   UNL     1      39.641 -13.710   2.343  1.00  0.00     0.111 C 
HETATM   26  O   UNL     1      39.939 -16.029   1.967  1.00  0.00    -0.271 OA
HETATM   27  C   UNL     1      39.334 -13.042   3.655  1.00  0.00     0.076 C 
BRANCH  23  28
HETATM   28  C   UNL     1      42.278 -16.056   3.722  1.00  0.00     0.068 A 
HETATM   29  C   UNL     1      42.368 -16.633   5.007  1.00  0.00     0.039 A 
HETATM   30  C   UNL     1      43.197 -17.733   5.269  1.00  0.00    -0.060 A 
HETATM   31  C   UNL     1      43.221 -18.373   6.626  1.00  0.00     0.048 C 
HETATM   32  C   UNL     1      43.950 -18.273   4.229  1.00  0.00     0.007 A 
HETATM   33  C   UNL     1      43.913 -17.690   2.964  1.00  0.00     0.009 A 
HETATM   34  C   UNL     1      43.108 -16.565   2.700  1.00  0.00    -0.033 A 
HETATM   35  C   UNL     1      43.244 -15.952   1.330  1.00  0.00     0.050 C 
ENDBRANCH  23  28
ENDBRANCH   1  21
TORSDOF 5
ENDMDL
MODEL 6
REMARK VINA RESULT:      -9.1      2.658     11.271
REMARK  5 active torsions:
REMARK  status: ('A' for Active; 'I' for Inactive)
REMARK    1  A    between atoms: C_4  and  N_5 
REMARK    2  A    between atoms: C_7  and  C_8 
REMARK       I    between atoms: C_8  and  N_9 
REMARK    3  A    between atoms: N_9  and  N_10 
REMARK       I    between atoms: N_10  and  C_11 
REMARK    4  A    between atoms: C_11  and  C_12 
REMARK    5  A    between atoms: C_16  and  C_17 
ROOT
HETATM    1  C   UNL     1      43.952 -10.184  10.626  1.00  0.00     0.286 C 
HETATM    2  N   UNL     1      43.523  -8.888  10.799  1.00  0.00    -0.262 N 
HETATM    3  O   UNL     1      43.945 -11.034  11.508  1.00  0.00    -0.264 OA
HETATM    4  H   UNL     1      43.535  -8.190  10.054  1.00  0.00     0.190 HD
ENDROOT
BRANCH   2   5
HETATM    5  N   UNL     1      43.029  -8.539  12.059  1.00  0.00    -0.262 N 
HETATM    6  C   UNL     1      41.674  -8.505  12.303  1.00  0.00     0.288 C 
HETATM    7  O   UNL     1      40.841  -8.832  11.461  1.00  0.00    -0.264 OA
HETATM    8  H   UNL     1      43.717  -8.225  12.738  1.00  0.00     0.190 HD
BRANCH   6   9
HETATM    9  C   UNL     1      41.317  -8.061  13.626  1.00  0.00     0.121 A 
HETATM   10  N   UNL     1      40.318  -7.156  13.849  1.00  0.00    -0.272 N 
HETATM   11  H   UNL     1      39.736  -6.702  13.152  1.00  0.00     0.189 HD
HETATM   12  N   UNL     1      40.110  -6.875  15.146  1.00  0.00    -0.174 NA
HETATM   13  C   UNL     1      41.025  -7.603  15.805  1.00  0.00     0.089 A 
HETATM   14  C   UNL     1      41.798  -8.364  14.884  1.00  0.00     0.071 A 
BRANCH  13  15
HETATM   15  C   UNL     1      41.142  -7.577  17.267  1.00  0.00    -0.006 A 
HETATM   16  C   UNL     1      42.316  -7.116  17.881  1.00  0.00     0.014 A 
HETATM   17  C   UNL     1      42.424  -7.069  19.274  1.00  0.00     0.001 A 
HETATM   18  C   UNL     1      41.361  -7.489  20.071  1.00  0.00     0.000 A 
HETATM   19  C   UNL     1      40.192  -7.958  19.478  1.00  0.00     0.001 A 
HETATM   20  C   UNL     1      40.082  -8.002  18.084  1.00  0.00     0.014 A 
ENDBRANCH  13  15
ENDBRANCH   6   9
ENDBRANCH   2   5
BRANCH   1  21
HETATM   21  C   UNL     1      44.444 -10.532   9.231  1.00  0.00     0.125 C 
HETATM   22  N   UNL     1      43.963 -11.579   8.630  1.00  0.00    -0.164 NA
HETATM   23  N   UNL     1      44.419 -11.873   7.348  1.00  0.00    -0.200 N 
HETATM   24  C   UNL     1      45.458 -11.167   6.723  1.00  0.00     0.245 C 
HETATM   25  C   UNL     1      46.306 -10.367   7.675  1.00  0.00     0.111 C 
HETATM   26  O   UNL     1      45.734 -11.176   5.525  1.00  0.00    -0.271 OA
HETATM   27  C   UNL     1      45.423  -9.584   8.609  1.00  0.00     0.076 C 
BRANCH  23  28
HETATM   28  C   UNL     1      43.660 -12.887   6.674  1.00  0.00     0.068 A 
HETATM   29  C   UNL     1      44.178 -14.199   6.650  1.00  0.00     0.039 A 
HETATM   30  C   UNL     1      43.473 -15.265   6.072  1.00  0.00    -0.060 A 
HETATM   31  C   UNL     1      44.013 -16.663   6.122  1.00  0.00     0.048 C 
HETATM   32  C   UNL     1      42.223 -15.019   5.509  1.00  0.00     0.007 A 
HETATM   33  C   UNL     1      41.712 -13.723   5.480  1.00  0.00     0.009 A 
HETATM   34  C   UNL     1      42.429 -12.641   6.029  1.00  0.00    -0.033 A 
HETATM   35  C   UNL     1      41.830 -11.273   5.829  1.00  0.00     0.050 C 
ENDBRANCH  23  28
ENDBRANCH   1  21
TORSDOF 5
ENDMDL
MODEL 7
REMARK VINA RESULT:      -9.0      1.937      3.071
REMARK  5 active torsions:
REMARK  status: ('A' for Active; 'I' for Inactive)
REMARK    1  A    between atoms: C_4  and  N_5 
REMARK    2  A    between atoms: C_7  and  C_8 
REMARK       I    between atoms: C_8  and  N_9 
REMARK    3  A    between atoms: N_9  and  N_10 
REMARK       I    between atoms: N_10  and  C_11 
REMARK    4  A    between atoms: C_11  and  C_12 
REMARK    5  A    between atoms: C_16  and  C_17 
ROOT
HETATM    1  C   UNL     1      39.897 -10.424   7.619  1.00  0.00     0.286 C 
HETATM    2  N   UNL     1      41.133 -10.811   7.157  1.00  0.00    -0.262 N 
HETATM    3  O   UNL     1      38.863 -11.053   7.428  1.00  0.00    -0.264 OA
HETATM    4  H   UNL     1      41.986 -10.276   7.324  1.00  0.00     0.190 HD
ENDROOT
BRANCH   2   5
HETATM    5  N   UNL     1      41.204 -12.012   6.445  1.00  0.00    -0.262 N 
HETATM    6  C   UNL     1      42.421 -12.581   6.138  1.00  0.00     0.288 C 
HETATM    7  O   UNL     1      43.488 -12.106   6.518  1.00  0.00    -0.264 OA
HETATM    8  H   UNL     1      40.323 -12.376   6.093  1.00  0.00     0.190 HD
BRANCH   6   9
HETATM    9  C   UNL     1      42.335 -13.777   5.341  1.00  0.00     0.121 A 
HETATM   10  N   UNL     1      41.347 -13.973   4.417  1.00  0.00    -0.272 N 
HETATM   11  H   UNL     1      40.586 -13.339   4.192  1.00  0.00     0.189 HD
HETATM   12  N   UNL     1      41.438 -15.136   3.753  1.00  0.00    -0.174 NA
HETATM   13  C   UNL     1      42.513 -15.746   4.275  1.00  0.00     0.089 A 
HETATM   14  C   UNL     1      43.105 -14.922   5.271  1.00  0.00     0.071 A 
BRANCH  13  15
HETATM   15  C   UNL     1      42.962 -17.068   3.822  1.00  0.00    -0.006 A 
HETATM   16  C   UNL     1      42.567 -17.563   2.570  1.00  0.00     0.014 A 
HETATM   17  C   UNL     1      43.010 -18.812   2.123  1.00  0.00     0.001 A 
HETATM   18  C   UNL     1      43.847 -19.584   2.926  1.00  0.00     0.000 A 
HETATM   19  C   UNL     1      44.241 -19.111   4.174  1.00  0.00     0.001 A 
HETATM   20  C   UNL     1      43.801 -17.860   4.620  1.00  0.00     0.014 A 
ENDBRANCH  13  15
ENDBRANCH   6   9
ENDBRANCH   2   5
BRANCH   1  21
HETATM   21  C   UNL     1      39.870  -9.135   8.423  1.00  0.00     0.125 C 
HETATM   22  N   UNL     1      40.452  -9.096   9.584  1.00  0.00    -0.164 NA
HETATM   23  N   UNL     1      40.426  -7.902  10.298  1.00  0.00    -0.200 N 
HETATM   24  C   UNL     1      39.698  -6.777   9.882  1.00  0.00     0.245 C 
HETATM   25  C   UNL     1      38.638  -7.084   8.858  1.00  0.00     0.111 C 
HETATM   26  O   UNL     1      39.832  -5.625  10.292  1.00  0.00    -0.271 OA
HETATM   27  C   UNL     1      39.214  -7.954   7.775  1.00  0.00     0.076 C 
BRANCH  23  28
HETATM   28  C   UNL     1      41.296  -7.881  11.438  1.00  0.00     0.068 A 
HETATM   29  C   UNL     1      40.710  -7.859  12.722  1.00  0.00     0.039 A 
HETATM   30  C   UNL     1      41.484  -7.904  13.891  1.00  0.00    -0.060 A 
HETATM   31  C   UNL     1      40.834  -7.953  15.242  1.00  0.00     0.048 C 
HETATM   32  C   UNL     1      42.870  -7.976  13.780  1.00  0.00     0.007 A 
HETATM   33  C   UNL     1      43.472  -7.951  12.523  1.00  0.00     0.009 A 
HETATM   34  C   UNL     1      42.705  -7.873  11.344  1.00  0.00    -0.033 A 
HETATM   35  C   UNL     1      43.472  -7.730  10.055  1.00  0.00     0.050 C 
ENDBRANCH  23  28
ENDBRANCH   1  21
TORSDOF 5
ENDMDL
MODEL 8
REMARK VINA RESULT:      -9.0      2.070      2.246
REMARK  5 active torsions:
REMARK  status: ('A' for Active; 'I' for Inactive)
REMARK    1  A    between atoms: C_4  and  N_5 
REMARK    2  A    between atoms: C_7  and  C_8 
REMARK       I    between atoms: C_8  and  N_9 
REMARK    3  A    between atoms: N_9  and  N_10 
REMARK       I    between atoms: N_10  and  C_11 
REMARK    4  A    between atoms: C_11  and  C_12 
REMARK    5  A    between atoms: C_16  and  C_17 
ROOT
HETATM    1  C   UNL     1      42.371 -10.312   7.234  1.00  0.00     0.286 C 
HETATM    2  N   UNL     1      41.260 -11.053   6.901  1.00  0.00    -0.262 N 
HETATM    3  O   UNL     1      43.513 -10.593   6.890  1.00  0.00    -0.264 OA
HETATM    4  H   UNL     1      40.315 -10.806   7.196  1.00  0.00     0.190 HD
ENDROOT
BRANCH   2   5
HETATM    5  N   UNL     1      41.458 -12.181   6.100  1.00  0.00    -0.262 N 
HETATM    6  C   UNL     1      40.448 -13.098   5.909  1.00  0.00     0.288 C 
HETATM    7  O   UNL     1      39.321 -12.948   6.374  1.00  0.00    -0.264 OA
HETATM    8  H   UNL     1      42.403 -12.325   5.756  1.00  0.00     0.190 HD
BRANCH   6   9
HETATM    9  C   UNL     1      40.823 -14.242   5.118  1.00  0.00     0.121 A 
HETATM   10  N   UNL     1      40.064 -14.691   4.075  1.00  0.00    -0.272 N 
HETATM   11  H   UNL     1      39.185 -14.303   3.746  1.00  0.00     0.189 HD
HETATM   12  N   UNL     1      40.579 -15.755   3.438  1.00  0.00    -0.174 NA
HETATM   13  C   UNL     1      41.711 -16.037   4.102  1.00  0.00     0.089 A 
HETATM   14  C   UNL     1      41.900 -15.105   5.160  1.00  0.00     0.071 A 
BRANCH  13  15
HETATM   15  C   UNL     1      42.585 -17.152   3.722  1.00  0.00    -0.006 A 
HETATM   16  C   UNL     1      43.576 -17.613   4.602  1.00  0.00     0.014 A 
HETATM   17  C   UNL     1      44.396 -18.690   4.255  1.00  0.00     0.001 A 
HETATM   18  C   UNL     1      44.242 -19.315   3.019  1.00  0.00     0.000 A 
HETATM   19  C   UNL     1      43.270 -18.865   2.130  1.00  0.00     0.001 A 
HETATM   20  C   UNL     1      42.446 -17.790   2.479  1.00  0.00     0.014 A 
ENDBRANCH  13  15
ENDBRANCH   6   9
ENDBRANCH   2   5
BRANCH   1  21
HETATM   21  C   UNL     1      42.108  -9.072   8.071  1.00  0.00     0.125 C 
HETATM   22  N   UNL     1      41.852  -9.203   9.339  1.00  0.00    -0.164 NA
HETATM   23  N   UNL     1      41.626  -8.053  10.089  1.00  0.00    -0.200 N 
HETATM   24  C   UNL     1      41.538  -6.772   9.522  1.00  0.00     0.245 C 
HETATM   25  C   UNL     1      41.292  -6.781   8.037  1.00  0.00     0.111 C 
HETATM   26  O   UNL     1      41.613  -5.700  10.119  1.00  0.00    -0.271 OA
HETATM   27  C   UNL     1      42.229  -7.753   7.372  1.00  0.00     0.076 C 
BRANCH  23  28
HETATM   28  C   UNL     1      41.601  -8.273  11.506  1.00  0.00     0.068 A 
HETATM   29  C   UNL     1      42.562  -7.612  12.299  1.00  0.00     0.039 A 
HETATM   30  C   UNL     1      42.570  -7.717  13.698  1.00  0.00    -0.060 A 
HETATM   31  C   UNL     1      43.559  -6.947  14.523  1.00  0.00     0.048 C 
HETATM   32  C   UNL     1      41.597  -8.495  14.321  1.00  0.00     0.007 A 
HETATM   33  C   UNL     1      40.666  -9.194  13.555  1.00  0.00     0.009 A 
HETATM   34  C   UNL     1      40.672  -9.121  12.148  1.00  0.00    -0.033 A 
HETATM   35  C   UNL     1      39.696 -10.015  11.428  1.00  0.00     0.050 C 
ENDBRANCH  23  28
ENDBRANCH   1  21
TORSDOF 5
ENDMDL
MODEL 9
REMARK VINA RESULT:      -8.9      8.007     10.531
REMARK  5 active torsions:
REMARK  status: ('A' for Active; 'I' for Inactive)
REMARK    1  A    between atoms: C_4  and  N_5 
REMARK    2  A    between atoms: C_7  and  C_8 
REMARK       I    between atoms: C_8  and  N_9 
REMARK    3  A    between atoms: N_9  and  N_10 
REMARK       I    between atoms: N_10  and  C_11 
REMARK    4  A    between atoms: C_11  and  C_12 
REMARK    5  A    between atoms: C_16  and  C_17 
ROOT
HETATM    1  C   UNL     1      40.056 -13.334  -0.918  1.00  0.00     0.286 C 
HETATM    2  N   UNL     1      41.162 -13.054  -0.149  1.00  0.00    -0.262 N 
HETATM    3  O   UNL     1      39.522 -14.435  -0.979  1.00  0.00    -0.264 OA
HETATM    4  H   UNL     1      41.596 -12.131  -0.109  1.00  0.00     0.190 HD
ENDROOT
BRANCH   2   5
HETATM    5  N   UNL     1      41.685 -14.093   0.626  1.00  0.00    -0.262 N 
HETATM    6  C   UNL     1      41.789 -13.972   1.994  1.00  0.00     0.288 C 
HETATM    7  O   UNL     1      41.380 -12.987   2.604  1.00  0.00    -0.264 OA
HETATM    8  H   UNL     1      42.063 -14.885   0.114  1.00  0.00     0.190 HD
BRANCH   6   9
HETATM    9  C   UNL     1      42.411 -15.096   2.646  1.00  0.00     0.121 A 
HETATM   10  N   UNL     1      43.155 -14.962   3.784  1.00  0.00    -0.272 N 
HETATM   11  H   UNL     1      43.358 -14.102   4.285  1.00  0.00     0.189 HD
HETATM   12  N   UNL     1      43.639 -16.119   4.264  1.00  0.00    -0.174 NA
HETATM   13  C   UNL     1      43.222 -17.052   3.394  1.00  0.00     0.089 A 
HETATM   14  C   UNL     1      42.444 -16.448   2.368  1.00  0.00     0.071 A 
BRANCH  13  15
HETATM   15  C   UNL     1      43.548 -18.474   3.553  1.00  0.00    -0.006 A 
HETATM   16  C   UNL     1      43.976 -18.972   4.793  1.00  0.00     0.014 A 
HETATM   17  C   UNL     1      44.266 -20.330   4.956  1.00  0.00     0.001 A 
HETATM   18  C   UNL     1      44.139 -21.205   3.880  1.00  0.00     0.000 A 
HETATM   19  C   UNL     1      43.724 -20.725   2.640  1.00  0.00     0.001 A 
HETATM   20  C   UNL     1      43.430 -19.368   2.477  1.00  0.00     0.014 A 
ENDBRANCH  13  15
ENDBRANCH   6   9
ENDBRANCH   2   5
BRANCH   1  21
HETATM   21  C   UNL     1      39.496 -12.167  -1.713  1.00  0.00     0.125 C 
HETATM   22  N   UNL     1      40.011 -10.984  -1.556  1.00  0.00    -0.164 NA
HETATM   23  N   UNL     1      39.490  -9.932  -2.303  1.00  0.00    -0.200 N 
HETATM   24  C   UNL     1      38.359 -10.060  -3.123  1.00  0.00     0.245 C 
HETATM   25  C   UNL     1      37.522 -11.273  -2.817  1.00  0.00     0.111 C 
HETATM   26  O   UNL     1      38.001  -9.282  -4.006  1.00  0.00    -0.271 OA
HETATM   27  C   UNL     1      38.407 -12.483  -2.692  1.00  0.00     0.076 C 
BRANCH  23  28
HETATM   28  C   UNL     1      40.274  -8.732  -2.251  1.00  0.00     0.068 A 
HETATM   29  C   UNL     1      41.247  -8.529  -3.254  1.00  0.00     0.039 A 
HETATM   30  C   UNL     1      42.012  -7.355  -3.319  1.00  0.00    -0.060 A 
HETATM   31  C   UNL     1      42.988  -7.133  -4.436  1.00  0.00     0.048 C 
HETATM   32  C   UNL     1      41.801  -6.360  -2.367  1.00  0.00     0.007 A 
HETATM   33  C   UNL     1      40.879  -6.558  -1.341  1.00  0.00     0.009 A 
HETATM   34  C   UNL     1      40.130  -7.748  -1.249  1.00  0.00    -0.033 A 
HETATM   35  C   UNL     1      39.257  -7.895  -0.030  1.00  0.00     0.050 C 
ENDBRANCH  23  28
ENDBRANCH   1  21
TORSDOF 5
ENDMDL
MODEL 10
REMARK VINA RESULT:      -8.8      8.305     10.856
REMARK  5 active torsions:
REMARK  status: ('A' for Active; 'I' for Inactive)
REMARK    1  A    between atoms: C_4  and  N_5 
REMARK    2  A    between atoms: C_7  and  C_8 
REMARK       I    between atoms: C_8  and  N_9 
REMARK    3  A    between atoms: N_9  and  N_10 
REMARK       I    between atoms: N_10  and  C_11 
REMARK    4  A    between atoms: C_11  and  C_12 
REMARK    5  A    between atoms: C_16  and  C_17 
ROOT
HETATM    1  C   UNL     1      40.125 -12.934  -1.110  1.00  0.00     0.286 C 
HETATM    2  N   UNL     1      41.181 -12.686  -0.263  1.00  0.00    -0.262 N 
HETATM    3  O   UNL     1      39.601 -14.032  -1.251  1.00  0.00    -0.264 OA
HETATM    4  H   UNL     1      41.608 -11.765  -0.156  1.00  0.00     0.190 HD
ENDROOT
BRANCH   2   5
HETATM    5  N   UNL     1      41.662 -13.758   0.494  1.00  0.00    -0.262 N 
HETATM    6  C   UNL     1      41.776 -13.663   1.863  1.00  0.00     0.288 C 
HETATM    7  O   UNL     1      41.411 -12.670   2.489  1.00  0.00    -0.264 OA
HETATM    8  H   UNL     1      42.005 -14.557  -0.032  1.00  0.00     0.190 HD
BRANCH   6   9
HETATM    9  C   UNL     1      42.352 -14.821   2.496  1.00  0.00     0.121 A 
HETATM   10  N   UNL     1      43.014 -14.751   3.689  1.00  0.00    -0.272 N 
HETATM   11  H   UNL     1      43.181 -13.919   4.248  1.00  0.00     0.189 HD
HETATM   12  N   UNL     1      43.465 -15.933   4.138  1.00  0.00    -0.174 NA
HETATM   13  C   UNL     1      43.110 -16.816   3.192  1.00  0.00     0.089 A 
HETATM   14  C   UNL     1      42.405 -16.156   2.148  1.00  0.00     0.071 A 
BRANCH  13  15
HETATM   15  C   UNL     1      43.426 -18.246   3.297  1.00  0.00    -0.006 A 
HETATM   16  C   UNL     1      43.939 -18.776   4.491  1.00  0.00     0.014 A 
HETATM   17  C   UNL     1      44.221 -20.141   4.603  1.00  0.00     0.001 A 
HETATM   18  C   UNL     1      43.999 -20.991   3.522  1.00  0.00     0.000 A 
HETATM   19  C   UNL     1      43.498 -20.480   2.328  1.00  0.00     0.001 A 
HETATM   20  C   UNL     1      43.213 -19.115   2.216  1.00  0.00     0.014 A 
ENDBRANCH  13  15
ENDBRANCH   6   9
ENDBRANCH   2   5
BRANCH   1  21
HETATM   21  C   UNL     1      39.607 -11.733  -1.883  1.00  0.00     0.125 C 
HETATM   22  N   UNL     1      38.331 -11.489  -1.899  1.00  0.00    -0.164 NA
HETATM   23  N   UNL     1      37.879 -10.377  -2.604  1.00  0.00    -0.200 N 
HETATM   24  C   UNL     1      38.718  -9.580  -3.398  1.00  0.00     0.245 C 
HETATM   25  C   UNL     1      40.020 -10.243  -3.760  1.00  0.00     0.111 C 
HETATM   26  O   UNL     1      38.471  -8.453  -3.824  1.00  0.00    -0.271 OA
HETATM   27  C   UNL     1      40.635 -10.860  -2.534  1.00  0.00     0.076 C 
BRANCH  23  28
HETATM   28  C   UNL     1      36.504 -10.048  -2.362  1.00  0.00     0.068 A 
HETATM   29  C   UNL     1      35.534 -10.542  -3.260  1.00  0.00     0.039 A 
HETATM   30  C   UNL     1      34.162 -10.325  -3.063  1.00  0.00    -0.060 A 
HETATM   31  C   UNL     1      33.147 -10.922  -3.992  1.00  0.00     0.048 C 
HETATM   32  C   UNL     1      33.747  -9.604  -1.946  1.00  0.00     0.007 A 
HETATM   33  C   UNL     1      34.690  -9.067  -1.072  1.00  0.00     0.009 A 
HETATM   34  C   UNL     1      36.071  -9.251  -1.280  1.00  0.00    -0.033 A 
HETATM   35  C   UNL     1      36.992  -8.522  -0.337  1.00  0.00     0.050 C 
ENDBRANCH  23  28
ENDBRANCH   1  21
TORSDOF 5
ENDMDL
