MODEL 1
REMARK VINA RESULT:      -9.1      0.000      0.000
REMARK  11 active torsions:
REMARK  status: ('A' for Active; 'I' for Inactive)
REMARK    1  A    between atoms: O_2  and  C_3 
REMARK    2  A    between atoms: C_6  and  C_7 
REMARK    3  A    between atoms: C_7  and  N_8 
REMARK    4  A    between atoms: N_8  and  C_9 
REMARK    5  A    between atoms: N_8  and  C_22 
REMARK    6  A    between atoms: C_9  and  N_10 
REMARK    7  A    between atoms: N_10  and  C_11 
REMARK    8  A    between atoms: C_11  and  C_12 
REMARK    9  A    between atoms: C_12  and  C_13 
REMARK   10  A    between atoms: C_13  and  N_14 
REMARK   11  A    between atoms: C_22  and  C_23 
ROOT
HETATM    1  N   UNL     1      42.164 -14.338   3.948  1.00  0.00    -0.350 N 
ENDROOT
BRANCH   1   2
HETATM    2  C   UNL     1      43.220 -15.052   4.703  1.00  0.00     0.164 C 
BRANCH   2   3
HETATM    3  C   UNL     1      43.500 -16.478   4.293  1.00  0.00    -0.040 A 
HETATM    4  C   UNL     1      44.012 -17.424   5.190  1.00  0.00     0.011 A 
HETATM    5  C   UNL     1      44.174 -18.756   4.791  1.00  0.00     0.037 A 
HETATM    6  C   UNL     1      43.816 -19.149   3.500  1.00  0.00     0.068 A 
HETATM    7  C   UNL     1      43.329 -18.213   2.595  1.00  0.00     0.037 A 
HETATM    8  C   UNL     1      43.155 -16.890   2.994  1.00  0.00     0.011 A 
BRANCH   6   9
HETATM    9  O   UNL     1      43.957 -20.424   3.030  1.00  0.00    -0.356 OA
HETATM   10  C   UNL     1      43.615 -20.560   1.652  1.00  0.00     0.210 C 
ENDBRANCH   6   9
ENDBRANCH   2   3
ENDBRANCH   1   2
BRANCH   1  11
HETATM   11  C   UNL     1      40.839 -14.291   4.432  1.00  0.00     0.170 C 
HETATM   12  S   UNL     1      40.390 -14.134   6.045  1.00  0.00    -0.041 SA
BRANCH  11  13
HETATM   13  N   UNL     1      39.910 -14.437   3.412  1.00  0.00    -0.367 N 
HETATM   14  H   UNL     1      39.074 -13.874   3.510  1.00  0.00     0.161 HD
BRANCH  13  15
HETATM   15  C   UNL     1      39.802 -15.560   2.491  1.00  0.00     0.123 C 
BRANCH  15  16
HETATM   16  C   UNL     1      40.154 -15.176   1.057  1.00  0.00     0.047 C 
BRANCH  16  17
HETATM   17  C   UNL     1      39.886 -13.723   0.670  1.00  0.00     0.236 C 
BRANCH  17  18
HETATM   18  N   UNL     1      39.267 -13.550  -0.692  1.00  0.00    -0.067 N 
HETATM   19  H   UNL     1      38.270 -13.305  -0.550  1.00  0.00     0.280 HD
HETATM   20  C   UNL     1      39.905 -12.466  -1.547  1.00  0.00     0.261 C 
HETATM   21  C   UNL     1      39.226 -12.412  -2.920  1.00  0.00     0.195 C 
HETATM   22  O   UNL     1      39.300 -13.681  -3.578  1.00  0.00    -0.388 OA
HETATM   23  C   UNL     1      38.612 -14.692  -2.833  1.00  0.00     0.195 C 
HETATM   24  C   UNL     1      39.249 -14.879  -1.452  1.00  0.00     0.261 C 
ENDBRANCH  17  18
ENDBRANCH  16  17
ENDBRANCH  15  16
ENDBRANCH  13  15
ENDBRANCH  11  13
ENDBRANCH   1  11
BRANCH   1  25
HETATM   25  C   UNL     1      42.658 -13.105   3.269  1.00  0.00     0.169 C 
BRANCH  25  26
HETATM   26  C   UNL     1      42.860 -12.018   4.295  1.00  0.00     0.029 C 
HETATM   27  C   UNL     1      41.791 -10.978   4.408  1.00  0.00     0.253 C 
HETATM   28  O   UNL     1      40.911 -10.863   3.558  1.00  0.00    -0.268 OA
HETATM   29  N   UNL     1      41.811 -10.187   5.525  1.00  0.00    -0.322 N 
HETATM   30  C   UNL     1      42.780 -10.290   6.531  1.00  0.00     0.048 A 
HETATM   31  H   UNL     1      41.051  -9.526   5.619  1.00  0.00     0.169 HD
HETATM   32  C   UNL     1      43.864 -11.175   6.348  1.00  0.00    -0.006 A 
HETATM   33  C   UNL     1      42.630  -9.565   7.713  1.00  0.00     0.070 A 
HETATM   34  C   UNL     1      44.810 -11.349   7.364  1.00  0.00     0.053 A 
HETATM   35  C   UNL     1      43.901 -12.010   5.148  1.00  0.00     0.028 C 
HETATM   36  C   UNL     1      44.616 -10.654   8.538  1.00  0.00     0.106 A 
HETATM   37  C   UNL     1      43.558  -9.791   8.708  1.00  0.00     0.107 A 
HETATM   38  O   UNL     1      45.384 -10.761   9.654  1.00  0.00    -0.323 OA
HETATM   39  O   UNL     1      43.532  -9.247   9.954  1.00  0.00    -0.323 OA
HETATM   40  C   UNL     1      44.655  -9.916  10.569  1.00  0.00     0.352 A 
ENDBRANCH  25  26
ENDBRANCH   1  25
TORSDOF 11
ENDMDL
MODEL 2
REMARK VINA RESULT:      -8.8      1.743      2.213
REMARK  11 active torsions:
REMARK  status: ('A' for Active; 'I' for Inactive)
REMARK    1  A    between atoms: O_2  and  C_3 
REMARK    2  A    between atoms: C_6  and  C_7 
REMARK    3  A    between atoms: C_7  and  N_8 
REMARK    4  A    between atoms: N_8  and  C_9 
REMARK    5  A    between atoms: N_8  and  C_22 
REMARK    6  A    between atoms: C_9  and  N_10 
REMARK    7  A    between atoms: N_10  and  C_11 
REMARK    8  A    between atoms: C_11  and  C_12 
REMARK    9  A    between atoms: C_12  and  C_13 
REMARK   10  A    between atoms: C_13  and  N_14 
REMARK   11  A    between atoms: C_22  and  C_23 
ROOT
HETATM    1  N   UNL     1      41.303 -14.479   3.106  1.00  0.00    -0.350 N 
ENDROOT
BRANCH   1   2
HETATM    2  C   UNL     1      42.595 -14.992   2.594  1.00  0.00     0.164 C 
BRANCH   2   3
HETATM    3  C   UNL     1      43.064 -16.317   3.145  1.00  0.00    -0.040 A 
HETATM    4  C   UNL     1      43.061 -17.487   2.374  1.00  0.00     0.011 A 
HETATM    5  C   UNL     1      43.586 -18.675   2.896  1.00  0.00     0.037 A 
HETATM    6  C   UNL     1      44.124 -18.696   4.184  1.00  0.00     0.068 A 
HETATM    7  C   UNL     1      44.111 -17.546   4.965  1.00  0.00     0.037 A 
HETATM    8  C   UNL     1      43.601 -16.360   4.443  1.00  0.00     0.011 A 
BRANCH   6   9
HETATM    9  O   UNL     1      44.642 -19.817   4.770  1.00  0.00    -0.356 OA
HETATM   10  C   UNL     1      43.755 -20.934   4.735  1.00  0.00     0.210 C 
ENDBRANCH   6   9
ENDBRANCH   2   3
ENDBRANCH   1   2
BRANCH   1  11
HETATM   11  C   UNL     1      40.107 -14.695   2.389  1.00  0.00     0.170 C 
HETATM   12  S   UNL     1      39.874 -15.863   1.202  1.00  0.00    -0.041 SA
BRANCH  11  13
HETATM   13  N   UNL     1      39.122 -13.785   2.741  1.00  0.00    -0.367 N 
HETATM   14  H   UNL     1      38.222 -14.192   2.964  1.00  0.00     0.161 HD
BRANCH  13  15
HETATM   15  C   UNL     1      39.102 -12.362   2.431  1.00  0.00     0.123 C 
BRANCH  15  16
HETATM   16  C   UNL     1      37.956 -11.982   1.498  1.00  0.00     0.047 C 
BRANCH  16  17
HETATM   17  C   UNL     1      38.354 -11.590   0.077  1.00  0.00     0.236 C 
BRANCH  17  18
HETATM   18  N   UNL     1      38.504 -12.753  -0.867  1.00  0.00    -0.067 N 
HETATM   19  H   UNL     1      38.328 -13.618  -0.325  1.00  0.00     0.280 HD
HETATM   20  C   UNL     1      37.553 -12.736  -2.054  1.00  0.00     0.261 C 
HETATM   21  C   UNL     1      37.827 -13.937  -2.966  1.00  0.00     0.195 C 
HETATM   22  O   UNL     1      39.188 -13.942  -3.411  1.00  0.00    -0.388 OA
HETATM   23  C   UNL     1      40.093 -14.063  -2.308  1.00  0.00     0.195 C 
HETATM   24  C   UNL     1      39.951 -12.873  -1.354  1.00  0.00     0.261 C 
ENDBRANCH  17  18
ENDBRANCH  16  17
ENDBRANCH  15  16
ENDBRANCH  13  15
ENDBRANCH  11  13
ENDBRANCH   1  11
BRANCH   1  25
HETATM   25  C   UNL     1      41.195 -14.536   4.593  1.00  0.00     0.169 C 
BRANCH  25  26
HETATM   26  C   UNL     1      41.590 -13.201   5.173  1.00  0.00     0.029 C 
HETATM   27  C   UNL     1      40.529 -12.427   5.889  1.00  0.00     0.253 C 
HETATM   28  O   UNL     1      39.342 -12.734   5.810  1.00  0.00    -0.268 OA
HETATM   29  N   UNL     1      40.945 -11.386   6.673  1.00  0.00    -0.322 N 
HETATM   30  C   UNL     1      42.286 -11.006   6.812  1.00  0.00     0.048 A 
HETATM   31  H   UNL     1      40.226 -10.905   7.198  1.00  0.00     0.169 HD
HETATM   32  C   UNL     1      43.264 -11.650   6.023  1.00  0.00    -0.006 A 
HETATM   33  C   UNL     1      42.640 -10.046   7.760  1.00  0.00     0.070 A 
HETATM   34  C   UNL     1      44.618 -11.339   6.189  1.00  0.00     0.053 A 
HETATM   35  C   UNL     1      42.855 -12.742   5.141  1.00  0.00     0.028 C 
HETATM   36  C   UNL     1      44.945 -10.419   7.161  1.00  0.00     0.106 A 
HETATM   37  C   UNL     1      43.986  -9.794   7.925  1.00  0.00     0.107 A 
HETATM   38  O   UNL     1      46.206 -10.059   7.514  1.00  0.00    -0.323 OA
HETATM   39  O   UNL     1      44.529  -8.961   8.852  1.00  0.00    -0.323 OA
HETATM   40  C   UNL     1      45.938  -9.183   8.629  1.00  0.00     0.352 A 
ENDBRANCH  25  26
ENDBRANCH   1  25
TORSDOF 11
ENDMDL
MODEL 3
REMARK VINA RESULT:      -8.7      2.107      8.805
REMARK  11 active torsions:
REMARK  status: ('A' for Active; 'I' for Inactive)
REMARK    1  A    between atoms: O_2  and  C_3 
REMARK    2  A    between atoms: C_6  and  C_7 
REMARK    3  A    between atoms: C_7  and  N_8 
REMARK    4  A    between atoms: N_8  and  C_9 
REMARK    5  A    between atoms: N_8  and  C_22 
REMARK    6  A    between atoms: C_9  and  N_10 
REMARK    7  A    between atoms: N_10  and  C_11 
REMARK    8  A    between atoms: C_11  and  C_12 
REMARK    9  A    between atoms: C_12  and  C_13 
REMARK   10  A    between atoms: C_13  and  N_14 
REMARK   11  A    between atoms: C_22  and  C_23 
ROOT
HETATM    1  N   UNL     1      41.567 -13.184   5.106  1.00  0.00    -0.350 N 
ENDROOT
BRANCH   1   2
HETATM    2  C   UNL     1      40.186 -13.390   4.612  1.00  0.00     0.164 C 
BRANCH   2   3
HETATM    3  C   UNL     1      40.031 -13.705   3.143  1.00  0.00    -0.040 A 
HETATM    4  C   UNL     1      39.880 -12.701   2.178  1.00  0.00     0.011 A 
HETATM    5  C   UNL     1      39.827 -13.033   0.819  1.00  0.00     0.037 A 
HETATM    6  C   UNL     1      39.936 -14.366   0.420  1.00  0.00     0.068 A 
HETATM    7  C   UNL     1      40.062 -15.372   1.372  1.00  0.00     0.037 A 
HETATM    8  C   UNL     1      40.128 -15.043   2.723  1.00  0.00     0.011 A 
BRANCH   6   9
HETATM    9  O   UNL     1      39.879 -14.774  -0.883  1.00  0.00    -0.356 OA
HETATM   10  C   UNL     1      40.126 -13.723  -1.816  1.00  0.00     0.210 C 
ENDBRANCH   6   9
ENDBRANCH   2   3
ENDBRANCH   1   2
BRANCH   1  11
HETATM   11  C   UNL     1      42.203 -11.933   4.967  1.00  0.00     0.170 C 
HETATM   12  S   UNL     1      41.439 -10.435   5.009  1.00  0.00    -0.041 SA
BRANCH  11  13
HETATM   13  N   UNL     1      43.565 -12.068   4.739  1.00  0.00    -0.367 N 
HETATM   14  H   UNL     1      43.837 -12.915   4.256  1.00  0.00     0.161 HD
BRANCH  13  15
HETATM   15  C   UNL     1      44.636 -11.384   5.449  1.00  0.00     0.123 C 
BRANCH  15  16
HETATM   16  C   UNL     1      44.526 -11.537   6.963  1.00  0.00     0.047 C 
BRANCH  16  17
HETATM   17  C   UNL     1      45.327 -10.538   7.795  1.00  0.00     0.236 C 
BRANCH  17  18
HETATM   18  N   UNL     1      44.499  -9.733   8.762  1.00  0.00    -0.067 N 
HETATM   19  H   UNL     1      44.816  -8.749   8.696  1.00  0.00     0.280 HD
HETATM   20  C   UNL     1      43.001  -9.768   8.499  1.00  0.00     0.261 C 
HETATM   21  C   UNL     1      42.261  -8.955   9.566  1.00  0.00     0.195 C 
HETATM   22  O   UNL     1      42.554  -9.447  10.879  1.00  0.00    -0.388 OA
HETATM   23  C   UNL     1      43.948  -9.323  11.179  1.00  0.00     0.195 C 
HETATM   24  C   UNL     1      44.791 -10.153  10.205  1.00  0.00     0.261 C 
ENDBRANCH  17  18
ENDBRANCH  16  17
ENDBRANCH  15  16
ENDBRANCH  13  15
ENDBRANCH  11  13
ENDBRANCH   1  11
BRANCH   1  25
HETATM   25  C   UNL     1      41.858 -13.932   6.364  1.00  0.00     0.169 C 
BRANCH  25  26
HETATM   26  C   UNL     1      42.661 -15.165   6.036  1.00  0.00     0.029 C 
HETATM   27  C   UNL     1      43.108 -16.014   7.183  1.00  0.00     0.253 C 
HETATM   28  O   UNL     1      43.042 -15.617   8.344  1.00  0.00    -0.268 OA
HETATM   29  N   UNL     1      43.554 -17.274   6.885  1.00  0.00    -0.322 N 
HETATM   30  C   UNL     1      43.632 -17.781   5.582  1.00  0.00     0.048 A 
HETATM   31  H   UNL     1      43.800 -17.859   7.672  1.00  0.00     0.169 HD
HETATM   32  C   UNL     1      43.344 -16.925   4.497  1.00  0.00    -0.006 A 
HETATM   33  C   UNL     1      43.936 -19.128   5.380  1.00  0.00     0.070 A 
HETATM   34  C   UNL     1      43.348 -17.422   3.189  1.00  0.00     0.053 A 
HETATM   35  C   UNL     1      42.902 -15.559   4.772  1.00  0.00     0.028 C 
HETATM   36  C   UNL     1      43.608 -18.764   3.020  1.00  0.00     0.106 A 
HETATM   37  C   UNL     1      43.890 -19.592   4.083  1.00  0.00     0.107 A 
HETATM   38  O   UNL     1      43.573 -19.431   1.837  1.00  0.00    -0.323 OA
HETATM   39  O   UNL     1      44.070 -20.883   3.696  1.00  0.00    -0.323 OA
HETATM   40  C   UNL     1      43.804 -20.786   2.280  1.00  0.00     0.352 A 
ENDBRANCH  25  26
ENDBRANCH   1  25
TORSDOF 11
ENDMDL
MODEL 4
REMARK VINA RESULT:      -8.7      2.321      9.162
REMARK  11 active torsions:
REMARK  status: ('A' for Active; 'I' for Inactive)
REMARK    1  A    between atoms: O_2  and  C_3 
REMARK    2  A    between atoms: C_6  and  C_7 
REMARK    3  A    between atoms: C_7  and  N_8 
REMARK    4  A    between atoms: N_8  and  C_9 
REMARK    5  A    between atoms: N_8  and  C_22 
REMARK    6  A    between atoms: C_9  and  N_10 
REMARK    7  A    between atoms: N_10  and  C_11 
REMARK    8  A    between atoms: C_11  and  C_12 
REMARK    9  A    between atoms: C_12  and  C_13 
REMARK   10  A    between atoms: C_13  and  N_14 
REMARK   11  A    between atoms: C_22  and  C_23 
ROOT
HETATM    1  N   UNL     1      41.791 -13.212   5.042  1.00  0.00    -0.350 N 
ENDROOT
BRANCH   1   2
HETATM    2  C   UNL     1      40.448 -13.119   4.424  1.00  0.00     0.164 C 
BRANCH   2   3
HETATM    3  C   UNL     1      40.309 -13.661   3.022  1.00  0.00    -0.040 A 
HETATM    4  C   UNL     1      40.160 -15.030   2.764  1.00  0.00     0.011 A 
HETATM    5  C   UNL     1      39.947 -15.481   1.455  1.00  0.00     0.037 A 
HETATM    6  C   UNL     1      39.870 -14.566   0.404  1.00  0.00     0.068 A 
HETATM    7  C   UNL     1      40.040 -13.207   0.647  1.00  0.00     0.037 A 
HETATM    8  C   UNL     1      40.239 -12.756   1.949  1.00  0.00     0.011 A 
BRANCH   6   9
HETATM    9  O   UNL     1      39.679 -14.925  -0.901  1.00  0.00    -0.356 OA
HETATM   10  C   UNL     1      38.989 -13.937  -1.664  1.00  0.00     0.210 C 
ENDBRANCH   6   9
ENDBRANCH   2   3
ENDBRANCH   1   2
BRANCH   1  11
HETATM   11  C   UNL     1      42.651 -12.093   5.069  1.00  0.00     0.170 C 
HETATM   12  S   UNL     1      43.575 -11.537   3.779  1.00  0.00    -0.041 SA
BRANCH  11  13
HETATM   13  N   UNL     1      42.693 -11.504   6.324  1.00  0.00    -0.367 N 
HETATM   14  H   UNL     1      41.840 -11.039   6.609  1.00  0.00     0.161 HD
BRANCH  13  15
HETATM   15  C   UNL     1      43.888 -11.121   7.064  1.00  0.00     0.123 C 
BRANCH  15  16
HETATM   16  C   UNL     1      43.608 -10.049   8.112  1.00  0.00     0.047 C 
BRANCH  16  17
HETATM   17  C   UNL     1      43.915 -10.433   9.558  1.00  0.00     0.236 C 
BRANCH  17  18
HETATM   18  N   UNL     1      42.726 -10.376  10.480  1.00  0.00    -0.067 N 
HETATM   19  H   UNL     1      42.238 -11.288  10.414  1.00  0.00     0.280 HD
HETATM   20  C   UNL     1      43.066 -10.125  11.941  1.00  0.00     0.261 C 
HETATM   21  C   UNL     1      41.781 -10.042  12.773  1.00  0.00     0.195 C 
HETATM   22  O   UNL     1      40.914  -9.018  12.274  1.00  0.00    -0.388 OA
HETATM   23  C   UNL     1      40.502  -9.295  10.932  1.00  0.00     0.195 C 
HETATM   24  C   UNL     1      41.710  -9.340   9.990  1.00  0.00     0.261 C 
ENDBRANCH  17  18
ENDBRANCH  16  17
ENDBRANCH  15  16
ENDBRANCH  13  15
ENDBRANCH  11  13
ENDBRANCH   1  11
BRANCH   1  25
HETATM   25  C   UNL     1      41.825 -14.094   6.245  1.00  0.00     0.169 C 
BRANCH  25  26
HETATM   26  C   UNL     1      42.645 -15.322   5.939  1.00  0.00     0.029 C 
HETATM   27  C   UNL     1      43.092 -16.151   7.100  1.00  0.00     0.253 C 
HETATM   28  O   UNL     1      43.011 -15.740   8.256  1.00  0.00    -0.268 OA
HETATM   29  N   UNL     1      43.555 -17.409   6.822  1.00  0.00    -0.322 N 
HETATM   30  C   UNL     1      43.651 -17.931   5.526  1.00  0.00     0.048 A 
HETATM   31  H   UNL     1      43.801 -17.982   7.618  1.00  0.00     0.169 HD
HETATM   32  C   UNL     1      43.362 -17.093   4.428  1.00  0.00    -0.006 A 
HETATM   33  C   UNL     1      43.971 -19.277   5.343  1.00  0.00     0.070 A 
HETATM   34  C   UNL     1      43.383 -17.606   3.126  1.00  0.00     0.053 A 
HETATM   35  C   UNL     1      42.901 -15.728   4.682  1.00  0.00     0.028 C 
HETATM   36  C   UNL     1      43.660 -18.947   2.976  1.00  0.00     0.106 A 
HETATM   37  C   UNL     1      43.943 -19.757   4.052  1.00  0.00     0.107 A 
HETATM   38  O   UNL     1      43.643 -19.629   1.801  1.00  0.00    -0.323 OA
HETATM   39  O   UNL     1      44.140 -21.051   3.683  1.00  0.00    -0.323 OA
HETATM   40  C   UNL     1      43.886 -20.974   2.263  1.00  0.00     0.352 A 
ENDBRANCH  25  26
ENDBRANCH   1  25
TORSDOF 11
ENDMDL
MODEL 5
REMARK VINA RESULT:      -8.7      1.841      8.562
REMARK  11 active torsions:
REMARK  status: ('A' for Active; 'I' for Inactive)
REMARK    1  A    between atoms: O_2  and  C_3 
REMARK    2  A    between atoms: C_6  and  C_7 
REMARK    3  A    between atoms: C_7  and  N_8 
REMARK    4  A    between atoms: N_8  and  C_9 
REMARK    5  A    between atoms: N_8  and  C_22 
REMARK    6  A    between atoms: C_9  and  N_10 
REMARK    7  A    between atoms: N_10  and  C_11 
REMARK    8  A    between atoms: C_11  and  C_12 
REMARK    9  A    between atoms: C_12  and  C_13 
REMARK   10  A    between atoms: C_13  and  N_14 
REMARK   11  A    between atoms: C_22  and  C_23 
ROOT
HETATM    1  N   UNL     1      42.648 -14.357   4.450  1.00  0.00    -0.350 N 
ENDROOT
BRANCH   1   2
HETATM    2  C   UNL     1      43.260 -15.054   3.296  1.00  0.00     0.164 C 
BRANCH   2   3
HETATM    3  C   UNL     1      43.384 -16.555   3.399  1.00  0.00    -0.040 A 
HETATM    4  C   UNL     1      43.064 -17.404   2.332  1.00  0.00     0.011 A 
HETATM    5  C   UNL     1      43.276 -18.784   2.442  1.00  0.00     0.037 A 
HETATM    6  C   UNL     1      43.818 -19.318   3.612  1.00  0.00     0.068 A 
HETATM    7  C   UNL     1      44.117 -18.486   4.686  1.00  0.00     0.037 A 
HETATM    8  C   UNL     1      43.919 -17.112   4.574  1.00  0.00     0.011 A 
BRANCH   6   9
HETATM    9  O   UNL     1      44.042 -20.652   3.804  1.00  0.00    -0.356 OA
HETATM   10  C   UNL     1      43.929 -21.055   5.168  1.00  0.00     0.210 C 
ENDBRANCH   6   9
ENDBRANCH   2   3
ENDBRANCH   1   2
BRANCH   1  11
HETATM   11  C   UNL     1      42.993 -13.022   4.751  1.00  0.00     0.170 C 
HETATM   12  S   UNL     1      43.627 -11.905   3.665  1.00  0.00    -0.041 SA
BRANCH  11  13
HETATM   13  N   UNL     1      42.791 -12.725   6.091  1.00  0.00    -0.367 N 
HETATM   14  H   UNL     1      41.859 -12.405   6.324  1.00  0.00     0.161 HD
BRANCH  13  15
HETATM   15  C   UNL     1      43.818 -12.422   7.078  1.00  0.00     0.123 C 
BRANCH  15  16
HETATM   16  C   UNL     1      43.884 -10.936   7.416  1.00  0.00     0.047 C 
BRANCH  16  17
HETATM   17  C   UNL     1      44.399 -10.591   8.811  1.00  0.00     0.236 C 
BRANCH  17  18
HETATM   18  N   UNL     1      43.325 -10.512   9.865  1.00  0.00    -0.067 N 
HETATM   19  H   UNL     1      42.741 -11.364   9.777  1.00  0.00     0.280 HD
HETATM   20  C   UNL     1      43.841 -10.437  11.294  1.00  0.00     0.261 C 
HETATM   21  C   UNL     1      42.666 -10.314  12.271  1.00  0.00     0.195 C 
HETATM   22  O   UNL     1      41.862  -9.170  11.964  1.00  0.00    -0.388 OA
HETATM   23  C   UNL     1      41.285  -9.278  10.658  1.00  0.00     0.195 C 
HETATM   24  C   UNL     1      42.376  -9.344   9.584  1.00  0.00     0.261 C 
ENDBRANCH  17  18
ENDBRANCH  16  17
ENDBRANCH  15  16
ENDBRANCH  13  15
ENDBRANCH  11  13
ENDBRANCH   1  11
BRANCH   1  25
HETATM   25  C   UNL     1      41.221 -14.732   4.674  1.00  0.00     0.169 C 
BRANCH  25  26
HETATM   26  C   UNL     1      40.384 -14.209   3.535  1.00  0.00     0.029 C 
HETATM   27  C   UNL     1      39.726 -12.879   3.724  1.00  0.00     0.253 C 
HETATM   28  O   UNL     1      39.664 -12.342   4.828  1.00  0.00    -0.268 OA
HETATM   29  N   UNL     1      39.236 -12.265   2.604  1.00  0.00    -0.322 N 
HETATM   30  C   UNL     1      39.298 -12.825   1.322  1.00  0.00     0.048 A 
HETATM   31  H   UNL     1      38.845 -11.341   2.735  1.00  0.00     0.169 HD
HETATM   32  C   UNL     1      39.790 -14.139   1.173  1.00  0.00    -0.006 A 
HETATM   33  C   UNL     1      38.929 -12.061   0.214  1.00  0.00     0.070 A 
HETATM   34  C   UNL     1      39.927 -14.699  -0.102  1.00  0.00     0.053 A 
HETATM   35  C   UNL     1      40.288 -14.846   2.353  1.00  0.00     0.028 C 
HETATM   36  C   UNL     1      39.597 -13.910  -1.181  1.00  0.00     0.106 A 
HETATM   37  C   UNL     1      39.115 -12.630  -1.028  1.00  0.00     0.107 A 
HETATM   38  O   UNL     1      39.743 -14.258  -2.487  1.00  0.00    -0.323 OA
HETATM   39  O   UNL     1      38.898 -12.016  -2.222  1.00  0.00    -0.323 OA
HETATM   40  C   UNL     1      39.358 -13.030  -3.141  1.00  0.00     0.352 A 
ENDBRANCH  25  26
ENDBRANCH   1  25
TORSDOF 11
ENDMDL
MODEL 6
REMARK VINA RESULT:      -8.4      1.832      7.153
REMARK  11 active torsions:
REMARK  status: ('A' for Active; 'I' for Inactive)
REMARK    1  A    between atoms: O_2  and  C_3 
REMARK    2  A    between atoms: C_6  and  C_7 
REMARK    3  A    between atoms: C_7  and  N_8 
REMARK    4  A    between atoms: N_8  and  C_9 
REMARK    5  A    between atoms: N_8  and  C_22 
REMARK    6  A    between atoms: C_9  and  N_10 
REMARK    7  A    between atoms: N_10  and  C_11 
REMARK    8  A    between atoms: C_11  and  C_12 
REMARK    9  A    between atoms: C_12  and  C_13 
REMARK   10  A    between atoms: C_13  and  N_14 
REMARK   11  A    between atoms: C_22  and  C_23 
ROOT
HETATM    1  N   UNL     1      41.996 -12.109   4.848  1.00  0.00    -0.350 N 
ENDROOT
BRANCH   1   2
HETATM    2  C   UNL     1      43.467 -11.941   4.790  1.00  0.00     0.164 C 
BRANCH   2   3
HETATM    3  C   UNL     1      44.125 -11.313   5.995  1.00  0.00    -0.040 A 
HETATM    4  C   UNL     1      45.485 -11.491   6.278  1.00  0.00     0.011 A 
HETATM    5  C   UNL     1      46.074 -10.820   7.357  1.00  0.00     0.037 A 
HETATM    6  C   UNL     1      45.309  -9.961   8.148  1.00  0.00     0.068 A 
HETATM    7  C   UNL     1      43.953  -9.796   7.889  1.00  0.00     0.037 A 
HETATM    8  C   UNL     1      43.368 -10.452   6.809  1.00  0.00     0.011 A 
BRANCH   6   9
HETATM    9  O   UNL     1      45.804  -9.282   9.226  1.00  0.00    -0.356 OA
HETATM   10  C   UNL     1      45.225  -9.688  10.465  1.00  0.00     0.210 C 
ENDBRANCH   6   9
ENDBRANCH   2   3
ENDBRANCH   1   2
BRANCH   1  11
HETATM   11  C   UNL     1      41.191 -11.808   3.729  1.00  0.00     0.170 C 
HETATM   12  S   UNL     1      39.569 -11.368   3.779  1.00  0.00    -0.041 SA
BRANCH  11  13
HETATM   13  N   UNL     1      41.884 -11.961   2.537  1.00  0.00    -0.367 N 
HETATM   14  H   UNL     1      42.233 -11.102   2.131  1.00  0.00     0.161 HD
BRANCH  13  15
HETATM   15  C   UNL     1      41.806 -13.095   1.626  1.00  0.00     0.123 C 
BRANCH  15  16
HETATM   16  C   UNL     1      40.979 -12.789   0.382  1.00  0.00     0.047 C 
BRANCH  16  17
HETATM   17  C   UNL     1      40.350 -13.993  -0.314  1.00  0.00     0.236 C 
BRANCH  17  18
HETATM   18  N   UNL     1      39.519 -13.647  -1.521  1.00  0.00    -0.067 N 
HETATM   19  H   UNL     1      40.124 -13.114  -2.172  1.00  0.00     0.280 HD
HETATM   20  C   UNL     1      38.956 -14.845  -2.271  1.00  0.00     0.261 C 
HETATM   21  C   UNL     1      38.094 -14.371  -3.447  1.00  0.00     0.195 C 
HETATM   22  O   UNL     1      37.038 -13.517  -2.996  1.00  0.00    -0.388 OA
HETATM   23  C   UNL     1      37.556 -12.333  -2.379  1.00  0.00     0.195 C 
HETATM   24  C   UNL     1      38.390 -12.684  -1.143  1.00  0.00     0.261 C 
ENDBRANCH  17  18
ENDBRANCH  16  17
ENDBRANCH  15  16
ENDBRANCH  13  15
ENDBRANCH  11  13
ENDBRANCH   1  11
BRANCH   1  25
HETATM   25  C   UNL     1      41.571 -13.284   5.665  1.00  0.00     0.169 C 
BRANCH  25  26
HETATM   26  C   UNL     1      42.483 -14.449   5.374  1.00  0.00     0.029 C 
HETATM   27  C   UNL     1      43.314 -14.965   6.505  1.00  0.00     0.253 C 
HETATM   28  O   UNL     1      43.438 -14.336   7.554  1.00  0.00    -0.268 OA
HETATM   29  N   UNL     1      43.895 -16.192   6.338  1.00  0.00    -0.322 N 
HETATM   30  C   UNL     1      43.771 -16.957   5.171  1.00  0.00     0.048 A 
HETATM   31  H   UNL     1      44.407 -16.557   7.130  1.00  0.00     0.169 HD
HETATM   32  C   UNL     1      43.105 -16.401   4.058  1.00  0.00    -0.006 A 
HETATM   33  C   UNL     1      44.252 -18.267   5.147  1.00  0.00     0.070 A 
HETATM   34  C   UNL     1      42.906 -17.166   2.903  1.00  0.00     0.053 A 
HETATM   35  C   UNL     1      42.504 -15.074   4.183  1.00  0.00     0.028 C 
HETATM   36  C   UNL     1      43.353 -18.470   2.919  1.00  0.00     0.106 A 
HETATM   37  C   UNL     1      44.002 -19.004   4.009  1.00  0.00     0.107 A 
HETATM   38  O   UNL     1      43.174 -19.377   1.924  1.00  0.00    -0.323 OA
HETATM   39  O   UNL     1      44.314 -20.315   3.830  1.00  0.00    -0.323 OA
HETATM   40  C   UNL     1      43.729 -20.562   2.532  1.00  0.00     0.352 A 
ENDBRANCH  25  26
ENDBRANCH   1  25
TORSDOF 11
ENDMDL
MODEL 7
REMARK VINA RESULT:      -8.3      1.913      8.672
REMARK  11 active torsions:
REMARK  status: ('A' for Active; 'I' for Inactive)
REMARK    1  A    between atoms: O_2  and  C_3 
REMARK    2  A    between atoms: C_6  and  C_7 
REMARK    3  A    between atoms: C_7  and  N_8 
REMARK    4  A    between atoms: N_8  and  C_9 
REMARK    5  A    between atoms: N_8  and  C_22 
REMARK    6  A    between atoms: C_9  and  N_10 
REMARK    7  A    between atoms: N_10  and  C_11 
REMARK    8  A    between atoms: C_11  and  C_12 
REMARK    9  A    between atoms: C_12  and  C_13 
REMARK   10  A    between atoms: C_13  and  N_14 
REMARK   11  A    between atoms: C_22  and  C_23 
ROOT
HETATM    1  N   UNL     1      41.242 -12.580   2.780  1.00  0.00    -0.350 N 
ENDROOT
BRANCH   1   2
HETATM    2  C   UNL     1      41.604 -12.582   1.343  1.00  0.00     0.164 C 
BRANCH   2   3
HETATM    3  C   UNL     1      40.492 -12.874   0.365  1.00  0.00    -0.040 A 
HETATM    4  C   UNL     1      39.506 -11.929   0.054  1.00  0.00     0.011 A 
HETATM    5  C   UNL     1      38.543 -12.210  -0.924  1.00  0.00     0.037 A 
HETATM    6  C   UNL     1      38.570 -13.431  -1.600  1.00  0.00     0.068 A 
HETATM    7  C   UNL     1      39.530 -14.385  -1.283  1.00  0.00     0.037 A 
HETATM    8  C   UNL     1      40.496 -14.102  -0.320  1.00  0.00     0.011 A 
BRANCH   6   9
HETATM    9  O   UNL     1      37.660 -13.787  -2.556  1.00  0.00    -0.356 OA
HETATM   10  C   UNL     1      38.182 -14.698  -3.522  1.00  0.00     0.210 C 
ENDBRANCH   6   9
ENDBRANCH   2   3
ENDBRANCH   1   2
BRANCH   1  11
HETATM   11  C   UNL     1      40.755 -11.409   3.398  1.00  0.00     0.170 C 
HETATM   12  S   UNL     1      40.989  -9.838   2.845  1.00  0.00    -0.041 SA
BRANCH  11  13
HETATM   13  N   UNL     1      40.077 -11.690   4.575  1.00  0.00    -0.367 N 
HETATM   14  H   UNL     1      39.275 -12.300   4.473  1.00  0.00     0.161 HD
BRANCH  13  15
HETATM   15  C   UNL     1      40.115 -10.913   5.806  1.00  0.00     0.123 C 
BRANCH  15  16
HETATM   16  C   UNL     1      41.487 -10.941   6.473  1.00  0.00     0.047 C 
BRANCH  16  17
HETATM   17  C   UNL     1      42.110  -9.580   6.776  1.00  0.00     0.236 C 
BRANCH  17  18
HETATM   18  N   UNL     1      43.448  -9.652   7.464  1.00  0.00    -0.067 N 
HETATM   19  H   UNL     1      43.974  -8.796   7.208  1.00  0.00     0.280 HD
HETATM   20  C   UNL     1      43.380  -9.730   8.981  1.00  0.00     0.261 C 
HETATM   21  C   UNL     1      44.792  -9.845   9.566  1.00  0.00     0.195 C 
HETATM   22  O   UNL     1      45.477 -10.983   9.032  1.00  0.00    -0.388 OA
HETATM   23  C   UNL     1      45.640 -10.872   7.614  1.00  0.00     0.195 C 
HETATM   24  C   UNL     1      44.279 -10.813   6.912  1.00  0.00     0.261 C 
ENDBRANCH  17  18
ENDBRANCH  16  17
ENDBRANCH  15  16
ENDBRANCH  13  15
ENDBRANCH  11  13
ENDBRANCH   1  11
BRANCH   1  25
HETATM   25  C   UNL     1      40.633 -13.864   3.235  1.00  0.00     0.169 C 
BRANCH  25  26
HETATM   26  C   UNL     1      41.726 -14.874   3.479  1.00  0.00     0.029 C 
HETATM   27  C   UNL     1      42.468 -14.778   4.773  1.00  0.00     0.253 C 
HETATM   28  O   UNL     1      42.370 -13.793   5.501  1.00  0.00    -0.268 OA
HETATM   29  N   UNL     1      43.229 -15.857   5.133  1.00  0.00    -0.322 N 
HETATM   30  C   UNL     1      43.360 -17.010   4.349  1.00  0.00     0.048 A 
HETATM   31  H   UNL     1      43.681 -15.805   6.037  1.00  0.00     0.169 HD
HETATM   32  C   UNL     1      42.772 -17.034   3.066  1.00  0.00    -0.006 A 
HETATM   33  C   UNL     1      44.014 -18.129   4.865  1.00  0.00     0.070 A 
HETATM   34  C   UNL     1      42.828 -18.196   2.288  1.00  0.00     0.053 A 
HETATM   35  C   UNL     1      41.983 -15.884   2.627  1.00  0.00     0.028 C 
HETATM   36  C   UNL     1      43.443 -19.300   2.837  1.00  0.00     0.106 A 
HETATM   37  C   UNL     1      44.015 -19.268   4.089  1.00  0.00     0.107 A 
HETATM   38  O   UNL     1      43.518 -20.528   2.263  1.00  0.00    -0.323 OA
HETATM   39  O   UNL     1      44.524 -20.475   4.453  1.00  0.00    -0.323 OA
HETATM   40  C   UNL     1      44.148 -21.286   3.318  1.00  0.00     0.352 A 
ENDBRANCH  25  26
ENDBRANCH   1  25
TORSDOF 11
ENDMDL
MODEL 8
REMARK VINA RESULT:      -8.1      1.951      8.358
REMARK  11 active torsions:
REMARK  status: ('A' for Active; 'I' for Inactive)
REMARK    1  A    between atoms: O_2  and  C_3 
REMARK    2  A    between atoms: C_6  and  C_7 
REMARK    3  A    between atoms: C_7  and  N_8 
REMARK    4  A    between atoms: N_8  and  C_9 
REMARK    5  A    between atoms: N_8  and  C_22 
REMARK    6  A    between atoms: C_9  and  N_10 
REMARK    7  A    between atoms: N_10  and  C_11 
REMARK    8  A    between atoms: C_11  and  C_12 
REMARK    9  A    between atoms: C_12  and  C_13 
REMARK   10  A    between atoms: C_13  and  N_14 
REMARK   11  A    between atoms: C_22  and  C_23 
ROOT
HETATM    1  N   UNL     1      41.675 -14.238   4.275  1.00  0.00    -0.350 N 
ENDROOT
BRANCH   1   2
HETATM    2  C   UNL     1      42.791 -14.693   3.415  1.00  0.00     0.164 C 
BRANCH   2   3
HETATM    3  C   UNL     1      43.242 -16.123   3.591  1.00  0.00    -0.040 A 
HETATM    4  C   UNL     1      43.637 -16.632   4.834  1.00  0.00     0.011 A 
HETATM    5  C   UNL     1      43.965 -17.987   4.969  1.00  0.00     0.037 A 
HETATM    6  C   UNL     1      43.890 -18.838   3.865  1.00  0.00     0.068 A 
HETATM    7  C   UNL     1      43.522 -18.337   2.621  1.00  0.00     0.037 A 
HETATM    8  C   UNL     1      43.183 -16.993   2.488  1.00  0.00     0.011 A 
BRANCH   6   9
HETATM    9  O   UNL     1      44.206 -20.166   3.910  1.00  0.00    -0.356 OA
HETATM   10  C   UNL     1      44.252 -20.692   5.235  1.00  0.00     0.210 C 
ENDBRANCH   6   9
ENDBRANCH   2   3
ENDBRANCH   1   2
BRANCH   1  11
HETATM   11  C   UNL     1      41.811 -13.091   5.086  1.00  0.00     0.170 C 
HETATM   12  S   UNL     1      40.546 -12.153   5.677  1.00  0.00    -0.041 SA
BRANCH  11  13
HETATM   13  N   UNL     1      43.142 -12.777   5.318  1.00  0.00    -0.367 N 
HETATM   14  H   UNL     1      43.677 -12.540   4.492  1.00  0.00     0.161 HD
BRANCH  13  15
HETATM   15  C   UNL     1      43.930 -13.143   6.487  1.00  0.00     0.123 C 
BRANCH  15  16
HETATM   16  C   UNL     1      44.540 -11.932   7.185  1.00  0.00     0.047 C 
BRANCH  16  17
HETATM   17  C   UNL     1      43.643 -10.701   7.290  1.00  0.00     0.236 C 
BRANCH  17  18
HETATM   18  N   UNL     1      43.027 -10.497   8.649  1.00  0.00    -0.067 N 
HETATM   19  H   UNL     1      42.365 -11.278   8.809  1.00  0.00     0.280 HD
HETATM   20  C   UNL     1      44.021 -10.475   9.800  1.00  0.00     0.261 C 
HETATM   21  C   UNL     1      43.289 -10.217  11.122  1.00  0.00     0.195 C 
HETATM   22  O   UNL     1      42.552  -8.992  11.069  1.00  0.00    -0.388 OA
HETATM   23  C   UNL     1      41.541  -9.038  10.056  1.00  0.00     0.195 C 
HETATM   24  C   UNL     1      42.167  -9.231   8.671  1.00  0.00     0.261 C 
ENDBRANCH  17  18
ENDBRANCH  16  17
ENDBRANCH  15  16
ENDBRANCH  13  15
ENDBRANCH  11  13
ENDBRANCH   1  11
BRANCH   1  25
HETATM   25  C   UNL     1      40.333 -14.448   3.657  1.00  0.00     0.169 C 
BRANCH  25  26
HETATM   26  C   UNL     1      40.393 -14.075   2.197  1.00  0.00     0.029 C 
HETATM   27  C   UNL     1      40.015 -15.130   1.207  1.00  0.00     0.253 C 
HETATM   28  O   UNL     1      39.892 -16.308   1.534  1.00  0.00    -0.268 OA
HETATM   29  N   UNL     1      39.767 -14.716  -0.074  1.00  0.00    -0.322 N 
HETATM   30  C   UNL     1      39.874 -13.385  -0.494  1.00  0.00     0.048 A 
HETATM   31  H   UNL     1      39.456 -15.428  -0.722  1.00  0.00     0.169 HD
HETATM   32  C   UNL     1      40.369 -12.421   0.410  1.00  0.00    -0.006 A 
HETATM   33  C   UNL     1      39.440 -13.023  -1.770  1.00  0.00     0.070 A 
HETATM   34  C   UNL     1      40.423 -11.072   0.041  1.00  0.00     0.053 A 
HETATM   35  C   UNL     1      40.684 -12.830   1.778  1.00  0.00     0.028 C 
HETATM   36  C   UNL     1      39.950 -10.736  -1.208  1.00  0.00     0.106 A 
HETATM   37  C   UNL     1      39.470 -11.682  -2.085  1.00  0.00     0.107 A 
HETATM   38  O   UNL     1      39.850  -9.473  -1.701  1.00  0.00    -0.323 OA
HETATM   39  O   UNL     1      39.011 -11.128  -3.240  1.00  0.00    -0.323 OA
HETATM   40  C   UNL     1      39.197  -9.723  -2.963  1.00  0.00     0.352 A 
ENDBRANCH  25  26
ENDBRANCH   1  25
TORSDOF 11
ENDMDL
MODEL 9
REMARK VINA RESULT:      -8.1      2.891      6.857
REMARK  11 active torsions:
REMARK  status: ('A' for Active; 'I' for Inactive)
REMARK    1  A    between atoms: O_2  and  C_3 
REMARK    2  A    between atoms: C_6  and  C_7 
REMARK    3  A    between atoms: C_7  and  N_8 
REMARK    4  A    between atoms: N_8  and  C_9 
REMARK    5  A    between atoms: N_8  and  C_22 
REMARK    6  A    between atoms: C_9  and  N_10 
REMARK    7  A    between atoms: N_10  and  C_11 
REMARK    8  A    between atoms: C_11  and  C_12 
REMARK    9  A    between atoms: C_12  and  C_13 
REMARK   10  A    between atoms: C_13  and  N_14 
REMARK   11  A    between atoms: C_22  and  C_23 
ROOT
HETATM    1  N   UNL     1      41.841 -13.583   4.544  1.00  0.00    -0.350 N 
ENDROOT
BRANCH   1   2
HETATM    2  C   UNL     1      41.404 -14.972   4.818  1.00  0.00     0.164 C 
BRANCH   2   3
HETATM    3  C   UNL     1      42.271 -16.077   4.266  1.00  0.00    -0.040 A 
HETATM    4  C   UNL     1      43.435 -16.506   4.917  1.00  0.00     0.011 A 
HETATM    5  C   UNL     1      44.163 -17.592   4.416  1.00  0.00     0.037 A 
HETATM    6  C   UNL     1      43.725 -18.259   3.271  1.00  0.00     0.068 A 
HETATM    7  C   UNL     1      42.584 -17.826   2.604  1.00  0.00     0.037 A 
HETATM    8  C   UNL     1      41.851 -16.754   3.108  1.00  0.00     0.011 A 
BRANCH   6   9
HETATM    9  O   UNL     1      44.385 -19.317   2.711  1.00  0.00    -0.356 OA
HETATM   10  C   UNL     1      43.516 -20.251   2.072  1.00  0.00     0.210 C 
ENDBRANCH   6   9
ENDBRANCH   2   3
ENDBRANCH   1   2
BRANCH   1  11
HETATM   11  C   UNL     1      42.216 -12.725   5.599  1.00  0.00     0.170 C 
HETATM   12  S   UNL     1      43.776 -12.181   5.912  1.00  0.00    -0.041 SA
BRANCH  11  13
HETATM   13  N   UNL     1      41.138 -12.397   6.408  1.00  0.00    -0.367 N 
HETATM   14  H   UNL     1      40.657 -13.187   6.821  1.00  0.00     0.161 HD
BRANCH  13  15
HETATM   15  C   UNL     1      40.388 -11.149   6.393  1.00  0.00     0.123 C 
BRANCH  15  16
HETATM   16  C   UNL     1      39.225 -11.177   5.407  1.00  0.00     0.047 C 
BRANCH  16  17
HETATM   17  C   UNL     1      38.763  -9.820   4.880  1.00  0.00     0.236 C 
BRANCH  17  18
HETATM   18  N   UNL     1      38.111  -9.871   3.524  1.00  0.00    -0.067 N 
HETATM   19  H   UNL     1      37.085  -9.880   3.674  1.00  0.00     0.280 HD
HETATM   20  C   UNL     1      38.447  -8.701   2.612  1.00  0.00     0.261 C 
HETATM   21  C   UNL     1      37.767  -8.883   1.251  1.00  0.00     0.195 C 
HETATM   22  O   UNL     1      38.155 -10.121   0.646  1.00  0.00    -0.388 OA
HETATM   23  C   UNL     1      37.751 -11.238   1.446  1.00  0.00     0.195 C 
HETATM   24  C   UNL     1      38.425 -11.194   2.821  1.00  0.00     0.261 C 
ENDBRANCH  17  18
ENDBRANCH  16  17
ENDBRANCH  15  16
ENDBRANCH  13  15
ENDBRANCH  11  13
ENDBRANCH   1  11
BRANCH   1  25
HETATM   25  C   UNL     1      42.625 -13.452   3.282  1.00  0.00     0.169 C 
BRANCH  25  26
HETATM   26  C   UNL     1      41.690 -13.119   2.147  1.00  0.00     0.029 C 
HETATM   27  C   UNL     1      41.799 -11.751   1.551  1.00  0.00     0.253 C 
HETATM   28  O   UNL     1      42.440 -10.858   2.100  1.00  0.00    -0.268 OA
HETATM   29  N   UNL     1      41.188 -11.551   0.343  1.00  0.00    -0.322 N 
HETATM   30  C   UNL     1      40.462 -12.540  -0.332  1.00  0.00     0.048 A 
HETATM   31  H   UNL     1      41.317 -10.640  -0.078  1.00  0.00     0.169 HD
HETATM   32  C   UNL     1      40.244 -13.781   0.303  1.00  0.00    -0.006 A 
HETATM   33  C   UNL     1      40.017 -12.305  -1.634  1.00  0.00     0.070 A 
HETATM   34  C   UNL     1      39.580 -14.811  -0.374  1.00  0.00     0.053 A 
HETATM   35  C   UNL     1      40.847 -14.021   1.613  1.00  0.00     0.028 C 
HETATM   36  C   UNL     1      39.189 -14.569  -1.673  1.00  0.00     0.106 A 
HETATM   37  C   UNL     1      39.403 -13.355  -2.284  1.00  0.00     0.107 A 
HETATM   38  O   UNL     1      38.609 -15.474  -2.504  1.00  0.00    -0.323 OA
HETATM   39  O   UNL     1      38.981 -13.348  -3.577  1.00  0.00    -0.323 OA
HETATM   40  C   UNL     1      38.538 -14.714  -3.729  1.00  0.00     0.352 A 
ENDBRANCH  25  26
ENDBRANCH   1  25
TORSDOF 11
ENDMDL
MODEL 10
REMARK VINA RESULT:      -8.0      4.965      9.907
REMARK  11 active torsions:
REMARK  status: ('A' for Active; 'I' for Inactive)
REMARK    1  A    between atoms: O_2  and  C_3 
REMARK    2  A    between atoms: C_6  and  C_7 
REMARK    3  A    between atoms: C_7  and  N_8 
REMARK    4  A    between atoms: N_8  and  C_9 
REMARK    5  A    between atoms: N_8  and  C_22 
REMARK    6  A    between atoms: C_9  and  N_10 
REMARK    7  A    between atoms: N_10  and  C_11 
REMARK    8  A    between atoms: C_11  and  C_12 
REMARK    9  A    between atoms: C_12  and  C_13 
REMARK   10  A    between atoms: C_13  and  N_14 
REMARK   11  A    between atoms: C_22  and  C_23 
ROOT
HETATM    1  N   UNL     1      42.815  -9.363   9.566  1.00  0.00    -0.350 N 
ENDROOT
BRANCH   1   2
HETATM    2  C   UNL     1      42.769 -10.150  10.820  1.00  0.00     0.164 C 
BRANCH   2   3
HETATM    3  C   UNL     1      42.711  -9.368  12.110  1.00  0.00    -0.040 A 
HETATM    4  C   UNL     1      43.517  -8.245  12.337  1.00  0.00     0.011 A 
HETATM    5  C   UNL     1      43.368  -7.498  13.512  1.00  0.00     0.037 A 
HETATM    6  C   UNL     1      42.409  -7.865  14.458  1.00  0.00     0.068 A 
HETATM    7  C   UNL     1      41.621  -8.992  14.252  1.00  0.00     0.037 A 
HETATM    8  C   UNL     1      41.758  -9.728  13.078  1.00  0.00     0.011 A 
BRANCH   6   9
HETATM    9  O   UNL     1      42.212  -7.198  15.634  1.00  0.00    -0.356 OA
HETATM   10  C   UNL     1      41.084  -7.671  16.369  1.00  0.00     0.210 C 
ENDBRANCH   6   9
ENDBRANCH   2   3
ENDBRANCH   1   2
BRANCH   1  11
HETATM   11  C   UNL     1      43.919  -9.460   8.693  1.00  0.00     0.170 C 
HETATM   12  S   UNL     1      45.355  -8.594   8.829  1.00  0.00    -0.041 SA
BRANCH  11  13
HETATM   13  N   UNL     1      43.677 -10.339   7.649  1.00  0.00    -0.367 N 
HETATM   14  H   UNL     1      42.760 -10.263   7.228  1.00  0.00     0.161 HD
BRANCH  13  15
HETATM   15  C   UNL     1      44.385 -11.583   7.379  1.00  0.00     0.123 C 
BRANCH  15  16
HETATM   16  C   UNL     1      43.755 -12.379   6.240  1.00  0.00     0.047 C 
BRANCH  16  17
HETATM   17  C   UNL     1      42.233 -12.492   6.266  1.00  0.00     0.236 C 
BRANCH  17  18
HETATM   18  N   UNL     1      41.718 -13.901   6.402  1.00  0.00    -0.067 N 
HETATM   19  H   UNL     1      40.931 -13.879   7.076  1.00  0.00     0.280 HD
HETATM   20  C   UNL     1      41.218 -14.523   5.107  1.00  0.00     0.261 C 
HETATM   21  C   UNL     1      40.765 -15.965   5.358  1.00  0.00     0.195 C 
HETATM   22  O   UNL     1      41.827 -16.746   5.915  1.00  0.00    -0.388 OA
HETATM   23  C   UNL     1      42.238 -16.231   7.186  1.00  0.00     0.195 C 
HETATM   24  C   UNL     1      42.775 -14.803   7.047  1.00  0.00     0.261 C 
ENDBRANCH  17  18
ENDBRANCH  16  17
ENDBRANCH  15  16
ENDBRANCH  13  15
ENDBRANCH  11  13
ENDBRANCH   1  11
BRANCH   1  25
HETATM   25  C   UNL     1      41.479  -9.210   8.918  1.00  0.00     0.169 C 
BRANCH  25  26
HETATM   26  C   UNL     1      40.560  -8.457   9.846  1.00  0.00     0.029 C 
HETATM   27  C   UNL     1      39.342  -9.175  10.333  1.00  0.00     0.253 C 
HETATM   28  O   UNL     1      38.971 -10.232   9.827  1.00  0.00    -0.268 OA
HETATM   29  N   UNL     1      38.683  -8.626  11.399  1.00  0.00    -0.322 N 
HETATM   30  C   UNL     1      39.074  -7.435  12.023  1.00  0.00     0.048 A 
HETATM   31  H   UNL     1      37.895  -9.150  11.757  1.00  0.00     0.169 HD
HETATM   32  C   UNL     1      40.137  -6.690  11.468  1.00  0.00    -0.006 A 
HETATM   33  C   UNL     1      38.451  -7.034  13.205  1.00  0.00     0.070 A 
HETATM   34  C   UNL     1      40.594  -5.532  12.107  1.00  0.00     0.053 A 
HETATM   35  C   UNL     1      40.843  -7.223  10.304  1.00  0.00     0.028 C 
HETATM   36  C   UNL     1      39.990  -5.182  13.295  1.00  0.00     0.106 A 
HETATM   37  C   UNL     1      38.953  -5.912  13.829  1.00  0.00     0.107 A 
HETATM   38  O   UNL     1      40.357  -4.142  14.090  1.00  0.00    -0.323 OA
HETATM   39  O   UNL     1      38.539  -5.418  15.026  1.00  0.00    -0.323 OA
HETATM   40  C   UNL     1      39.475  -4.335  15.216  1.00  0.00     0.352 A 
ENDBRANCH  25  26
ENDBRANCH   1  25
TORSDOF 11
ENDMDL
