MODEL 1
REMARK VINA RESULT:      -8.6      0.000      0.000
REMARK  9 active torsions:
REMARK  status: ('A' for Active; 'I' for Inactive)
REMARK    1  A    between atoms: C_2  and  C_3 
REMARK    2  A    between atoms: C_6  and  N_7 
REMARK    3  A    between atoms: N_7  and  S_8 
REMARK    4  A    between atoms: S_8  and  C_9 
REMARK    5  A    between atoms: C_15  and  C_16 
REMARK       I    between atoms: C_16  and  N_17 
REMARK    6  A    between atoms: N_17  and  C_18 
REMARK    7  A    between atoms: C_18  and  C_19 
REMARK    8  A    between atoms: C_19  and  C_20 
REMARK    9  A    between atoms: C_20  and  O_21 
ROOT
HETATM    1  C   UNL     1      40.735 -13.189   4.938  1.00  0.00     0.081 A 
HETATM    2  C   UNL     1      40.484 -13.361   3.574  1.00  0.00     0.043 A 
HETATM    3  C   UNL     1      39.628 -12.469   2.925  1.00  0.00     0.043 A 
HETATM    4  C   UNL     1      39.039 -11.395   3.618  1.00  0.00     0.046 A 
HETATM    5  N   UNL     1      38.155 -10.541   2.950  1.00  0.00    -0.364 N 
HETATM    6  C   UNL     1      37.900 -10.696   1.612  1.00  0.00     0.109 A 
HETATM    7  C   UNL     1      38.402 -11.669   0.830  1.00  0.00     0.098 A 
HETATM    8  C   UNL     1      39.322 -12.646   1.478  1.00  0.00     0.201 A 
HETATM    9  O   UNL     1      39.819 -13.580   0.853  1.00  0.00    -0.286 OA
HETATM   10  C   UNL     1      39.306 -11.238   4.981  1.00  0.00     0.032 A 
HETATM   11  C   UNL     1      40.160 -12.126   5.642  1.00  0.00     0.027 A 
HETATM   12  H   UNL     1      37.829  -9.699   3.411  1.00  0.00     0.165 HD
ENDROOT
BRANCH   1  13
HETATM   13  S   UNL     1      41.840 -14.314   5.763  1.00  0.00     0.263 S 
HETATM   14  O   UNL     1      41.116 -15.537   6.028  1.00  0.00    -0.200 OA
HETATM   15  O   UNL     1      42.479 -13.573   6.830  1.00  0.00    -0.200 OA
BRANCH  13  16
HETATM   16  N   UNL     1      43.027 -14.590   4.596  1.00  0.00    -0.281 N 
HETATM   17  H   UNL     1      43.081 -13.841   3.907  1.00  0.00     0.179 HD
BRANCH  16  18
HETATM   18  C   UNL     1      43.272 -15.918   4.154  1.00  0.00     0.042 A 
HETATM   19  C   UNL     1      42.775 -16.342   2.924  1.00  0.00     0.030 A 
HETATM   20  C   UNL     1      43.003 -17.653   2.495  1.00  0.00     0.010 A 
HETATM   21  C   UNL     1      43.740 -18.549   3.285  1.00  0.00    -0.055 A 
HETATM   22  C   UNL     1      44.217 -18.109   4.529  1.00  0.00     0.010 A 
HETATM   23  C   UNL     1      43.980 -16.803   4.963  1.00  0.00     0.030 A 
BRANCH  21  24
HETATM   24  C   UNL     1      44.019 -19.975   2.841  1.00  0.00     0.010 C 
HETATM   25  C   UNL     1      43.145 -20.404   1.658  1.00  0.00     0.015 C 
HETATM   26  C   UNL     1      43.869 -20.949   4.010  1.00  0.00     0.015 C 
ENDBRANCH  21  24
ENDBRANCH  16  18
ENDBRANCH  13  16
ENDBRANCH   1  13
BRANCH   7  27
HETATM   27  C   UNL     1      38.001 -11.705  -0.606  1.00  0.00     0.257 C 
HETATM   28  N   UNL     1      37.847 -12.959  -1.141  1.00  0.00    -0.357 N 
HETATM   29  H   UNL     1      37.976 -13.765  -0.526  1.00  0.00     0.162 HD
HETATM   30  O   UNL     1      37.821 -10.674  -1.249  1.00  0.00    -0.267 OA
BRANCH  28  31
HETATM   31  C   UNL     1      37.400 -13.183  -2.499  1.00  0.00     0.125 C 
BRANCH  31  32
HETATM   32  C   UNL     1      38.428 -13.897  -3.369  1.00  0.00     0.046 C 
BRANCH  32  33
HETATM   33  C   UNL     1      39.683 -14.289  -2.598  1.00  0.00     0.168 C 
BRANCH  33  34
HETATM   34  O   UNL     1      40.813 -13.741  -3.280  1.00  0.00    -0.396 OA
HETATM   35  C   UNL     1      40.939 -12.344  -3.052  1.00  0.00     0.201 C 
ENDBRANCH  33  34
ENDBRANCH  32  33
ENDBRANCH  31  32
ENDBRANCH  28  31
ENDBRANCH   7  27
TORSDOF 9
ENDMDL
MODEL 2
REMARK VINA RESULT:      -8.2      3.731      7.753
REMARK  9 active torsions:
REMARK  status: ('A' for Active; 'I' for Inactive)
REMARK    1  A    between atoms: C_2  and  C_3 
REMARK    2  A    between atoms: C_6  and  N_7 
REMARK    3  A    between atoms: N_7  and  S_8 
REMARK    4  A    between atoms: S_8  and  C_9 
REMARK    5  A    between atoms: C_15  and  C_16 
REMARK       I    between atoms: C_16  and  N_17 
REMARK    6  A    between atoms: N_17  and  C_18 
REMARK    7  A    between atoms: C_18  and  C_19 
REMARK    8  A    between atoms: C_19  and  C_20 
REMARK    9  A    between atoms: C_20  and  O_21 
ROOT
HETATM    1  C   UNL     1      40.286 -12.312   2.356  1.00  0.00     0.081 A 
HETATM    2  C   UNL     1      41.598 -12.021   2.741  1.00  0.00     0.043 A 
HETATM    3  C   UNL     1      41.877 -11.819   4.095  1.00  0.00     0.043 A 
HETATM    4  C   UNL     1      40.866 -11.926   5.067  1.00  0.00     0.046 A 
HETATM    5  N   UNL     1      41.167 -11.679   6.410  1.00  0.00    -0.364 N 
HETATM    6  C   UNL     1      42.450 -11.394   6.804  1.00  0.00     0.109 A 
HETATM    7  C   UNL     1      43.508 -11.273   5.984  1.00  0.00     0.098 A 
HETATM    8  C   UNL     1      43.260 -11.481   4.529  1.00  0.00     0.201 A 
HETATM    9  O   UNL     1      44.159 -11.375   3.698  1.00  0.00    -0.286 OA
HETATM   10  C   UNL     1      39.561 -12.222   4.661  1.00  0.00     0.032 A 
HETATM   11  C   UNL     1      39.269 -12.425   3.309  1.00  0.00     0.027 A 
HETATM   12  H   UNL     1      40.474 -11.877   7.124  1.00  0.00     0.165 HD
ENDROOT
BRANCH   1  13
HETATM   13  S   UNL     1      39.932 -12.589   0.633  1.00  0.00     0.263 S 
HETATM   14  O   UNL     1      41.073 -12.140  -0.135  1.00  0.00    -0.200 OA
HETATM   15  O   UNL     1      38.606 -12.063   0.384  1.00  0.00    -0.200 OA
BRANCH  13  16
HETATM   16  N   UNL     1      39.805 -14.268   0.546  1.00  0.00    -0.281 N 
HETATM   17  H   UNL     1      38.838 -14.586   0.500  1.00  0.00     0.179 HD
BRANCH  16  18
HETATM   18  C   UNL     1      40.735 -15.074   1.257  1.00  0.00     0.042 A 
HETATM   19  C   UNL     1      40.324 -15.777   2.386  1.00  0.00     0.030 A 
HETATM   20  C   UNL     1      41.243 -16.559   3.094  1.00  0.00     0.010 A 
HETATM   21  C   UNL     1      42.578 -16.654   2.672  1.00  0.00    -0.055 A 
HETATM   22  C   UNL     1      42.978 -15.923   1.543  1.00  0.00     0.010 A 
HETATM   23  C   UNL     1      42.063 -15.135   0.843  1.00  0.00     0.030 A 
BRANCH  21  24
HETATM   24  C   UNL     1      43.597 -17.506   3.410  1.00  0.00     0.010 C 
HETATM   25  C   UNL     1      43.672 -18.936   2.865  1.00  0.00     0.015 C 
HETATM   26  C   UNL     1      43.319 -17.510   4.913  1.00  0.00     0.015 C 
ENDBRANCH  21  24
ENDBRANCH  16  18
ENDBRANCH  13  16
ENDBRANCH   1  13
BRANCH   7  27
HETATM   27  C   UNL     1      44.834 -10.935   6.578  1.00  0.00     0.257 C 
HETATM   28  N   UNL     1      44.802 -10.025   7.604  1.00  0.00    -0.357 N 
HETATM   29  H   UNL     1      43.892  -9.675   7.911  1.00  0.00     0.162 HD
HETATM   30  O   UNL     1      45.871 -11.450   6.169  1.00  0.00    -0.267 OA
BRANCH  28  31
HETATM   31  C   UNL     1      45.985  -9.630   8.338  1.00  0.00     0.125 C 
BRANCH  31  32
HETATM   32  C   UNL     1      45.727  -9.378   9.820  1.00  0.00     0.046 C 
BRANCH  32  33
HETATM   33  C   UNL     1      44.255  -9.503  10.192  1.00  0.00     0.168 C 
BRANCH  33  34
HETATM   34  O   UNL     1      43.977 -10.879  10.456  1.00  0.00    -0.396 OA
HETATM   35  C   UNL     1      43.659 -11.100  11.823  1.00  0.00     0.201 C 
ENDBRANCH  33  34
ENDBRANCH  32  33
ENDBRANCH  31  32
ENDBRANCH  28  31
ENDBRANCH   7  27
TORSDOF 9
ENDMDL
MODEL 3
REMARK VINA RESULT:      -8.2      2.422      3.481
REMARK  9 active torsions:
REMARK  status: ('A' for Active; 'I' for Inactive)
REMARK    1  A    between atoms: C_2  and  C_3 
REMARK    2  A    between atoms: C_6  and  N_7 
REMARK    3  A    between atoms: N_7  and  S_8 
REMARK    4  A    between atoms: S_8  and  C_9 
REMARK    5  A    between atoms: C_15  and  C_16 
REMARK       I    between atoms: C_16  and  N_17 
REMARK    6  A    between atoms: N_17  and  C_18 
REMARK    7  A    between atoms: C_18  and  C_19 
REMARK    8  A    between atoms: C_19  and  C_20 
REMARK    9  A    between atoms: C_20  and  O_21 
ROOT
HETATM    1  C   UNL     1      40.777 -14.447   3.897  1.00  0.00     0.081 A 
HETATM    2  C   UNL     1      41.027 -13.425   2.978  1.00  0.00     0.043 A 
HETATM    3  C   UNL     1      40.663 -13.612   1.642  1.00  0.00     0.043 A 
HETATM    4  C   UNL     1      40.034 -14.798   1.221  1.00  0.00     0.046 A 
HETATM    5  N   UNL     1      39.718 -14.974  -0.130  1.00  0.00    -0.364 N 
HETATM    6  C   UNL     1      39.955 -13.979  -1.044  1.00  0.00     0.109 A 
HETATM    7  C   UNL     1      40.537 -12.797  -0.776  1.00  0.00     0.098 A 
HETATM    8  C   UNL     1      40.942 -12.550   0.637  1.00  0.00     0.201 A 
HETATM    9  O   UNL     1      41.497 -11.508   0.978  1.00  0.00    -0.286 OA
HETATM   10  C   UNL     1      39.790 -15.807   2.158  1.00  0.00     0.032 A 
HETATM   11  C   UNL     1      40.151 -15.632   3.497  1.00  0.00     0.027 A 
HETATM   12  H   UNL     1      39.156 -15.768  -0.414  1.00  0.00     0.165 HD
ENDROOT
BRANCH   1  13
HETATM   13  S   UNL     1      41.222 -14.203   5.603  1.00  0.00     0.263 S 
HETATM   14  O   UNL     1      40.425 -15.104   6.406  1.00  0.00    -0.200 OA
HETATM   15  O   UNL     1      41.211 -12.775   5.843  1.00  0.00    -0.200 OA
BRANCH  13  16
HETATM   16  N   UNL     1      42.839 -14.680   5.637  1.00  0.00    -0.281 N 
HETATM   17  H   UNL     1      43.474 -13.936   5.350  1.00  0.00     0.179 HD
BRANCH  16  18
HETATM   18  C   UNL     1      43.178 -16.014   5.283  1.00  0.00     0.042 A 
HETATM   19  C   UNL     1      43.202 -17.006   6.260  1.00  0.00     0.030 A 
HETATM   20  C   UNL     1      43.550 -18.316   5.915  1.00  0.00     0.010 A 
HETATM   21  C   UNL     1      43.864 -18.650   4.588  1.00  0.00    -0.055 A 
HETATM   22  C   UNL     1      43.853 -17.633   3.621  1.00  0.00     0.010 A 
HETATM   23  C   UNL     1      43.516 -16.322   3.968  1.00  0.00     0.030 A 
BRANCH  21  24
HETATM   24  C   UNL     1      44.230 -20.066   4.177  1.00  0.00     0.010 C 
HETATM   25  C   UNL     1      43.642 -20.454   2.817  1.00  0.00     0.015 C 
HETATM   26  C   UNL     1      43.819 -21.069   5.255  1.00  0.00     0.015 C 
ENDBRANCH  21  24
ENDBRANCH  16  18
ENDBRANCH  13  16
ENDBRANCH   1  13
BRANCH   7  27
HETATM   27  C   UNL     1      40.741 -11.834  -1.897  1.00  0.00     0.257 C 
HETATM   28  N   UNL     1      40.123 -10.619  -1.747  1.00  0.00    -0.357 N 
HETATM   29  H   UNL     1      39.608 -10.444  -0.883  1.00  0.00     0.162 HD
HETATM   30  O   UNL     1      41.424 -12.124  -2.877  1.00  0.00    -0.267 OA
BRANCH  28  31
HETATM   31  C   UNL     1      40.265  -9.543  -2.705  1.00  0.00     0.125 C 
BRANCH  31  32
HETATM   32  C   UNL     1      40.585  -8.196  -2.066  1.00  0.00     0.046 C 
BRANCH  32  33
HETATM   33  C   UNL     1      41.278  -8.334  -0.716  1.00  0.00     0.168 C 
BRANCH  33  34
HETATM   34  O   UNL     1      42.633  -8.725  -0.949  1.00  0.00    -0.396 OA
HETATM   35  C   UNL     1      43.364  -7.711  -1.626  1.00  0.00     0.201 C 
ENDBRANCH  33  34
ENDBRANCH  32  33
ENDBRANCH  31  32
ENDBRANCH  28  31
ENDBRANCH   7  27
TORSDOF 9
ENDMDL
MODEL 4
REMARK VINA RESULT:      -8.2      5.308      9.348
REMARK  9 active torsions:
REMARK  status: ('A' for Active; 'I' for Inactive)
REMARK    1  A    between atoms: C_2  and  C_3 
REMARK    2  A    between atoms: C_6  and  N_7 
REMARK    3  A    between atoms: N_7  and  S_8 
REMARK    4  A    between atoms: S_8  and  C_9 
REMARK    5  A    between atoms: C_15  and  C_16 
REMARK       I    between atoms: C_16  and  N_17 
REMARK    6  A    between atoms: N_17  and  C_18 
REMARK    7  A    between atoms: C_18  and  C_19 
REMARK    8  A    between atoms: C_19  and  C_20 
REMARK    9  A    between atoms: C_20  and  O_21 
ROOT
HETATM    1  C   UNL     1      43.377 -11.449   5.563  1.00  0.00     0.081 A 
HETATM    2  C   UNL     1      42.767 -10.638   6.524  1.00  0.00     0.043 A 
HETATM    3  C   UNL     1      43.502 -10.250   7.647  1.00  0.00     0.043 A 
HETATM    4  C   UNL     1      44.842 -10.645   7.809  1.00  0.00     0.046 A 
HETATM    5  N   UNL     1      45.539 -10.276   8.964  1.00  0.00    -0.364 N 
HETATM    6  C   UNL     1      44.955  -9.478   9.915  1.00  0.00     0.109 A 
HETATM    7  C   UNL     1      43.691  -9.023   9.880  1.00  0.00     0.098 A 
HETATM    8  C   UNL     1      42.867  -9.409   8.699  1.00  0.00     0.201 A 
HETATM    9  O   UNL     1      41.696  -9.057   8.584  1.00  0.00    -0.286 OA
HETATM   10  C   UNL     1      45.435 -11.454   6.834  1.00  0.00     0.032 A 
HETATM   11  C   UNL     1      44.710 -11.850   5.706  1.00  0.00     0.027 A 
HETATM   12  H   UNL     1      46.536 -10.451   9.025  1.00  0.00     0.165 HD
ENDROOT
BRANCH   1  13
HETATM   13  S   UNL     1      42.450 -11.928   4.121  1.00  0.00     0.263 S 
HETATM   14  O   UNL     1      43.390 -12.215   3.060  1.00  0.00    -0.200 OA
HETATM   15  O   UNL     1      41.400 -10.946   3.948  1.00  0.00    -0.200 OA
BRANCH  13  16
HETATM   16  N   UNL     1      41.695 -13.351   4.622  1.00  0.00    -0.281 N 
HETATM   17  H   UNL     1      41.284 -13.271   5.551  1.00  0.00     0.179 HD
BRANCH  16  18
HETATM   18  C   UNL     1      42.254 -14.603   4.248  1.00  0.00     0.042 A 
HETATM   19  C   UNL     1      41.873 -15.203   3.051  1.00  0.00     0.030 A 
HETATM   20  C   UNL     1      42.412 -16.442   2.691  1.00  0.00     0.010 A 
HETATM   21  C   UNL     1      43.346 -17.087   3.517  1.00  0.00    -0.055 A 
HETATM   22  C   UNL     1      43.704 -16.475   4.728  1.00  0.00     0.010 A 
HETATM   23  C   UNL     1      43.157 -15.242   5.093  1.00  0.00     0.030 A 
BRANCH  21  24
HETATM   24  C   UNL     1      43.962 -18.425   3.147  1.00  0.00     0.010 C 
HETATM   25  C   UNL     1      43.077 -19.238   2.198  1.00  0.00     0.015 C 
HETATM   26  C   UNL     1      44.303 -19.233   4.400  1.00  0.00     0.015 C 
ENDBRANCH  21  24
ENDBRANCH  16  18
ENDBRANCH  13  16
ENDBRANCH   1  13
BRANCH   7  27
HETATM   27  C   UNL     1      43.206  -8.183  11.013  1.00  0.00     0.257 C 
HETATM   28  N   UNL     1      43.322  -8.750  12.257  1.00  0.00    -0.357 N 
HETATM   29  H   UNL     1      43.757  -9.672  12.327  1.00  0.00     0.162 HD
HETATM   30  O   UNL     1      42.743  -7.060  10.829  1.00  0.00    -0.267 OA
BRANCH  28  31
HETATM   31  C   UNL     1      42.962  -8.055  13.473  1.00  0.00     0.125 C 
BRANCH  31  32
HETATM   32  C   UNL     1      42.038  -8.856  14.384  1.00  0.00     0.046 C 
BRANCH  32  33
HETATM   33  C   UNL     1      40.650  -9.054  13.787  1.00  0.00     0.168 C 
BRANCH  33  34
HETATM   34  O   UNL     1      40.703 -10.172  12.899  1.00  0.00    -0.396 OA
HETATM   35  C   UNL     1      40.017  -9.910  11.682  1.00  0.00     0.201 C 
ENDBRANCH  33  34
ENDBRANCH  32  33
ENDBRANCH  31  32
ENDBRANCH  28  31
ENDBRANCH   7  27
TORSDOF 9
ENDMDL
MODEL 5
REMARK VINA RESULT:      -8.1      3.982      8.233
REMARK  9 active torsions:
REMARK  status: ('A' for Active; 'I' for Inactive)
REMARK    1  A    between atoms: C_2  and  C_3 
REMARK    2  A    between atoms: C_6  and  N_7 
REMARK    3  A    between atoms: N_7  and  S_8 
REMARK    4  A    between atoms: S_8  and  C_9 
REMARK    5  A    between atoms: C_15  and  C_16 
REMARK       I    between atoms: C_16  and  N_17 
REMARK    6  A    between atoms: N_17  and  C_18 
REMARK    7  A    between atoms: C_18  and  C_19 
REMARK    8  A    between atoms: C_19  and  C_20 
REMARK    9  A    between atoms: C_20  and  O_21 
ROOT
HETATM    1  C   UNL     1      41.521 -12.079   3.559  1.00  0.00     0.081 A 
HETATM    2  C   UNL     1      41.540 -11.599   4.871  1.00  0.00     0.043 A 
HETATM    3  C   UNL     1      42.772 -11.368   5.489  1.00  0.00     0.043 A 
HETATM    4  C   UNL     1      43.980 -11.590   4.803  1.00  0.00     0.046 A 
HETATM    5  N   UNL     1      45.198 -11.388   5.461  1.00  0.00    -0.364 N 
HETATM    6  C   UNL     1      45.233 -10.915   6.748  1.00  0.00     0.109 A 
HETATM    7  C   UNL     1      44.159 -10.652   7.512  1.00  0.00     0.098 A 
HETATM    8  C   UNL     1      42.821 -10.882   6.895  1.00  0.00     0.201 A 
HETATM    9  O   UNL     1      41.780 -10.686   7.517  1.00  0.00    -0.286 OA
HETATM   10  C   UNL     1      43.938 -12.068   3.489  1.00  0.00     0.032 A 
HETATM   11  C   UNL     1      42.712 -12.304   2.861  1.00  0.00     0.027 A 
HETATM   12  H   UNL     1      46.063 -11.427   4.935  1.00  0.00     0.165 HD
ENDROOT
BRANCH   1  13
HETATM   13  S   UNL     1      39.952 -12.356   2.763  1.00  0.00     0.263 S 
HETATM   14  O   UNL     1      40.165 -12.323   1.333  1.00  0.00    -0.200 OA
HETATM   15  O   UNL     1      38.994 -11.476   3.399  1.00  0.00    -0.200 OA
BRANCH  13  16
HETATM   16  N   UNL     1      39.560 -13.922   3.251  1.00  0.00    -0.281 N 
HETATM   17  H   UNL     1      38.888 -13.937   4.017  1.00  0.00     0.179 HD
BRANCH  16  18
HETATM   18  C   UNL     1      40.563 -14.929   3.227  1.00  0.00     0.042 A 
HETATM   19  C   UNL     1      41.148 -15.353   4.417  1.00  0.00     0.030 A 
HETATM   20  C   UNL     1      42.145 -16.334   4.392  1.00  0.00     0.010 A 
HETATM   21  C   UNL     1      42.557 -16.909   3.179  1.00  0.00    -0.055 A 
HETATM   22  C   UNL     1      41.968 -16.455   1.989  1.00  0.00     0.010 A 
HETATM   23  C   UNL     1      40.980 -15.468   2.012  1.00  0.00     0.030 A 
BRANCH  21  24
HETATM   24  C   UNL     1      43.625 -17.987   3.119  1.00  0.00     0.010 C 
HETATM   25  C   UNL     1      43.200 -19.190   2.271  1.00  0.00     0.015 C 
HETATM   26  C   UNL     1      44.033 -18.429   4.525  1.00  0.00     0.015 C 
ENDBRANCH  21  24
ENDBRANCH  16  18
ENDBRANCH  13  16
ENDBRANCH   1  13
BRANCH   7  27
HETATM   27  C   UNL     1      44.378 -10.163   8.904  1.00  0.00     0.257 C 
HETATM   28  N   UNL     1      43.592 -10.750   9.862  1.00  0.00    -0.357 N 
HETATM   29  H   UNL     1      42.951 -11.492   9.573  1.00  0.00     0.162 HD
HETATM   30  O   UNL     1      45.212  -9.299   9.157  1.00  0.00    -0.267 OA
BRANCH  28  31
HETATM   31  C   UNL     1      43.714 -10.445  11.272  1.00  0.00     0.125 C 
BRANCH  31  32
HETATM   32  C   UNL     1      42.898  -9.234  11.707  1.00  0.00     0.046 C 
BRANCH  32  33
HETATM   33  C   UNL     1      41.407  -9.533  11.810  1.00  0.00     0.168 C 
BRANCH  33  34
HETATM   34  O   UNL     1      40.861  -9.535  10.490  1.00  0.00    -0.396 OA
HETATM   35  C   UNL     1      39.450  -9.706  10.503  1.00  0.00     0.201 C 
ENDBRANCH  33  34
ENDBRANCH  32  33
ENDBRANCH  31  32
ENDBRANCH  28  31
ENDBRANCH   7  27
TORSDOF 9
ENDMDL
MODEL 6
REMARK VINA RESULT:      -7.8      2.766      6.458
REMARK  9 active torsions:
REMARK  status: ('A' for Active; 'I' for Inactive)
REMARK    1  A    between atoms: C_2  and  C_3 
REMARK    2  A    between atoms: C_6  and  N_7 
REMARK    3  A    between atoms: N_7  and  S_8 
REMARK    4  A    between atoms: S_8  and  C_9 
REMARK    5  A    between atoms: C_15  and  C_16 
REMARK       I    between atoms: C_16  and  N_17 
REMARK    6  A    between atoms: N_17  and  C_18 
REMARK    7  A    between atoms: C_18  and  C_19 
REMARK    8  A    between atoms: C_19  and  C_20 
REMARK    9  A    between atoms: C_20  and  O_21 
ROOT
HETATM    1  C   UNL     1      39.702 -13.028   1.855  1.00  0.00     0.081 A 
HETATM    2  C   UNL     1      40.087 -12.848   3.186  1.00  0.00     0.043 A 
HETATM    3  C   UNL     1      39.562 -11.771   3.904  1.00  0.00     0.043 A 
HETATM    4  C   UNL     1      38.640 -10.888   3.314  1.00  0.00     0.046 A 
HETATM    5  N   UNL     1      38.162  -9.795   4.044  1.00  0.00    -0.364 N 
HETATM    6  C   UNL     1      38.529  -9.606   5.352  1.00  0.00     0.109 A 
HETATM    7  C   UNL     1      39.390 -10.378   6.039  1.00  0.00     0.098 A 
HETATM    8  C   UNL     1      39.977 -11.541   5.315  1.00  0.00     0.201 A 
HETATM    9  O   UNL     1      40.786 -12.296   5.851  1.00  0.00    -0.286 OA
HETATM   10  C   UNL     1      38.264 -11.087   1.982  1.00  0.00     0.032 A 
HETATM   11  C   UNL     1      38.785 -12.161   1.252  1.00  0.00     0.027 A 
HETATM   12  H   UNL     1      37.407  -9.232   3.667  1.00  0.00     0.165 HD
ENDROOT
BRANCH   1  13
HETATM   13  S   UNL     1      40.355 -14.411   0.944  1.00  0.00     0.263 S 
HETATM   14  O   UNL     1      40.163 -14.149  -0.465  1.00  0.00    -0.200 OA
HETATM   15  O   UNL     1      39.831 -15.611   1.563  1.00  0.00    -0.200 OA
BRANCH  13  16
HETATM   16  N   UNL     1      41.999 -14.359   1.320  1.00  0.00    -0.281 N 
HETATM   17  H   UNL     1      42.572 -14.059   0.533  1.00  0.00     0.179 HD
BRANCH  16  18
HETATM   18  C   UNL     1      42.541 -15.331   2.204  1.00  0.00     0.042 A 
HETATM   19  C   UNL     1      42.922 -16.578   1.715  1.00  0.00     0.030 A 
HETATM   20  C   UNL     1      43.441 -17.540   2.587  1.00  0.00     0.010 A 
HETATM   21  C   UNL     1      43.597 -17.260   3.954  1.00  0.00    -0.055 A 
HETATM   22  C   UNL     1      43.190 -16.005   4.431  1.00  0.00     0.010 A 
HETATM   23  C   UNL     1      42.661 -15.048   3.562  1.00  0.00     0.030 A 
BRANCH  21  24
HETATM   24  C   UNL     1      44.173 -18.277   4.924  1.00  0.00     0.010 C 
HETATM   25  C   UNL     1      44.161 -19.701   4.360  1.00  0.00     0.015 C 
HETATM   26  C   UNL     1      43.447 -18.219   6.269  1.00  0.00     0.015 C 
ENDBRANCH  21  24
ENDBRANCH  16  18
ENDBRANCH  13  16
ENDBRANCH   1  13
BRANCH   7  27
HETATM   27  C   UNL     1      39.699 -10.016   7.452  1.00  0.00     0.257 C 
HETATM   28  N   UNL     1      41.019  -9.754   7.716  1.00  0.00    -0.357 N 
HETATM   29  H   UNL     1      41.682  -9.785   6.939  1.00  0.00     0.162 HD
HETATM   30  O   UNL     1      38.819  -9.956   8.307  1.00  0.00    -0.267 OA
BRANCH  28  31
HETATM   31  C   UNL     1      41.489  -9.325   9.016  1.00  0.00     0.125 C 
BRANCH  31  32
HETATM   32  C   UNL     1      42.959  -9.641   9.269  1.00  0.00     0.046 C 
BRANCH  32  33
HETATM   33  C   UNL     1      43.754  -9.813   7.980  1.00  0.00     0.168 C 
BRANCH  33  34
HETATM   34  O   UNL     1      43.724 -11.196   7.621  1.00  0.00    -0.396 OA
HETATM   35  C   UNL     1      44.991 -11.649   7.163  1.00  0.00     0.201 C 
ENDBRANCH  33  34
ENDBRANCH  32  33
ENDBRANCH  31  32
ENDBRANCH  28  31
ENDBRANCH   7  27
TORSDOF 9
ENDMDL
MODEL 7
REMARK VINA RESULT:      -7.6      3.007      4.432
REMARK  9 active torsions:
REMARK  status: ('A' for Active; 'I' for Inactive)
REMARK    1  A    between atoms: C_2  and  C_3 
REMARK    2  A    between atoms: C_6  and  N_7 
REMARK    3  A    between atoms: N_7  and  S_8 
REMARK    4  A    between atoms: S_8  and  C_9 
REMARK    5  A    between atoms: C_15  and  C_16 
REMARK       I    between atoms: C_16  and  N_17 
REMARK    6  A    between atoms: N_17  and  C_18 
REMARK    7  A    between atoms: C_18  and  C_19 
REMARK    8  A    between atoms: C_19  and  C_20 
REMARK    9  A    between atoms: C_20  and  O_21 
ROOT
HETATM    1  C   UNL     1      40.743 -13.631   1.676  1.00  0.00     0.081 A 
HETATM    2  C   UNL     1      40.876 -12.397   1.033  1.00  0.00     0.043 A 
HETATM    3  C   UNL     1      40.506 -12.291  -0.310  1.00  0.00     0.043 A 
HETATM    4  C   UNL     1      39.985 -13.395  -1.009  1.00  0.00     0.046 A 
HETATM    5  N   UNL     1      39.662 -13.269  -2.364  1.00  0.00    -0.364 N 
HETATM    6  C   UNL     1      39.784 -12.064  -3.008  1.00  0.00     0.109 A 
HETATM    7  C   UNL     1      40.256 -10.931  -2.459  1.00  0.00     0.098 A 
HETATM    8  C   UNL     1      40.663 -10.995  -1.027  1.00  0.00     0.201 A 
HETATM    9  O   UNL     1      41.121 -10.017  -0.440  1.00  0.00    -0.286 OA
HETATM   10  C   UNL     1      39.857 -14.620  -0.346  1.00  0.00     0.032 A 
HETATM   11  C   UNL     1      40.225 -14.739   0.998  1.00  0.00     0.027 A 
HETATM   12  H   UNL     1      39.173 -14.022  -2.834  1.00  0.00     0.165 HD
ENDROOT
BRANCH   1  13
HETATM   13  S   UNL     1      41.195 -13.764   3.392  1.00  0.00     0.263 S 
HETATM   14  O   UNL     1      40.417 -14.833   3.978  1.00  0.00    -0.200 OA
HETATM   15  O   UNL     1      41.165 -12.425   3.943  1.00  0.00    -0.200 OA
BRANCH  13  16
HETATM   16  N   UNL     1      42.819 -14.212   3.314  1.00  0.00    -0.281 N 
HETATM   17  H   UNL     1      43.359 -13.621   2.682  1.00  0.00     0.179 HD
BRANCH  16  18
HETATM   18  C   UNL     1      43.166 -15.587   3.395  1.00  0.00     0.042 A 
HETATM   19  C   UNL     1      43.583 -16.127   4.610  1.00  0.00     0.030 A 
HETATM   20  C   UNL     1      43.939 -17.477   4.687  1.00  0.00     0.010 A 
HETATM   21  C   UNL     1      43.869 -18.304   3.554  1.00  0.00    -0.055 A 
HETATM   22  C   UNL     1      43.464 -17.738   2.336  1.00  0.00     0.010 A 
HETATM   23  C   UNL     1      43.119 -16.387   2.256  1.00  0.00     0.030 A 
BRANCH  21  24
HETATM   24  C   UNL     1      44.232 -19.778   3.608  1.00  0.00     0.010 C 
HETATM   25  C   UNL     1      43.543 -20.594   2.510  1.00  0.00     0.015 C 
HETATM   26  C   UNL     1      43.935 -20.363   4.990  1.00  0.00     0.015 C 
ENDBRANCH  21  24
ENDBRANCH  16  18
ENDBRANCH  13  16
ENDBRANCH   1  13
BRANCH   7  27
HETATM   27  C   UNL     1      40.346  -9.711  -3.312  1.00  0.00     0.257 C 
HETATM   28  N   UNL     1      41.521  -9.010  -3.213  1.00  0.00    -0.357 N 
HETATM   29  H   UNL     1      42.254  -9.381  -2.606  1.00  0.00     0.162 HD
HETATM   30  O   UNL     1      39.424  -9.374  -4.051  1.00  0.00    -0.267 OA
BRANCH  28  31
HETATM   31  C   UNL     1      41.806  -7.839  -4.014  1.00  0.00     0.125 C 
BRANCH  31  32
HETATM   32  C   UNL     1      42.202  -6.618  -3.191  1.00  0.00     0.046 C 
BRANCH  32  33
HETATM   33  C   UNL     1      41.016  -5.971  -2.487  1.00  0.00     0.168 C 
BRANCH  33  34
HETATM   34  O   UNL     1      40.679  -6.773  -1.353  1.00  0.00    -0.396 OA
HETATM   35  C   UNL     1      41.470  -6.441  -0.220  1.00  0.00     0.201 C 
ENDBRANCH  33  34
ENDBRANCH  32  33
ENDBRANCH  31  32
ENDBRANCH  28  31
ENDBRANCH   7  27
TORSDOF 9
ENDMDL
MODEL 8
REMARK VINA RESULT:      -7.4      7.476     11.093
REMARK  9 active torsions:
REMARK  status: ('A' for Active; 'I' for Inactive)
REMARK    1  A    between atoms: C_2  and  C_3 
REMARK    2  A    between atoms: C_6  and  N_7 
REMARK    3  A    between atoms: N_7  and  S_8 
REMARK    4  A    between atoms: S_8  and  C_9 
REMARK    5  A    between atoms: C_15  and  C_16 
REMARK       I    between atoms: C_16  and  N_17 
REMARK    6  A    between atoms: N_17  and  C_18 
REMARK    7  A    between atoms: C_18  and  C_19 
REMARK    8  A    between atoms: C_19  and  C_20 
REMARK    9  A    between atoms: C_20  and  O_21 
ROOT
HETATM    1  C   UNL     1      43.558  -8.969   9.673  1.00  0.00     0.081 A 
HETATM    2  C   UNL     1      42.958  -9.540   8.548  1.00  0.00     0.043 A 
HETATM    3  C   UNL     1      43.764 -10.174   7.599  1.00  0.00     0.043 A 
HETATM    4  C   UNL     1      45.157 -10.263   7.775  1.00  0.00     0.046 A 
HETATM    5  N   UNL     1      45.943 -10.869   6.789  1.00  0.00    -0.364 N 
HETATM    6  C   UNL     1      45.369 -11.435   5.680  1.00  0.00     0.109 A 
HETATM    7  C   UNL     1      44.055 -11.431   5.394  1.00  0.00     0.098 A 
HETATM    8  C   UNL     1      43.154 -10.766   6.377  1.00  0.00     0.201 A 
HETATM    9  O   UNL     1      41.940 -10.695   6.198  1.00  0.00    -0.286 OA
HETATM   10  C   UNL     1      45.737  -9.689   8.910  1.00  0.00     0.032 A 
HETATM   11  C   UNL     1      44.941  -9.050   9.866  1.00  0.00     0.027 A 
HETATM   12  H   UNL     1      46.925 -11.045   6.970  1.00  0.00     0.165 HD
ENDROOT
BRANCH   1  13
HETATM   13  S   UNL     1      42.531  -8.177  10.893  1.00  0.00     0.263 S 
HETATM   14  O   UNL     1      41.198  -8.727  10.778  1.00  0.00    -0.200 OA
HETATM   15  O   UNL     1      42.767  -6.753  10.784  1.00  0.00    -0.200 OA
BRANCH  13  16
HETATM   16  N   UNL     1      43.233  -8.668  12.345  1.00  0.00    -0.281 N 
HETATM   17  H   UNL     1      43.606  -9.616  12.300  1.00  0.00     0.179 HD
BRANCH  16  18
HETATM   18  C   UNL     1      42.664  -8.237  13.574  1.00  0.00     0.042 A 
HETATM   19  C   UNL     1      41.572  -8.917  14.108  1.00  0.00     0.030 A 
HETATM   20  C   UNL     1      41.002  -8.483  15.309  1.00  0.00     0.010 A 
HETATM   21  C   UNL     1      41.525  -7.375  15.994  1.00  0.00    -0.055 A 
HETATM   22  C   UNL     1      42.614  -6.693  15.431  1.00  0.00     0.010 A 
HETATM   23  C   UNL     1      43.176  -7.119  14.225  1.00  0.00     0.030 A 
BRANCH  21  24
HETATM   24  C   UNL     1      40.940  -6.889  17.309  1.00  0.00     0.010 C 
HETATM   25  C   UNL     1      41.806  -5.818  17.979  1.00  0.00     0.015 C 
HETATM   26  C   UNL     1      40.689  -8.060  18.260  1.00  0.00     0.015 C 
ENDBRANCH  21  24
ENDBRANCH  16  18
ENDBRANCH  13  16
ENDBRANCH   1  13
BRANCH   7  27
HETATM   27  C   UNL     1      43.600 -12.074   4.127  1.00  0.00     0.257 C 
HETATM   28  N   UNL     1      42.862 -13.220   4.283  1.00  0.00    -0.357 N 
HETATM   29  H   UNL     1      42.645 -13.528   5.233  1.00  0.00     0.162 HD
HETATM   30  O   UNL     1      43.873 -11.596   3.029  1.00  0.00    -0.267 OA
BRANCH  28  31
HETATM   31  C   UNL     1      42.285 -13.939   3.168  1.00  0.00     0.125 C 
BRANCH  31  32
HETATM   32  C   UNL     1      43.242 -14.938   2.526  1.00  0.00     0.046 C 
BRANCH  32  33
HETATM   33  C   UNL     1      43.175 -16.317   3.172  1.00  0.00     0.168 C 
BRANCH  33  34
HETATM   34  O   UNL     1      43.208 -16.146   4.591  1.00  0.00    -0.396 OA
HETATM   35  C   UNL     1      44.172 -16.992   5.201  1.00  0.00     0.201 C 
ENDBRANCH  33  34
ENDBRANCH  32  33
ENDBRANCH  31  32
ENDBRANCH  28  31
ENDBRANCH   7  27
TORSDOF 9
ENDMDL
MODEL 9
REMARK VINA RESULT:      -7.4      4.343      8.429
REMARK  9 active torsions:
REMARK  status: ('A' for Active; 'I' for Inactive)
REMARK    1  A    between atoms: C_2  and  C_3 
REMARK    2  A    between atoms: C_6  and  N_7 
REMARK    3  A    between atoms: N_7  and  S_8 
REMARK    4  A    between atoms: S_8  and  C_9 
REMARK    5  A    between atoms: C_15  and  C_16 
REMARK       I    between atoms: C_16  and  N_17 
REMARK    6  A    between atoms: N_17  and  C_18 
REMARK    7  A    between atoms: C_18  and  C_19 
REMARK    8  A    between atoms: C_19  and  C_20 
REMARK    9  A    between atoms: C_20  and  O_21 
ROOT
HETATM    1  C   UNL     1      40.951 -12.454   2.929  1.00  0.00     0.081 A 
HETATM    2  C   UNL     1      40.498 -11.837   4.098  1.00  0.00     0.043 A 
HETATM    3  C   UNL     1      41.433 -11.332   5.005  1.00  0.00     0.043 A 
HETATM    4  C   UNL     1      42.813 -11.418   4.745  1.00  0.00     0.046 A 
HETATM    5  N   UNL     1      43.727 -10.940   5.690  1.00  0.00    -0.364 N 
HETATM    6  C   UNL     1      43.297 -10.330   6.841  1.00  0.00     0.109 A 
HETATM    7  C   UNL     1      42.013 -10.172   7.206  1.00  0.00     0.098 A 
HETATM    8  C   UNL     1      40.977 -10.694   6.270  1.00  0.00     0.201 A 
HETATM    9  O   UNL     1      39.777 -10.613   6.522  1.00  0.00    -0.286 OA
HETATM   10  C   UNL     1      43.246 -12.037   3.568  1.00  0.00     0.032 A 
HETATM   11  C   UNL     1      42.319 -12.547   2.654  1.00  0.00     0.027 A 
HETATM   12  H   UNL     1      44.712 -10.888   5.452  1.00  0.00     0.165 HD
ENDROOT
BRANCH   1  13
HETATM   13  S   UNL     1      39.760 -13.080   1.764  1.00  0.00     0.263 S 
HETATM   14  O   UNL     1      40.421 -13.228   0.486  1.00  0.00    -0.200 OA
HETATM   15  O   UNL     1      38.568 -12.271   1.902  1.00  0.00    -0.200 OA
BRANCH  13  16
HETATM   16  N   UNL     1      39.385 -14.597   2.397  1.00  0.00    -0.281 N 
HETATM   17  H   UNL     1      38.477 -14.616   2.859  1.00  0.00     0.179 HD
BRANCH  16  18
HETATM   18  C   UNL     1      40.423 -15.400   2.943  1.00  0.00     0.042 A 
HETATM   19  C   UNL     1      41.281 -16.095   2.094  1.00  0.00     0.030 A 
HETATM   20  C   UNL     1      42.294 -16.896   2.631  1.00  0.00     0.010 A 
HETATM   21  C   UNL     1      42.467 -17.000   4.020  1.00  0.00    -0.055 A 
HETATM   22  C   UNL     1      41.581 -16.307   4.859  1.00  0.00     0.010 A 
HETATM   23  C   UNL     1      40.563 -15.515   4.323  1.00  0.00     0.030 A 
BRANCH  21  24
HETATM   24  C   UNL     1      43.567 -17.849   4.634  1.00  0.00     0.010 C 
HETATM   25  C   UNL     1      44.505 -17.036   5.532  1.00  0.00     0.015 C 
HETATM   26  C   UNL     1      44.354 -18.588   3.552  1.00  0.00     0.015 C 
ENDBRANCH  21  24
ENDBRANCH  16  18
ENDBRANCH  13  16
ENDBRANCH   1  13
BRANCH   7  27
HETATM   27  C   UNL     1      41.721  -9.504   8.507  1.00  0.00     0.257 C 
HETATM   28  N   UNL     1      42.353 -10.043   9.599  1.00  0.00    -0.357 N 
HETATM   29  H   UNL     1      42.996 -10.823   9.448  1.00  0.00     0.162 HD
HETATM   30  O   UNL     1      40.968  -8.536   8.577  1.00  0.00    -0.267 OA
BRANCH  28  31
HETATM   31  C   UNL     1      42.236  -9.483  10.928  1.00  0.00     0.125 C 
BRANCH  31  32
HETATM   32  C   UNL     1      43.315  -8.458  11.256  1.00  0.00     0.046 C 
BRANCH  32  33
HETATM   33  C   UNL     1      42.848  -7.411  12.260  1.00  0.00     0.168 C 
BRANCH  33  34
HETATM   34  O   UNL     1      43.467  -7.692  13.517  1.00  0.00    -0.396 OA
HETATM   35  C   UNL     1      42.649  -7.294  14.608  1.00  0.00     0.201 C 
ENDBRANCH  33  34
ENDBRANCH  32  33
ENDBRANCH  31  32
ENDBRANCH  28  31
ENDBRANCH   7  27
TORSDOF 9
ENDMDL
MODEL 10
REMARK VINA RESULT:      -7.4      4.884      9.025
REMARK  9 active torsions:
REMARK  status: ('A' for Active; 'I' for Inactive)
REMARK    1  A    between atoms: C_2  and  C_3 
REMARK    2  A    between atoms: C_6  and  N_7 
REMARK    3  A    between atoms: N_7  and  S_8 
REMARK    4  A    between atoms: S_8  and  C_9 
REMARK    5  A    between atoms: C_15  and  C_16 
REMARK       I    between atoms: C_16  and  N_17 
REMARK    6  A    between atoms: N_17  and  C_18 
REMARK    7  A    between atoms: C_18  and  C_19 
REMARK    8  A    between atoms: C_19  and  C_20 
REMARK    9  A    between atoms: C_20  and  O_21 
ROOT
HETATM    1  C   UNL     1      43.724 -10.812   6.982  1.00  0.00     0.081 A 
HETATM    2  C   UNL     1      43.796 -12.138   6.546  1.00  0.00     0.043 A 
HETATM    3  C   UNL     1      42.882 -12.586   5.589  1.00  0.00     0.043 A 
HETATM    4  C   UNL     1      41.915 -11.719   5.048  1.00  0.00     0.046 A 
HETATM    5  N   UNL     1      40.988 -12.206   4.121  1.00  0.00    -0.364 N 
HETATM    6  C   UNL     1      41.047 -13.504   3.681  1.00  0.00     0.109 A 
HETATM    7  C   UNL     1      41.923 -14.432   4.105  1.00  0.00     0.098 A 
HETATM    8  C   UNL     1      42.919 -14.000   5.127  1.00  0.00     0.201 A 
HETATM    9  O   UNL     1      43.751 -14.779   5.589  1.00  0.00    -0.286 OA
HETATM   10  C   UNL     1      41.863 -10.395   5.495  1.00  0.00     0.032 A 
HETATM   11  C   UNL     1      42.771  -9.935   6.455  1.00  0.00     0.027 A 
HETATM   12  H   UNL     1      40.374 -11.559   3.639  1.00  0.00     0.165 HD
ENDROOT
BRANCH   1  13
HETATM   13  S   UNL     1      44.899 -10.234   8.188  1.00  0.00     0.263 S 
HETATM   14  O   UNL     1      46.141  -9.952   7.502  1.00  0.00    -0.200 OA
HETATM   15  O   UNL     1      44.851 -11.157   9.302  1.00  0.00    -0.200 OA
BRANCH  13  16
HETATM   16  N   UNL     1      44.201  -8.797   8.728  1.00  0.00    -0.281 N 
HETATM   17  H   UNL     1      44.803  -7.988   8.582  1.00  0.00     0.179 HD
BRANCH  16  18
HETATM   18  C   UNL     1      43.385  -8.815   9.891  1.00  0.00     0.042 A 
HETATM   19  C   UNL     1      43.961  -8.627  11.145  1.00  0.00     0.030 A 
HETATM   20  C   UNL     1      43.160  -8.660  12.292  1.00  0.00     0.010 A 
HETATM   21  C   UNL     1      41.775  -8.867  12.195  1.00  0.00    -0.055 A 
HETATM   22  C   UNL     1      41.216  -9.072  10.924  1.00  0.00     0.010 A 
HETATM   23  C   UNL     1      42.017  -9.051   9.780  1.00  0.00     0.030 A 
BRANCH  21  24
HETATM   24  C   UNL     1      40.876  -8.892  13.419  1.00  0.00     0.010 C 
HETATM   25  C   UNL     1      41.660  -8.757  14.727  1.00  0.00     0.015 C 
HETATM   26  C   UNL     1      40.007 -10.150  13.431  1.00  0.00     0.015 C 
ENDBRANCH  21  24
ENDBRANCH  16  18
ENDBRANCH  13  16
ENDBRANCH   1  13
BRANCH   7  27
HETATM   27  C   UNL     1      41.832 -15.808   3.538  1.00  0.00     0.257 C 
HETATM   28  N   UNL     1      42.965 -16.261   2.912  1.00  0.00    -0.357 N 
HETATM   29  H   UNL     1      43.789 -15.656   2.909  1.00  0.00     0.162 HD
HETATM   30  O   UNL     1      40.807 -16.478   3.638  1.00  0.00    -0.267 OA
BRANCH  28  31
HETATM   31  C   UNL     1      43.078 -17.594   2.361  1.00  0.00     0.125 C 
BRANCH  31  32
HETATM   32  C   UNL     1      43.597 -18.624   3.358  1.00  0.00     0.046 C 
BRANCH  32  33
HETATM   33  C   UNL     1      44.381 -17.994   4.502  1.00  0.00     0.168 C 
BRANCH  33  34
HETATM   34  O   UNL     1      44.043 -18.684   5.707  1.00  0.00    -0.396 OA
HETATM   35  C   UNL     1      43.172 -17.918   6.527  1.00  0.00     0.201 C 
ENDBRANCH  33  34
ENDBRANCH  32  33
ENDBRANCH  31  32
ENDBRANCH  28  31
ENDBRANCH   7  27
TORSDOF 9
ENDMDL
