MODEL 1
REMARK VINA RESULT:      -8.5      0.000      0.000
REMARK  6 active torsions:
REMARK  status: ('A' for Active; 'I' for Inactive)
REMARK    1  A    between atoms: C_6  and  C_7 
REMARK    2  A    between atoms: C_7  and  N_8 
REMARK       I    between atoms: N_8  and  C_9 
REMARK       I    between atoms: C_9  and  N_10 
REMARK    3  A    between atoms: N_10  and  C_11 
REMARK    4  A    between atoms: C_11  and  C_12 
REMARK       I    between atoms: C_12  and  N_13 
REMARK    5  A    between atoms: N_13  and  N_14 
REMARK       I    between atoms: N_14  and  C_15 
REMARK    6  A    between atoms: C_15  and  C_16 
ROOT
HETATM    1  C   UNL     1      39.954 -13.581  -1.668  1.00  0.00     0.117 C 
HETATM    2  C   UNL     1      39.332 -14.312  -2.870  1.00  0.00     0.041 C 
HETATM    3  C   UNL     1      38.109 -13.477  -3.210  1.00  0.00     0.003 C 
HETATM    4  C   UNL     1      37.546 -13.055  -1.861  1.00  0.00     0.003 C 
HETATM    5  C   UNL     1      38.701 -13.160  -0.863  1.00  0.00     0.041 C 
ENDROOT
BRANCH   1   6
HETATM    6  N   UNL     1      40.783 -14.449  -0.817  1.00  0.00    -0.325 N 
HETATM    7  C   UNL     1      41.189 -14.083   0.436  1.00  0.00     0.317 C 
HETATM    8  N   UNL     1      41.945 -15.060   1.020  1.00  0.00    -0.339 N 
HETATM    9  O   UNL     1      40.890 -13.022   0.967  1.00  0.00    -0.247 OA
HETATM   10  H   UNL     1      42.558 -15.541   0.378  1.00  0.00     0.164 HD
HETATM   11  H   UNL     1      40.610 -15.442  -0.904  1.00  0.00     0.165 HD
BRANCH   8  12
HETATM   12  C   UNL     1      42.463 -14.836   2.353  1.00  0.00     0.162 C 
BRANCH  12  13
HETATM   13  C   UNL     1      43.011 -16.090   2.990  1.00  0.00    -0.039 A 
HETATM   14  C   UNL     1      42.977 -17.332   2.338  1.00  0.00     0.027 A 
HETATM   15  C   UNL     1      43.475 -18.473   2.969  1.00  0.00     0.011 A 
HETATM   16  C   UNL     1      43.989 -18.402   4.262  1.00  0.00     0.019 A 
HETATM   17 BR   UNL     1      43.453 -20.131   2.060  1.00  0.00    -0.051 Br
HETATM   18  C   UNL     1      44.001 -17.179   4.931  1.00  0.00     0.002 A 
HETATM   19  C   UNL     1      43.513 -16.033   4.301  1.00  0.00     0.009 A 
ENDBRANCH  12  13
ENDBRANCH   8  12
ENDBRANCH   1   6
BRANCH   1  20
HETATM   20  C   UNL     1      40.779 -12.325  -2.096  1.00  0.00     0.264 C 
HETATM   21  N   UNL     1      40.454 -11.156  -1.434  1.00  0.00    -0.265 N 
HETATM   22  H   UNL     1      39.565 -11.068  -0.924  1.00  0.00     0.190 HD
HETATM   23  O   UNL     1      41.629 -12.345  -2.988  1.00  0.00    -0.269 OA
BRANCH  21  24
HETATM   24  N   UNL     1      41.055  -9.967  -1.863  1.00  0.00    -0.262 N 
HETATM   25  C   UNL     1      41.899  -9.284  -1.011  1.00  0.00     0.286 C 
HETATM   26  O   UNL     1      42.132  -9.670   0.134  1.00  0.00    -0.264 OA
HETATM   27  H   UNL     1      40.843  -9.662  -2.808  1.00  0.00     0.190 HD
BRANCH  25  28
HETATM   28  C   UNL     1      42.492  -8.080  -1.553  1.00  0.00     0.102 A 
HETATM   29  N   UNL     1      43.182  -7.202  -0.743  1.00  0.00    -0.361 N 
HETATM   30  H   UNL     1      43.310  -7.342   0.252  1.00  0.00     0.165 HD
HETATM   31  C   UNL     1      43.652  -6.147  -1.477  1.00  0.00     0.088 A 
HETATM   32  C   UNL     1      43.266  -6.338  -2.783  1.00  0.00     0.019 A 
HETATM   33  C   UNL     1      42.535  -7.552  -2.833  1.00  0.00     0.036 A 
ENDBRANCH  25  28
ENDBRANCH  21  24
ENDBRANCH   1  20
TORSDOF 6
ENDMDL
MODEL 2
REMARK VINA RESULT:      -8.4      4.372      6.875
REMARK  6 active torsions:
REMARK  status: ('A' for Active; 'I' for Inactive)
REMARK    1  A    between atoms: C_6  and  C_7 
REMARK    2  A    between atoms: C_7  and  N_8 
REMARK       I    between atoms: N_8  and  C_9 
REMARK       I    between atoms: C_9  and  N_10 
REMARK    3  A    between atoms: N_10  and  C_11 
REMARK    4  A    between atoms: C_11  and  C_12 
REMARK       I    between atoms: C_12  and  N_13 
REMARK    5  A    between atoms: N_13  and  N_14 
REMARK       I    between atoms: N_14  and  C_15 
REMARK    6  A    between atoms: C_15  and  C_16 
ROOT
HETATM    1  C   UNL     1      44.511 -11.671   6.700  1.00  0.00     0.117 C 
HETATM    2  C   UNL     1      43.516 -11.065   7.703  1.00  0.00     0.041 C 
HETATM    3  C   UNL     1      44.042  -9.657   7.931  1.00  0.00     0.003 C 
HETATM    4  C   UNL     1      45.554  -9.812   7.951  1.00  0.00     0.003 C 
HETATM    5  C   UNL     1      45.862 -11.114   7.209  1.00  0.00     0.041 C 
ENDROOT
BRANCH   1   6
HETATM    6  N   UNL     1      44.568 -13.141   6.744  1.00  0.00    -0.325 N 
HETATM    7  C   UNL     1      43.475 -13.928   6.512  1.00  0.00     0.317 C 
HETATM    8  N   UNL     1      43.787 -15.255   6.610  1.00  0.00    -0.339 N 
HETATM    9  O   UNL     1      42.367 -13.492   6.231  1.00  0.00    -0.247 OA
HETATM   10  H   UNL     1      44.453 -15.465   7.339  1.00  0.00     0.164 HD
HETATM   11  H   UNL     1      45.432 -13.555   6.421  1.00  0.00     0.165 HD
BRANCH   8  12
HETATM   12  C   UNL     1      42.742 -16.234   6.396  1.00  0.00     0.162 C 
BRANCH  12  13
HETATM   13  C   UNL     1      42.607 -16.645   4.950  1.00  0.00    -0.039 A 
HETATM   14  C   UNL     1      41.595 -16.133   4.123  1.00  0.00     0.027 A 
HETATM   15  C   UNL     1      41.489 -16.553   2.796  1.00  0.00     0.011 A 
HETATM   16  C   UNL     1      42.369 -17.502   2.280  1.00  0.00     0.019 A 
HETATM   17 BR   UNL     1      40.142 -15.826   1.688  1.00  0.00    -0.051 Br
HETATM   18  C   UNL     1      43.359 -18.040   3.101  1.00  0.00     0.002 A 
HETATM   19  C   UNL     1      43.475 -17.616   4.426  1.00  0.00     0.009 A 
ENDBRANCH  12  13
ENDBRANCH   8  12
ENDBRANCH   1   6
BRANCH   1  20
HETATM   20  C   UNL     1      44.240 -11.202   5.234  1.00  0.00     0.264 C 
HETATM   21  N   UNL     1      42.944 -10.797   4.978  1.00  0.00    -0.265 N 
HETATM   22  H   UNL     1      42.176 -11.056   5.612  1.00  0.00     0.190 HD
HETATM   23  O   UNL     1      45.094 -11.226   4.346  1.00  0.00    -0.269 OA
BRANCH  21  24
HETATM   24  N   UNL     1      42.596 -10.496   3.656  1.00  0.00    -0.262 N 
HETATM   25  C   UNL     1      41.956 -11.447   2.887  1.00  0.00     0.286 C 
HETATM   26  O   UNL     1      41.693 -12.571   3.312  1.00  0.00    -0.264 OA
HETATM   27  H   UNL     1      42.829  -9.567   3.322  1.00  0.00     0.190 HD
BRANCH  25  28
HETATM   28  C   UNL     1      41.615 -11.034   1.543  1.00  0.00     0.102 A 
HETATM   29  N   UNL     1      41.833  -9.738   1.120  1.00  0.00    -0.361 N 
HETATM   30  H   UNL     1      42.233  -9.018   1.710  1.00  0.00     0.165 HD
HETATM   31  C   UNL     1      41.439  -9.589  -0.181  1.00  0.00     0.088 A 
HETATM   32  C   UNL     1      40.957 -10.801  -0.617  1.00  0.00     0.019 A 
HETATM   33  C   UNL     1      41.065 -11.711   0.465  1.00  0.00     0.036 A 
ENDBRANCH  25  28
ENDBRANCH  21  24
ENDBRANCH   1  20
TORSDOF 6
ENDMDL
MODEL 3
REMARK VINA RESULT:      -8.4      4.365      6.882
REMARK  6 active torsions:
REMARK  status: ('A' for Active; 'I' for Inactive)
REMARK    1  A    between atoms: C_6  and  C_7 
REMARK    2  A    between atoms: C_7  and  N_8 
REMARK       I    between atoms: N_8  and  C_9 
REMARK       I    between atoms: C_9  and  N_10 
REMARK    3  A    between atoms: N_10  and  C_11 
REMARK    4  A    between atoms: C_11  and  C_12 
REMARK       I    between atoms: C_12  and  N_13 
REMARK    5  A    between atoms: N_13  and  N_14 
REMARK       I    between atoms: N_14  and  C_15 
REMARK    6  A    between atoms: C_15  and  C_16 
ROOT
HETATM    1  C   UNL     1      41.833 -15.385   3.135  1.00  0.00     0.117 C 
HETATM    2  C   UNL     1      43.180 -15.218   2.412  1.00  0.00     0.041 C 
HETATM    3  C   UNL     1      43.356 -16.531   1.666  1.00  0.00     0.003 C 
HETATM    4  C   UNL     1      42.829 -17.589   2.623  1.00  0.00     0.003 C 
HETATM    5  C   UNL     1      41.891 -16.862   3.590  1.00  0.00     0.041 C 
ENDROOT
BRANCH   1   6
HETATM    6  N   UNL     1      41.698 -14.535   4.329  1.00  0.00    -0.325 N 
HETATM    7  C   UNL     1      42.076 -13.221   4.344  1.00  0.00     0.317 C 
HETATM    8  N   UNL     1      41.848 -12.652   5.566  1.00  0.00    -0.339 N 
HETATM    9  O   UNL     1      42.536 -12.632   3.376  1.00  0.00    -0.247 OA
HETATM   10  H   UNL     1      42.028 -13.270   6.344  1.00  0.00     0.164 HD
HETATM   11  H   UNL     1      40.894 -14.724   4.912  1.00  0.00     0.165 HD
BRANCH   8  12
HETATM   12  C   UNL     1      42.194 -11.260   5.761  1.00  0.00     0.162 C 
BRANCH  12  13
HETATM   13  C   UNL     1      43.478 -11.075   6.532  1.00  0.00    -0.039 A 
HETATM   14  C   UNL     1      43.499 -10.514   7.818  1.00  0.00     0.027 A 
HETATM   15  C   UNL     1      44.710 -10.339   8.491  1.00  0.00     0.011 A 
HETATM   16  C   UNL     1      45.914 -10.695   7.890  1.00  0.00     0.019 A 
HETATM   17 BR   UNL     1      44.715  -9.615  10.238  1.00  0.00    -0.051 Br
HETATM   18  C   UNL     1      45.908 -11.226   6.601  1.00  0.00     0.002 A 
HETATM   19  C   UNL     1      44.700 -11.412   5.927  1.00  0.00     0.009 A 
ENDBRANCH  12  13
ENDBRANCH   8  12
ENDBRANCH   1   6
BRANCH   1  20
HETATM   20  C   UNL     1      40.614 -15.150   2.185  1.00  0.00     0.264 C 
HETATM   21  N   UNL     1      40.847 -14.284   1.134  1.00  0.00    -0.265 N 
HETATM   22  H   UNL     1      41.651 -13.642   1.148  1.00  0.00     0.190 HD
HETATM   23  O   UNL     1      39.504 -15.655   2.369  1.00  0.00    -0.269 OA
BRANCH  21  24
HETATM   24  N   UNL     1      39.764 -13.921   0.325  1.00  0.00    -0.262 N 
HETATM   25  C   UNL     1      39.927 -12.941  -0.632  1.00  0.00     0.286 C 
HETATM   26  O   UNL     1      40.993 -12.349  -0.794  1.00  0.00    -0.264 OA
HETATM   27  H   UNL     1      38.891 -14.416   0.481  1.00  0.00     0.190 HD
BRANCH  25  28
HETATM   28  C   UNL     1      38.757 -12.654  -1.435  1.00  0.00     0.102 A 
HETATM   29  N   UNL     1      37.938 -13.668  -1.885  1.00  0.00    -0.361 N 
HETATM   30  H   UNL     1      38.102 -14.648  -1.689  1.00  0.00     0.165 HD
HETATM   31  C   UNL     1      36.901 -13.154  -2.614  1.00  0.00     0.088 A 
HETATM   32  C   UNL     1      37.042 -11.786  -2.641  1.00  0.00     0.019 A 
HETATM   33  C   UNL     1      38.209 -11.469  -1.901  1.00  0.00     0.036 A 
ENDBRANCH  25  28
ENDBRANCH  21  24
ENDBRANCH   1  20
TORSDOF 6
ENDMDL
MODEL 4
REMARK VINA RESULT:      -8.1      3.839      6.141
REMARK  6 active torsions:
REMARK  status: ('A' for Active; 'I' for Inactive)
REMARK    1  A    between atoms: C_6  and  C_7 
REMARK    2  A    between atoms: C_7  and  N_8 
REMARK       I    between atoms: N_8  and  C_9 
REMARK       I    between atoms: C_9  and  N_10 
REMARK    3  A    between atoms: N_10  and  C_11 
REMARK    4  A    between atoms: C_11  and  C_12 
REMARK       I    between atoms: C_12  and  N_13 
REMARK    5  A    between atoms: N_13  and  N_14 
REMARK       I    between atoms: N_14  and  C_15 
REMARK    6  A    between atoms: C_15  and  C_16 
ROOT
HETATM    1  C   UNL     1      40.239 -12.121   5.309  1.00  0.00     0.117 C 
HETATM    2  C   UNL     1      38.928 -11.757   6.026  1.00  0.00     0.041 C 
HETATM    3  C   UNL     1      38.890 -10.239   5.964  1.00  0.00     0.003 C 
HETATM    4  C   UNL     1      40.332  -9.810   6.183  1.00  0.00     0.003 C 
HETATM    5  C   UNL     1      41.199 -11.016   5.811  1.00  0.00     0.041 C 
ENDROOT
BRANCH   1   6
HETATM    6  N   UNL     1      40.784 -13.428   5.711  1.00  0.00    -0.325 N 
HETATM    7  C   UNL     1      42.066 -13.809   5.429  1.00  0.00     0.317 C 
HETATM    8  N   UNL     1      42.330 -15.062   5.909  1.00  0.00    -0.339 N 
HETATM    9  O   UNL     1      42.875 -13.104   4.842  1.00  0.00    -0.247 OA
HETATM   10  H   UNL     1      41.551 -15.701   5.831  1.00  0.00     0.164 HD
HETATM   11  H   UNL     1      40.446 -13.791   6.592  1.00  0.00     0.165 HD
BRANCH   8  12
HETATM   12  C   UNL     1      43.645 -15.627   5.695  1.00  0.00     0.162 C 
BRANCH  12  13
HETATM   13  C   UNL     1      43.631 -16.819   4.769  1.00  0.00    -0.039 A 
HETATM   14  C   UNL     1      43.882 -18.121   5.229  1.00  0.00     0.027 A 
HETATM   15  C   UNL     1      43.881 -19.195   4.338  1.00  0.00     0.011 A 
HETATM   16  C   UNL     1      43.656 -18.990   2.979  1.00  0.00     0.019 A 
HETATM   17 BR   UNL     1      44.187 -20.946   4.981  1.00  0.00    -0.051 Br
HETATM   18  C   UNL     1      43.435 -17.697   2.506  1.00  0.00     0.002 A 
HETATM   19  C   UNL     1      43.425 -16.620   3.395  1.00  0.00     0.009 A 
ENDBRANCH  12  13
ENDBRANCH   8  12
ENDBRANCH   1   6
BRANCH   1  20
HETATM   20  C   UNL     1      40.103 -12.066   3.754  1.00  0.00     0.264 C 
HETATM   21  N   UNL     1      39.302 -13.047   3.200  1.00  0.00    -0.265 N 
HETATM   22  H   UNL     1      39.059 -13.893   3.733  1.00  0.00     0.190 HD
HETATM   23  O   UNL     1      40.696 -11.245   3.050  1.00  0.00    -0.269 OA
BRANCH  21  24
HETATM   24  N   UNL     1      39.246 -13.142   1.804  1.00  0.00    -0.262 N 
HETATM   25  C   UNL     1      39.974 -14.121   1.160  1.00  0.00     0.286 C 
HETATM   26  O   UNL     1      40.696 -14.912   1.764  1.00  0.00    -0.264 OA
HETATM   27  H   UNL     1      38.651 -12.475   1.324  1.00  0.00     0.190 HD
BRANCH  25  28
HETATM   28  C   UNL     1      39.832 -14.157  -0.280  1.00  0.00     0.102 A 
HETATM   29  N   UNL     1      39.090 -15.144  -0.897  1.00  0.00    -0.361 N 
HETATM   30  H   UNL     1      38.616 -15.883  -0.394  1.00  0.00     0.165 HD
HETATM   31  C   UNL     1      39.097 -14.966  -2.254  1.00  0.00     0.088 A 
HETATM   32  C   UNL     1      39.851 -13.850  -2.529  1.00  0.00     0.019 A 
HETATM   33  C   UNL     1      40.315 -13.340  -1.290  1.00  0.00     0.036 A 
ENDBRANCH  25  28
ENDBRANCH  21  24
ENDBRANCH   1  20
TORSDOF 6
ENDMDL
MODEL 5
REMARK VINA RESULT:      -8.1      4.194      6.101
REMARK  6 active torsions:
REMARK  status: ('A' for Active; 'I' for Inactive)
REMARK    1  A    between atoms: C_6  and  C_7 
REMARK    2  A    between atoms: C_7  and  N_8 
REMARK       I    between atoms: N_8  and  C_9 
REMARK       I    between atoms: C_9  and  N_10 
REMARK    3  A    between atoms: N_10  and  C_11 
REMARK    4  A    between atoms: C_11  and  C_12 
REMARK       I    between atoms: C_12  and  N_13 
REMARK    5  A    between atoms: N_13  and  N_14 
REMARK       I    between atoms: N_14  and  C_15 
REMARK    6  A    between atoms: C_15  and  C_16 
ROOT
HETATM    1  C   UNL     1      40.214 -12.335   2.493  1.00  0.00     0.117 C 
HETATM    2  C   UNL     1      40.759 -11.316   1.478  1.00  0.00     0.041 C 
HETATM    3  C   UNL     1      39.866 -10.100   1.669  1.00  0.00     0.003 C 
HETATM    4  C   UNL     1      38.478 -10.677   1.899  1.00  0.00     0.003 C 
HETATM    5  C   UNL     1      38.686 -12.114   2.382  1.00  0.00     0.041 C 
ENDROOT
BRANCH   1   6
HETATM    6  N   UNL     1      40.509 -13.732   2.138  1.00  0.00    -0.325 N 
HETATM    7  C   UNL     1      41.784 -14.215   2.047  1.00  0.00     0.317 C 
HETATM    8  N   UNL     1      41.792 -15.539   1.705  1.00  0.00    -0.339 N 
HETATM    9  O   UNL     1      42.785 -13.547   2.267  1.00  0.00    -0.247 OA
HETATM   10  H   UNL     1      41.075 -15.794   1.042  1.00  0.00     0.164 HD
HETATM   11  H   UNL     1      39.847 -14.418   2.474  1.00  0.00     0.165 HD
BRANCH   8  12
HETATM   12  C   UNL     1      43.065 -16.214   1.561  1.00  0.00     0.162 C 
BRANCH  12  13
HETATM   13  C   UNL     1      43.402 -17.093   2.740  1.00  0.00    -0.039 A 
HETATM   14  C   UNL     1      43.570 -16.572   4.033  1.00  0.00     0.027 A 
HETATM   15  C   UNL     1      43.903 -17.415   5.094  1.00  0.00     0.011 A 
HETATM   16  C   UNL     1      44.096 -18.779   4.884  1.00  0.00     0.019 A 
HETATM   17 BR   UNL     1      44.090 -16.701   6.835  1.00  0.00    -0.051 Br
HETATM   18  C   UNL     1      43.962 -19.302   3.600  1.00  0.00     0.002 A 
HETATM   19  C   UNL     1      43.619 -18.465   2.536  1.00  0.00     0.009 A 
ENDBRANCH  12  13
ENDBRANCH   8  12
ENDBRANCH   1   6
BRANCH   1  20
HETATM   20  C   UNL     1      40.706 -12.049   3.948  1.00  0.00     0.264 C 
HETATM   21  N   UNL     1      41.838 -11.261   4.041  1.00  0.00    -0.265 N 
HETATM   22  H   UNL     1      42.452 -11.123   3.227  1.00  0.00     0.190 HD
HETATM   23  O   UNL     1      40.166 -12.520   4.951  1.00  0.00    -0.269 OA
BRANCH  21  24
HETATM   24  N   UNL     1      42.413 -11.080   5.304  1.00  0.00    -0.262 N 
HETATM   25  C   UNL     1      43.785 -11.144   5.442  1.00  0.00     0.286 C 
HETATM   26  O   UNL     1      44.533 -11.377   4.494  1.00  0.00    -0.264 OA
HETATM   27  H   UNL     1      41.778 -10.896   6.073  1.00  0.00     0.190 HD
BRANCH  25  28
HETATM   28  C   UNL     1      44.287 -10.918   6.781  1.00  0.00     0.102 A 
HETATM   29  N   UNL     1      43.443 -10.961   7.872  1.00  0.00    -0.361 N 
HETATM   30  H   UNL     1      42.450 -11.146   7.804  1.00  0.00     0.165 HD
HETATM   31  C   UNL     1      44.143 -10.724   9.024  1.00  0.00     0.088 A 
HETATM   32  C   UNL     1      45.460 -10.523   8.682  1.00  0.00     0.019 A 
HETATM   33  C   UNL     1      45.553 -10.644   7.273  1.00  0.00     0.036 A 
ENDBRANCH  25  28
ENDBRANCH  21  24
ENDBRANCH   1  20
TORSDOF 6
ENDMDL
MODEL 6
REMARK VINA RESULT:      -8.0      9.084     11.522
REMARK  6 active torsions:
REMARK  status: ('A' for Active; 'I' for Inactive)
REMARK    1  A    between atoms: C_6  and  C_7 
REMARK    2  A    between atoms: C_7  and  N_8 
REMARK       I    between atoms: N_8  and  C_9 
REMARK       I    between atoms: C_9  and  N_10 
REMARK    3  A    between atoms: N_10  and  C_11 
REMARK    4  A    between atoms: C_11  and  C_12 
REMARK       I    between atoms: C_12  and  N_13 
REMARK    5  A    between atoms: N_13  and  N_14 
REMARK       I    between atoms: N_14  and  C_15 
REMARK    6  A    between atoms: C_15  and  C_16 
ROOT
HETATM    1  C   UNL     1      44.141 -10.500   9.031  1.00  0.00     0.117 C 
HETATM    2  C   UNL     1      45.661 -10.491   8.795  1.00  0.00     0.041 C 
HETATM    3  C   UNL     1      46.040  -9.025   8.927  1.00  0.00     0.003 C 
HETATM    4  C   UNL     1      44.894  -8.273   8.268  1.00  0.00     0.003 C 
HETATM    5  C   UNL     1      43.692  -9.219   8.288  1.00  0.00     0.041 C 
ENDROOT
BRANCH   1   6
HETATM    6  N   UNL     1      43.459 -11.654   8.422  1.00  0.00    -0.325 N 
HETATM    7  C   UNL     1      43.579 -11.964   7.096  1.00  0.00     0.317 C 
HETATM    8  N   UNL     1      42.853 -13.078   6.778  1.00  0.00    -0.339 N 
HETATM    9  O   UNL     1      44.268 -11.333   6.307  1.00  0.00    -0.247 OA
HETATM   10  H   UNL     1      41.972 -13.144   7.266  1.00  0.00     0.164 HD
HETATM   11  H   UNL     1      43.364 -12.468   9.014  1.00  0.00     0.165 HD
BRANCH   8  12
HETATM   12  C   UNL     1      42.863 -13.549   5.409  1.00  0.00     0.162 C 
BRANCH  12  13
HETATM   13  C   UNL     1      43.270 -14.997   5.287  1.00  0.00    -0.039 A 
HETATM   14  C   UNL     1      43.022 -15.743   4.125  1.00  0.00     0.027 A 
HETATM   15  C   UNL     1      43.395 -17.087   4.058  1.00  0.00     0.011 A 
HETATM   16  C   UNL     1      43.994 -17.712   5.149  1.00  0.00     0.019 A 
HETATM   17 BR   UNL     1      43.086 -18.067   2.471  1.00  0.00    -0.051 Br
HETATM   18  C   UNL     1      44.218 -16.989   6.319  1.00  0.00     0.002 A 
HETATM   19  C   UNL     1      43.857 -15.642   6.388  1.00  0.00     0.009 A 
ENDBRANCH  12  13
ENDBRANCH   8  12
ENDBRANCH   1   6
BRANCH   1  20
HETATM   20  C   UNL     1      43.772 -10.415  10.547  1.00  0.00     0.264 C 
HETATM   21  N   UNL     1      42.798  -9.487  10.862  1.00  0.00    -0.265 N 
HETATM   22  H   UNL     1      42.555  -8.734  10.205  1.00  0.00     0.190 HD
HETATM   23  O   UNL     1      44.330 -11.084  11.419  1.00  0.00    -0.269 OA
BRANCH  21  24
HETATM   24  N   UNL     1      42.517  -9.260  12.215  1.00  0.00    -0.262 N 
HETATM   25  C   UNL     1      42.517  -7.969  12.702  1.00  0.00     0.286 C 
HETATM   26  O   UNL     1      42.778  -6.997  11.995  1.00  0.00    -0.264 OA
HETATM   27  H   UNL     1      42.313 -10.076  12.783  1.00  0.00     0.190 HD
BRANCH  25  28
HETATM   28  C   UNL     1      42.191  -7.833  14.106  1.00  0.00     0.102 A 
HETATM   29  N   UNL     1      42.665  -6.770  14.846  1.00  0.00    -0.361 N 
HETATM   30  H   UNL     1      43.256  -6.042  14.463  1.00  0.00     0.165 HD
HETATM   31  C   UNL     1      42.222  -6.853  16.138  1.00  0.00     0.088 A 
HETATM   32  C   UNL     1      41.448  -7.985  16.245  1.00  0.00     0.019 A 
HETATM   33  C   UNL     1      41.427  -8.603  14.969  1.00  0.00     0.036 A 
ENDBRANCH  25  28
ENDBRANCH  21  24
ENDBRANCH   1  20
TORSDOF 6
ENDMDL
MODEL 7
REMARK VINA RESULT:      -8.0      4.821      8.364
REMARK  6 active torsions:
REMARK  status: ('A' for Active; 'I' for Inactive)
REMARK    1  A    between atoms: C_6  and  C_7 
REMARK    2  A    between atoms: C_7  and  N_8 
REMARK       I    between atoms: N_8  and  C_9 
REMARK       I    between atoms: C_9  and  N_10 
REMARK    3  A    between atoms: N_10  and  C_11 
REMARK    4  A    between atoms: C_11  and  C_12 
REMARK       I    between atoms: C_12  and  N_13 
REMARK    5  A    between atoms: N_13  and  N_14 
REMARK       I    between atoms: N_14  and  C_15 
REMARK    6  A    between atoms: C_15  and  C_16 
ROOT
HETATM    1  C   UNL     1      41.093 -14.883   4.476  1.00  0.00     0.117 C 
HETATM    2  C   UNL     1      40.879 -16.320   4.982  1.00  0.00     0.041 C 
HETATM    3  C   UNL     1      42.276 -16.780   5.367  1.00  0.00     0.003 C 
HETATM    4  C   UNL     1      43.182 -16.193   4.296  1.00  0.00     0.003 C 
HETATM    5  C   UNL     1      42.421 -15.012   3.691  1.00  0.00     0.041 C 
ENDROOT
BRANCH   1   6
HETATM    6  N   UNL     1      40.047 -14.426   3.547  1.00  0.00    -0.325 N 
HETATM    7  C   UNL     1      40.181 -13.303   2.781  1.00  0.00     0.317 C 
HETATM    8  N   UNL     1      39.076 -13.094   2.004  1.00  0.00    -0.339 N 
HETATM    9  O   UNL     1      41.177 -12.592   2.780  1.00  0.00    -0.247 OA
HETATM   10  H   UNL     1      38.207 -13.331   2.459  1.00  0.00     0.164 HD
HETATM   11  H   UNL     1      39.516 -15.157   3.092  1.00  0.00     0.165 HD
BRANCH   8  12
HETATM   12  C   UNL     1      39.047 -11.942   1.128  1.00  0.00     0.162 C 
BRANCH  12  13
HETATM   13  C   UNL     1      39.498 -12.258  -0.276  1.00  0.00    -0.039 A 
HETATM   14  C   UNL     1      38.816 -13.176  -1.088  1.00  0.00     0.027 A 
HETATM   15  C   UNL     1      39.277 -13.457  -2.376  1.00  0.00     0.011 A 
HETATM   16  C   UNL     1      40.432 -12.851  -2.864  1.00  0.00     0.019 A 
HETATM   17 BR   UNL     1      38.323 -14.671  -3.468  1.00  0.00    -0.051 Br
HETATM   18  C   UNL     1      41.135 -11.960  -2.056  1.00  0.00     0.002 A 
HETATM   19  C   UNL     1      40.673 -11.667  -0.771  1.00  0.00     0.009 A 
ENDBRANCH  12  13
ENDBRANCH   8  12
ENDBRANCH   1   6
BRANCH   1  20
HETATM   20  C   UNL     1      41.242 -13.856   5.644  1.00  0.00     0.264 C 
HETATM   21  N   UNL     1      42.458 -13.200   5.697  1.00  0.00    -0.265 N 
HETATM   22  H   UNL     1      43.277 -13.567   5.193  1.00  0.00     0.190 HD
HETATM   23  O   UNL     1      40.369 -13.663   6.492  1.00  0.00    -0.269 OA
BRANCH  21  24
HETATM   24  N   UNL     1      42.711 -12.370   6.795  1.00  0.00    -0.262 N 
HETATM   25  C   UNL     1      43.971 -11.835   6.967  1.00  0.00     0.286 C 
HETATM   26  O   UNL     1      44.901 -12.076   6.198  1.00  0.00    -0.264 OA
HETATM   27  H   UNL     1      41.933 -12.190   7.421  1.00  0.00     0.190 HD
BRANCH  25  28
HETATM   28  C   UNL     1      44.129 -10.969   8.116  1.00  0.00     0.102 A 
HETATM   29  N   UNL     1      43.032 -10.412   8.741  1.00  0.00    -0.361 N 
HETATM   30  H   UNL     1      42.078 -10.569   8.441  1.00  0.00     0.165 HD
HETATM   31  C   UNL     1      43.429  -9.640   9.799  1.00  0.00     0.088 A 
HETATM   32  C   UNL     1      44.802  -9.693   9.868  1.00  0.00     0.019 A 
HETATM   33  C   UNL     1      45.244 -10.527   8.810  1.00  0.00     0.036 A 
ENDBRANCH  25  28
ENDBRANCH  21  24
ENDBRANCH   1  20
TORSDOF 6
ENDMDL
MODEL 8
REMARK VINA RESULT:      -7.8      3.994      9.372
REMARK  6 active torsions:
REMARK  status: ('A' for Active; 'I' for Inactive)
REMARK    1  A    between atoms: C_6  and  C_7 
REMARK    2  A    between atoms: C_7  and  N_8 
REMARK       I    between atoms: N_8  and  C_9 
REMARK       I    between atoms: C_9  and  N_10 
REMARK    3  A    between atoms: N_10  and  C_11 
REMARK    4  A    between atoms: C_11  and  C_12 
REMARK       I    between atoms: C_12  and  N_13 
REMARK    5  A    between atoms: N_13  and  N_14 
REMARK       I    between atoms: N_14  and  C_15 
REMARK    6  A    between atoms: C_15  and  C_16 
ROOT
HETATM    1  C   UNL     1      41.705 -13.070   3.871  1.00  0.00     0.117 C 
HETATM    2  C   UNL     1      42.963 -12.333   3.381  1.00  0.00     0.041 C 
HETATM    3  C   UNL     1      43.656 -11.905   4.664  1.00  0.00     0.003 C 
HETATM    4  C   UNL     1      42.523 -11.496   5.593  1.00  0.00     0.003 C 
HETATM    5  C   UNL     1      41.267 -12.197   5.072  1.00  0.00     0.041 C 
ENDROOT
BRANCH   1   6
HETATM    6  N   UNL     1      40.613 -13.087   2.885  1.00  0.00    -0.325 N 
HETATM    7  C   UNL     1      40.784 -13.530   1.604  1.00  0.00     0.317 C 
HETATM    8  N   UNL     1      39.622 -13.446   0.888  1.00  0.00    -0.339 N 
HETATM    9  O   UNL     1      41.840 -13.967   1.167  1.00  0.00    -0.247 OA
HETATM   10  H   UNL     1      39.069 -12.630   1.103  1.00  0.00     0.164 HD
HETATM   11  H   UNL     1      39.693 -13.285   3.255  1.00  0.00     0.165 HD
BRANCH   8  12
HETATM   12  C   UNL     1      39.623 -13.873  -0.495  1.00  0.00     0.162 C 
BRANCH  12  13
HETATM   13  C   UNL     1      39.138 -12.803  -1.442  1.00  0.00    -0.039 A 
HETATM   14  C   UNL     1      40.013 -11.878  -2.031  1.00  0.00     0.027 A 
HETATM   15  C   UNL     1      39.523 -10.890  -2.886  1.00  0.00     0.011 A 
HETATM   16  C   UNL     1      38.158 -10.791  -3.148  1.00  0.00     0.019 A 
HETATM   17 BR   UNL     1      40.722  -9.675  -3.698  1.00  0.00    -0.051 Br
HETATM   18  C   UNL     1      37.276 -11.686  -2.545  1.00  0.00     0.002 A 
HETATM   19  C   UNL     1      37.762 -12.683  -1.697  1.00  0.00     0.009 A 
ENDBRANCH  12  13
ENDBRANCH   8  12
ENDBRANCH   1   6
BRANCH   1  20
HETATM   20  C   UNL     1      42.013 -14.529   4.336  1.00  0.00     0.264 C 
HETATM   21  N   UNL     1      43.085 -15.132   3.706  1.00  0.00    -0.265 N 
HETATM   22  H   UNL     1      43.455 -14.759   2.822  1.00  0.00     0.190 HD
HETATM   23  O   UNL     1      41.333 -15.133   5.169  1.00  0.00    -0.269 OA
BRANCH  21  24
HETATM   24  N   UNL     1      43.332 -16.484   3.973  1.00  0.00    -0.262 N 
HETATM   25  C   UNL     1      43.350 -17.391   2.933  1.00  0.00     0.286 C 
HETATM   26  O   UNL     1      43.135 -17.062   1.768  1.00  0.00    -0.264 OA
HETATM   27  H   UNL     1      43.499 -16.736   4.942  1.00  0.00     0.190 HD
BRANCH  25  28
HETATM   28  C   UNL     1      43.639 -18.759   3.305  1.00  0.00     0.102 A 
HETATM   29  N   UNL     1      44.063 -19.075   4.579  1.00  0.00    -0.361 N 
HETATM   30  H   UNL     1      44.197 -18.387   5.310  1.00  0.00     0.165 HD
HETATM   31  C   UNL     1      44.266 -20.423   4.693  1.00  0.00     0.088 A 
HETATM   32  C   UNL     1      43.970 -20.998   3.479  1.00  0.00     0.019 A 
HETATM   33  C   UNL     1      43.576 -19.954   2.605  1.00  0.00     0.036 A 
ENDBRANCH  25  28
ENDBRANCH  21  24
ENDBRANCH   1  20
TORSDOF 6
ENDMDL
MODEL 9
REMARK VINA RESULT:      -7.7      6.255     10.212
REMARK  6 active torsions:
REMARK  status: ('A' for Active; 'I' for Inactive)
REMARK    1  A    between atoms: C_6  and  C_7 
REMARK    2  A    between atoms: C_7  and  N_8 
REMARK       I    between atoms: N_8  and  C_9 
REMARK       I    between atoms: C_9  and  N_10 
REMARK    3  A    between atoms: N_10  and  C_11 
REMARK    4  A    between atoms: C_11  and  C_12 
REMARK       I    between atoms: C_12  and  N_13 
REMARK    5  A    between atoms: N_13  and  N_14 
REMARK       I    between atoms: N_14  and  C_15 
REMARK    6  A    between atoms: C_15  and  C_16 
ROOT
HETATM    1  C   UNL     1      42.988 -12.958   4.668  1.00  0.00     0.117 C 
HETATM    2  C   UNL     1      41.578 -12.378   4.870  1.00  0.00     0.041 C 
HETATM    3  C   UNL     1      41.107 -12.071   3.457  1.00  0.00     0.003 C 
HETATM    4  C   UNL     1      42.343 -11.542   2.747  1.00  0.00     0.003 C 
HETATM    5  C   UNL     1      43.547 -12.064   3.535  1.00  0.00     0.041 C 
ENDROOT
BRANCH   1   6
HETATM    6  N   UNL     1      43.857 -12.812   5.847  1.00  0.00    -0.325 N 
HETATM    7  C   UNL     1      44.411 -11.616   6.210  1.00  0.00     0.317 C 
HETATM    8  N   UNL     1      45.173 -11.742   7.338  1.00  0.00    -0.339 N 
HETATM    9  O   UNL     1      44.224 -10.567   5.610  1.00  0.00    -0.247 OA
HETATM   10  H   UNL     1      45.690 -12.609   7.387  1.00  0.00     0.164 HD
HETATM   11  H   UNL     1      43.625 -13.399   6.637  1.00  0.00     0.165 HD
BRANCH   8  12
HETATM   12  C   UNL     1      45.840 -10.570   7.863  1.00  0.00     0.162 C 
BRANCH  12  13
HETATM   13  C   UNL     1      44.964  -9.759   8.787  1.00  0.00    -0.039 A 
HETATM   14  C   UNL     1      44.434 -10.294   9.971  1.00  0.00     0.027 A 
HETATM   15  C   UNL     1      43.611  -9.518  10.789  1.00  0.00     0.011 A 
HETATM   16  C   UNL     1      43.283  -8.213  10.431  1.00  0.00     0.019 A 
HETATM   17 BR   UNL     1      42.936 -10.246  12.398  1.00  0.00    -0.051 Br
HETATM   18  C   UNL     1      43.779  -7.680   9.242  1.00  0.00     0.002 A 
HETATM   19  C   UNL     1      44.611  -8.448   8.426  1.00  0.00     0.009 A 
ENDBRANCH  12  13
ENDBRANCH   8  12
ENDBRANCH   1   6
BRANCH   1  20
HETATM   20  C   UNL     1      42.958 -14.455   4.222  1.00  0.00     0.264 C 
HETATM   21  N   UNL     1      42.688 -15.362   5.230  1.00  0.00    -0.265 N 
HETATM   22  H   UNL     1      42.786 -15.096   6.219  1.00  0.00     0.190 HD
HETATM   23  O   UNL     1      43.200 -14.825   3.071  1.00  0.00    -0.269 OA
BRANCH  21  24
HETATM   24  N   UNL     1      42.782 -16.726   4.931  1.00  0.00    -0.262 N 
HETATM   25  C   UNL     1      43.907 -17.430   5.310  1.00  0.00     0.286 C 
HETATM   26  O   UNL     1      44.854 -16.898   5.887  1.00  0.00    -0.264 OA
HETATM   27  H   UNL     1      41.993 -17.143   4.447  1.00  0.00     0.190 HD
BRANCH  25  28
HETATM   28  C   UNL     1      43.900 -18.839   4.980  1.00  0.00     0.102 A 
HETATM   29  N   UNL     1      43.931 -19.262   3.667  1.00  0.00    -0.361 N 
HETATM   30  H   UNL     1      43.957 -18.629   2.876  1.00  0.00     0.165 HD
HETATM   31  C   UNL     1      43.923 -20.629   3.606  1.00  0.00     0.088 A 
HETATM   32  C   UNL     1      43.887 -21.107   4.895  1.00  0.00     0.019 A 
HETATM   33  C   UNL     1      43.872 -19.984   5.760  1.00  0.00     0.036 A 
ENDBRANCH  25  28
ENDBRANCH  21  24
ENDBRANCH   1  20
TORSDOF 6
ENDMDL
MODEL 10
REMARK VINA RESULT:      -7.7      5.562      8.054
REMARK  6 active torsions:
REMARK  status: ('A' for Active; 'I' for Inactive)
REMARK    1  A    between atoms: C_6  and  C_7 
REMARK    2  A    between atoms: C_7  and  N_8 
REMARK       I    between atoms: N_8  and  C_9 
REMARK       I    between atoms: C_9  and  N_10 
REMARK    3  A    between atoms: N_10  and  C_11 
REMARK    4  A    between atoms: C_11  and  C_12 
REMARK       I    between atoms: C_12  and  N_13 
REMARK    5  A    between atoms: N_13  and  N_14 
REMARK       I    between atoms: N_14  and  C_15 
REMARK    6  A    between atoms: C_15  and  C_16 
ROOT
HETATM    1  C   UNL     1      42.742 -14.658   4.622  1.00  0.00     0.117 C 
HETATM    2  C   UNL     1      43.439 -16.024   4.734  1.00  0.00     0.041 C 
HETATM    3  C   UNL     1      42.332 -17.021   4.430  1.00  0.00     0.003 C 
HETATM    4  C   UNL     1      41.098 -16.440   5.101  1.00  0.00     0.003 C 
HETATM    5  C   UNL     1      41.366 -14.943   5.269  1.00  0.00     0.041 C 
ENDROOT
BRANCH   1   6
HETATM    6  N   UNL     1      43.407 -13.595   5.393  1.00  0.00    -0.325 N 
HETATM    7  C   UNL     1      42.790 -12.416   5.707  1.00  0.00     0.317 C 
HETATM    8  N   UNL     1      43.615 -11.599   6.428  1.00  0.00    -0.339 N 
HETATM    9  O   UNL     1      41.638 -12.145   5.397  1.00  0.00    -0.247 OA
HETATM   10  H   UNL     1      44.582 -11.637   6.139  1.00  0.00     0.164 HD
HETATM   11  H   UNL     1      44.050 -13.910   6.108  1.00  0.00     0.165 HD
BRANCH   8  12
HETATM   12  C   UNL     1      43.122 -10.303   6.843  1.00  0.00     0.162 C 
BRANCH  12  13
HETATM   13  C   UNL     1      43.537  -9.937   8.247  1.00  0.00    -0.039 A 
HETATM   14  C   UNL     1      42.727  -9.150   9.081  1.00  0.00     0.027 A 
HETATM   15  C   UNL     1      43.155  -8.815  10.367  1.00  0.00     0.011 A 
HETATM   16  C   UNL     1      44.399  -9.235  10.833  1.00  0.00     0.019 A 
HETATM   17 BR   UNL     1      42.035  -7.784  11.488  1.00  0.00    -0.051 Br
HETATM   18  C   UNL     1      45.224  -9.992  10.003  1.00  0.00     0.002 A 
HETATM   19  C   UNL     1      44.797 -10.338   8.720  1.00  0.00     0.009 A 
ENDBRANCH  12  13
ENDBRANCH   8  12
ENDBRANCH   1   6
BRANCH   1  20
HETATM   20  C   UNL     1      42.569 -14.197   3.139  1.00  0.00     0.264 C 
HETATM   21  N   UNL     1      41.274 -13.886   2.769  1.00  0.00    -0.265 N 
HETATM   22  H   UNL     1      40.474 -14.204   3.333  1.00  0.00     0.190 HD
HETATM   23  O   UNL     1      43.497 -14.153   2.330  1.00  0.00    -0.269 OA
BRANCH  21  24
HETATM   24  N   UNL     1      41.023 -13.600   1.422  1.00  0.00    -0.262 N 
HETATM   25  C   UNL     1      40.367 -14.528   0.640  1.00  0.00     0.286 C 
HETATM   26  O   UNL     1      40.006 -15.620   1.076  1.00  0.00    -0.264 OA
HETATM   27  H   UNL     1      41.337 -12.697   1.081  1.00  0.00     0.190 HD
BRANCH  25  28
HETATM   28  C   UNL     1      40.132 -14.131  -0.732  1.00  0.00     0.102 A 
HETATM   29  N   UNL     1      40.943 -13.203  -1.352  1.00  0.00    -0.361 N 
HETATM   30  H   UNL     1      41.728 -12.755  -0.897  1.00  0.00     0.165 HD
HETATM   31  C   UNL     1      40.530 -12.995  -2.640  1.00  0.00     0.088 A 
HETATM   32  C   UNL     1      39.435 -13.797  -2.865  1.00  0.00     0.019 A 
HETATM   33  C   UNL     1      39.183 -14.511  -1.667  1.00  0.00     0.036 A 
ENDBRANCH  25  28
ENDBRANCH  21  24
ENDBRANCH   1  20
TORSDOF 6
ENDMDL
