MODEL 1
REMARK VINA RESULT:      -8.1      0.000      0.000
REMARK  3 active torsions:
REMARK  status: ('A' for Active; 'I' for Inactive)
REMARK    1  A    between atoms: C_7  and  C_8 
REMARK       I    between atoms: C_8  and  N_9 
REMARK    2  A    between atoms: N_9  and  C_10 
REMARK    3  A    between atoms: C_13  and  C_14 
REMARK       I    between atoms: C_14  and  N_15 
ROOT
HETATM    1  C   UNL     1      42.928 -14.516   5.671  1.00  0.00     0.257 C 
HETATM    2  N   UNL     1      43.304 -13.231   5.323  1.00  0.00    -0.323 N 
HETATM    3  O   UNL     1      42.818 -14.942   6.814  1.00  0.00    -0.267 OA
HETATM    4  H   UNL     1      43.254 -13.002   4.338  1.00  0.00     0.169 HD
ENDROOT
BRANCH   2   5
HETATM    5  C   UNL     1      43.672 -12.175   6.181  1.00  0.00     0.035 A 
HETATM    6  C   UNL     1      42.797 -11.179   6.620  1.00  0.00     0.030 A 
HETATM    7  C   UNL     1      43.246 -10.149   7.460  1.00  0.00     0.019 A 
HETATM    8  C   UNL     1      44.577 -10.112   7.887  1.00  0.00     0.032 A 
HETATM    9  C   UNL     1      45.453 -11.113   7.451  1.00  0.00     0.019 A 
HETATM   10  C   UNL     1      45.005 -12.132   6.603  1.00  0.00     0.030 A 
BRANCH   8  11
HETATM   11  C   UNL     1      45.123  -9.046   8.775  1.00  0.00     0.249 C 
HETATM   12  N   UNL     1      45.350  -9.340  10.090  1.00  0.00    -0.366 N 
HETATM   13  H   UNL     1      45.262 -10.254  10.503  1.00  0.00     0.159 HD
HETATM   14  H   UNL     1      45.756  -8.604  10.654  1.00  0.00     0.159 HD
HETATM   15  O   UNL     1      45.378  -7.926   8.345  1.00  0.00    -0.268 OA
ENDBRANCH   8  11
ENDBRANCH   2   5
BRANCH   1  16
HETATM   16  C   UNL     1      42.581 -15.363   4.523  1.00  0.00     0.050 A 
HETATM   17  C   UNL     1      43.128 -16.659   4.148  1.00  0.00    -0.003 A 
HETATM   18  C   UNL     1      44.072 -17.509   4.787  1.00  0.00     0.014 A 
HETATM   19  C   UNL     1      42.582 -17.111   2.940  1.00  0.00     0.016 A 
HETATM   20  C   UNL     1      44.473 -18.715   4.200  1.00  0.00     0.001 A 
HETATM   21  C   UNL     1      43.940 -19.112   2.985  1.00  0.00     0.001 A 
HETATM   22  C   UNL     1      42.984 -18.324   2.344  1.00  0.00     0.019 A 
HETATM   23  S   UNL     1      41.395 -16.027   2.331  1.00  0.00    -0.100 SA
HETATM   24  C   UNL     1      41.594 -14.964   3.640  1.00  0.00     0.068 A 
ENDBRANCH   1  16
TORSDOF 3
ENDMDL
MODEL 2
REMARK VINA RESULT:      -8.1      3.209      7.973
REMARK  3 active torsions:
REMARK  status: ('A' for Active; 'I' for Inactive)
REMARK    1  A    between atoms: C_7  and  C_8 
REMARK       I    between atoms: C_8  and  N_9 
REMARK    2  A    between atoms: N_9  and  C_10 
REMARK    3  A    between atoms: C_13  and  C_14 
REMARK       I    between atoms: C_14  and  N_15 
ROOT
HETATM    1  C   UNL     1      41.802 -14.774   5.471  1.00  0.00     0.257 C 
HETATM    2  N   UNL     1      42.670 -15.132   4.455  1.00  0.00    -0.323 N 
HETATM    3  O   UNL     1      41.125 -15.547   6.136  1.00  0.00    -0.267 OA
HETATM    4  H   UNL     1      43.233 -14.387   4.064  1.00  0.00     0.169 HD
ENDROOT
BRANCH   2   5
HETATM    5  C   UNL     1      42.925 -16.423   3.950  1.00  0.00     0.035 A 
HETATM    6  C   UNL     1      42.476 -16.883   2.711  1.00  0.00     0.030 A 
HETATM    7  C   UNL     1      42.756 -18.191   2.287  1.00  0.00     0.019 A 
HETATM    8  C   UNL     1      43.506 -19.053   3.093  1.00  0.00     0.032 A 
HETATM    9  C   UNL     1      43.959 -18.590   4.334  1.00  0.00     0.019 A 
HETATM   10  C   UNL     1      43.668 -17.288   4.760  1.00  0.00     0.030 A 
BRANCH   8  11
HETATM   11  C   UNL     1      43.837 -20.455   2.709  1.00  0.00     0.249 C 
HETATM   12  N   UNL     1      44.147 -21.349   3.695  1.00  0.00    -0.366 N 
HETATM   13  H   UNL     1      44.088 -21.166   4.683  1.00  0.00     0.159 HD
HETATM   14  H   UNL     1      44.330 -22.300   3.401  1.00  0.00     0.159 HD
HETATM   15  O   UNL     1      43.823 -20.815   1.537  1.00  0.00    -0.268 OA
ENDBRANCH   8  11
ENDBRANCH   2   5
BRANCH   1  16
HETATM   16  C   UNL     1      41.797 -13.335   5.766  1.00  0.00     0.050 A 
HETATM   17  C   UNL     1      42.878 -12.503   6.273  1.00  0.00    -0.003 A 
HETATM   18  C   UNL     1      44.241 -12.794   6.560  1.00  0.00     0.014 A 
HETATM   19  C   UNL     1      42.450 -11.187   6.488  1.00  0.00     0.016 A 
HETATM   20  C   UNL     1      45.093 -11.815   7.086  1.00  0.00     0.001 A 
HETATM   21  C   UNL     1      44.625 -10.534   7.321  1.00  0.00     0.001 A 
HETATM   22  C   UNL     1      43.305 -10.200   7.019  1.00  0.00     0.019 A 
HETATM   23  S   UNL     1      40.813 -10.964   6.015  1.00  0.00    -0.100 SA
HETATM   24  C   UNL     1      40.658 -12.585   5.534  1.00  0.00     0.068 A 
ENDBRANCH   1  16
TORSDOF 3
ENDMDL
MODEL 3
REMARK VINA RESULT:      -8.1      5.270      7.294
REMARK  3 active torsions:
REMARK  status: ('A' for Active; 'I' for Inactive)
REMARK    1  A    between atoms: C_7  and  C_8 
REMARK       I    between atoms: C_8  and  N_9 
REMARK    2  A    between atoms: N_9  and  C_10 
REMARK    3  A    between atoms: C_13  and  C_14 
REMARK       I    between atoms: C_14  and  N_15 
ROOT
HETATM    1  C   UNL     1      42.924 -15.954   2.097  1.00  0.00     0.257 C 
HETATM    2  N   UNL     1      41.677 -15.358   2.141  1.00  0.00    -0.323 N 
HETATM    3  O   UNL     1      43.740 -15.836   1.191  1.00  0.00    -0.267 OA
HETATM    4  H   UNL     1      41.156 -15.473   3.001  1.00  0.00     0.169 HD
ENDROOT
BRANCH   2   5
HETATM    5  C   UNL     1      41.073 -14.543   1.162  1.00  0.00     0.035 A 
HETATM    6  C   UNL     1      41.328 -13.178   1.012  1.00  0.00     0.030 A 
HETATM    7  C   UNL     1      40.672 -12.430   0.024  1.00  0.00     0.019 A 
HETATM    8  C   UNL     1      39.760 -13.043  -0.842  1.00  0.00     0.032 A 
HETATM    9  C   UNL     1      39.507 -14.412  -0.693  1.00  0.00     0.019 A 
HETATM   10  C   UNL     1      40.155 -15.154   0.302  1.00  0.00     0.030 A 
BRANCH   8  11
HETATM   11  C   UNL     1      39.023 -12.310  -1.910  1.00  0.00     0.249 C 
HETATM   12  N   UNL     1      38.827 -12.927  -3.114  1.00  0.00    -0.366 N 
HETATM   13  H   UNL     1      39.064 -13.884  -3.320  1.00  0.00     0.159 HD
HETATM   14  H   UNL     1      38.291 -12.414  -3.802  1.00  0.00     0.159 HD
HETATM   15  O   UNL     1      38.586 -11.180  -1.723  1.00  0.00    -0.268 OA
ENDBRANCH   8  11
ENDBRANCH   2   5
BRANCH   1  16
HETATM   16  C   UNL     1      43.256 -16.723   3.303  1.00  0.00     0.050 A 
HETATM   17  C   UNL     1      43.501 -18.152   3.436  1.00  0.00    -0.003 A 
HETATM   18  C   UNL     1      43.568 -19.194   2.471  1.00  0.00     0.014 A 
HETATM   19  C   UNL     1      43.717 -18.509   4.772  1.00  0.00     0.016 A 
HETATM   20  C   UNL     1      43.785 -20.523   2.855  1.00  0.00     0.001 A 
HETATM   21  C   UNL     1      43.957 -20.844   4.191  1.00  0.00     0.001 A 
HETATM   22  C   UNL     1      43.935 -19.846   5.164  1.00  0.00     0.019 A 
HETATM   23  S   UNL     1      43.696 -17.139   5.811  1.00  0.00    -0.100 SA
HETATM   24  C   UNL     1      43.399 -16.078   4.518  1.00  0.00     0.068 A 
ENDBRANCH   1  16
TORSDOF 3
ENDMDL
MODEL 4
REMARK VINA RESULT:      -7.5      5.402      7.740
REMARK  3 active torsions:
REMARK  status: ('A' for Active; 'I' for Inactive)
REMARK    1  A    between atoms: C_7  and  C_8 
REMARK       I    between atoms: C_8  and  N_9 
REMARK    2  A    between atoms: N_9  and  C_10 
REMARK    3  A    between atoms: C_13  and  C_14 
REMARK       I    between atoms: C_14  and  N_15 
ROOT
HETATM    1  C   UNL     1      40.726 -13.576   1.252  1.00  0.00     0.257 C 
HETATM    2  N   UNL     1      40.424 -14.821   1.775  1.00  0.00    -0.323 N 
HETATM    3  O   UNL     1      41.781 -12.973   1.408  1.00  0.00    -0.267 OA
HETATM    4  H   UNL     1      39.548 -15.231   1.476  1.00  0.00     0.169 HD
ENDROOT
BRANCH   2   5
HETATM    5  C   UNL     1      41.225 -15.625   2.612  1.00  0.00     0.035 A 
HETATM    6  C   UNL     1      41.085 -15.695   3.999  1.00  0.00     0.030 A 
HETATM    7  C   UNL     1      41.934 -16.506   4.766  1.00  0.00     0.019 A 
HETATM    8  C   UNL     1      42.927 -17.274   4.150  1.00  0.00     0.032 A 
HETATM    9  C   UNL     1      43.064 -17.207   2.759  1.00  0.00     0.019 A 
HETATM   10  C   UNL     1      42.223 -16.387   1.997  1.00  0.00     0.030 A 
BRANCH   8  11
HETATM   11  C   UNL     1      43.868 -18.154   4.902  1.00  0.00     0.249 C 
HETATM   12  N   UNL     1      43.667 -18.335   6.242  1.00  0.00    -0.366 N 
HETATM   13  H   UNL     1      42.876 -17.991   6.761  1.00  0.00     0.159 HD
HETATM   14  H   UNL     1      44.302 -18.967   6.712  1.00  0.00     0.159 HD
HETATM   15  O   UNL     1      44.800 -18.719   4.340  1.00  0.00    -0.268 OA
ENDBRANCH   8  11
ENDBRANCH   2   5
BRANCH   1  16
HETATM   16  C   UNL     1      39.672 -13.024   0.392  1.00  0.00     0.050 A 
HETATM   17  C   UNL     1      39.138 -13.555  -0.853  1.00  0.00    -0.003 A 
HETATM   18  C   UNL     1      39.405 -14.761  -1.559  1.00  0.00     0.014 A 
HETATM   19  C   UNL     1      38.185 -12.692  -1.408  1.00  0.00     0.016 A 
HETATM   20  C   UNL     1      38.779 -15.037  -2.781  1.00  0.00     0.001 A 
HETATM   21  C   UNL     1      37.869 -14.142  -3.318  1.00  0.00     0.001 A 
HETATM   22  C   UNL     1      37.554 -12.966  -2.639  1.00  0.00     0.019 A 
HETATM   23  S   UNL     1      37.902 -11.325  -0.405  1.00  0.00    -0.100 SA
HETATM   24  C   UNL     1      39.026 -11.855   0.752  1.00  0.00     0.068 A 
ENDBRANCH   1  16
TORSDOF 3
ENDMDL
MODEL 5
REMARK VINA RESULT:      -7.4      3.597      8.224
REMARK  3 active torsions:
REMARK  status: ('A' for Active; 'I' for Inactive)
REMARK    1  A    between atoms: C_7  and  C_8 
REMARK       I    between atoms: C_8  and  N_9 
REMARK    2  A    between atoms: N_9  and  C_10 
REMARK    3  A    between atoms: C_13  and  C_14 
REMARK       I    between atoms: C_14  and  N_15 
ROOT
HETATM    1  C   UNL     1      42.046 -14.444   4.808  1.00  0.00     0.257 C 
HETATM    2  N   UNL     1      43.197 -15.062   4.352  1.00  0.00    -0.323 N 
HETATM    3  O   UNL     1      40.982 -15.002   5.044  1.00  0.00    -0.267 OA
HETATM    4  H   UNL     1      44.024 -14.481   4.298  1.00  0.00     0.169 HD
ENDROOT
BRANCH   2   5
HETATM    5  C   UNL     1      43.378 -16.422   4.030  1.00  0.00     0.035 A 
HETATM    6  C   UNL     1      44.016 -17.346   4.859  1.00  0.00     0.030 A 
HETATM    7  C   UNL     1      44.175 -18.681   4.458  1.00  0.00     0.019 A 
HETATM    8  C   UNL     1      43.680 -19.114   3.223  1.00  0.00     0.032 A 
HETATM    9  C   UNL     1      43.036 -18.188   2.394  1.00  0.00     0.019 A 
HETATM   10  C   UNL     1      42.891 -16.854   2.792  1.00  0.00     0.030 A 
BRANCH   8  11
HETATM   11  C   UNL     1      43.816 -20.514   2.730  1.00  0.00     0.249 C 
HETATM   12  N   UNL     1      44.091 -21.503   3.633  1.00  0.00    -0.366 N 
HETATM   13  H   UNL     1      44.124 -21.384   4.632  1.00  0.00     0.159 HD
HETATM   14  H   UNL     1      44.140 -22.446   3.268  1.00  0.00     0.159 HD
HETATM   15  O   UNL     1      43.677 -20.789   1.543  1.00  0.00    -0.268 OA
ENDBRANCH   8  11
ENDBRANCH   2   5
BRANCH   1  16
HETATM   16  C   UNL     1      42.210 -13.009   5.073  1.00  0.00     0.050 A 
HETATM   17  C   UNL     1      41.591 -11.879   4.395  1.00  0.00    -0.003 A 
HETATM   18  C   UNL     1      40.618 -11.815   3.359  1.00  0.00     0.014 A 
HETATM   19  C   UNL     1      42.062 -10.662   4.901  1.00  0.00     0.016 A 
HETATM   20  C   UNL     1      40.199 -10.586   2.836  1.00  0.00     0.001 A 
HETATM   21  C   UNL     1      40.715  -9.402   3.336  1.00  0.00     0.001 A 
HETATM   22  C   UNL     1      41.643  -9.422   4.377  1.00  0.00     0.019 A 
HETATM   23  S   UNL     1      43.159 -10.893   6.203  1.00  0.00    -0.100 SA
HETATM   24  C   UNL     1      43.025 -12.584   6.106  1.00  0.00     0.068 A 
ENDBRANCH   1  16
TORSDOF 3
ENDMDL
MODEL 6
REMARK VINA RESULT:      -7.1      9.550     13.951
REMARK  3 active torsions:
REMARK  status: ('A' for Active; 'I' for Inactive)
REMARK    1  A    between atoms: C_7  and  C_8 
REMARK       I    between atoms: C_8  and  N_9 
REMARK    2  A    between atoms: N_9  and  C_10 
REMARK    3  A    between atoms: C_13  and  C_14 
REMARK       I    between atoms: C_14  and  N_15 
ROOT
HETATM    1  C   UNL     1      40.953  -6.719  15.867  1.00  0.00     0.257 C 
HETATM    2  N   UNL     1      41.961  -7.613  15.554  1.00  0.00    -0.323 N 
HETATM    3  O   UNL     1      40.048  -6.372  15.119  1.00  0.00    -0.267 OA
HETATM    4  H   UNL     1      42.580  -7.872  16.312  1.00  0.00     0.169 HD
ENDROOT
BRANCH   2   5
HETATM    5  C   UNL     1      42.185  -8.269  14.327  1.00  0.00     0.035 A 
HETATM    6  C   UNL     1      41.469  -9.386  13.893  1.00  0.00     0.030 A 
HETATM    7  C   UNL     1      41.764  -9.995  12.664  1.00  0.00     0.019 A 
HETATM    8  C   UNL     1      42.771  -9.481  11.842  1.00  0.00     0.032 A 
HETATM    9  C   UNL     1      43.486  -8.358  12.275  1.00  0.00     0.019 A 
HETATM   10  C   UNL     1      43.198  -7.760  13.507  1.00  0.00     0.030 A 
BRANCH   8  11
HETATM   11  C   UNL     1      43.142 -10.079  10.528  1.00  0.00     0.249 C 
HETATM   12  N   UNL     1      42.387  -9.771   9.431  1.00  0.00    -0.366 N 
HETATM   13  H   UNL     1      41.640  -9.096   9.412  1.00  0.00     0.159 HD
HETATM   14  H   UNL     1      42.689 -10.165   8.549  1.00  0.00     0.159 HD
HETATM   15  O   UNL     1      44.109 -10.825  10.416  1.00  0.00    -0.268 OA
ENDBRANCH   8  11
ENDBRANCH   2   5
BRANCH   1  16
HETATM   16  C   UNL     1      40.998  -6.238  17.255  1.00  0.00     0.050 A 
HETATM   17  C   UNL     1      40.510  -6.888  18.462  1.00  0.00    -0.003 A 
HETATM   18  C   UNL     1      39.930  -8.168  18.679  1.00  0.00     0.014 A 
HETATM   19  C   UNL     1      40.678  -6.068  19.585  1.00  0.00     0.016 A 
HETATM   20  C   UNL     1      39.498  -8.560  19.951  1.00  0.00     0.001 A 
HETATM   21  C   UNL     1      39.645  -7.707  21.033  1.00  0.00     0.001 A 
HETATM   22  C   UNL     1      40.243  -6.458  20.868  1.00  0.00     0.019 A 
HETATM   23  S   UNL     1      41.470  -4.595  19.187  1.00  0.00    -0.100 SA
HETATM   24  C   UNL     1      41.590  -5.023  17.548  1.00  0.00     0.068 A 
ENDBRANCH   1  16
TORSDOF 3
ENDMDL
MODEL 7
REMARK VINA RESULT:      -7.0      5.075      7.641
REMARK  3 active torsions:
REMARK  status: ('A' for Active; 'I' for Inactive)
REMARK    1  A    between atoms: C_7  and  C_8 
REMARK       I    between atoms: C_8  and  N_9 
REMARK    2  A    between atoms: N_9  and  C_10 
REMARK    3  A    between atoms: C_13  and  C_14 
REMARK       I    between atoms: C_14  and  N_15 
ROOT
HETATM    1  C   UNL     1      41.347 -13.772   2.063  1.00  0.00     0.257 C 
HETATM    2  N   UNL     1      42.381 -14.651   1.798  1.00  0.00    -0.323 N 
HETATM    3  O   UNL     1      40.616 -13.804   3.045  1.00  0.00    -0.267 OA
HETATM    4  H   UNL     1      42.956 -14.434   0.993  1.00  0.00     0.169 HD
ENDROOT
BRANCH   2   5
HETATM    5  C   UNL     1      42.782 -15.769   2.557  1.00  0.00     0.035 A 
HETATM    6  C   UNL     1      42.947 -17.053   2.034  1.00  0.00     0.030 A 
HETATM    7  C   UNL     1      43.331 -18.120   2.860  1.00  0.00     0.019 A 
HETATM    8  C   UNL     1      43.572 -17.911   4.222  1.00  0.00     0.032 A 
HETATM    9  C   UNL     1      43.410 -16.623   4.745  1.00  0.00     0.019 A 
HETATM   10  C   UNL     1      43.015 -15.563   3.921  1.00  0.00     0.030 A 
BRANCH   8  11
HETATM   11  C   UNL     1      43.977 -18.998   5.159  1.00  0.00     0.249 C 
HETATM   12  N   UNL     1      43.482 -18.984   6.433  1.00  0.00    -0.366 N 
HETATM   13  H   UNL     1      42.786 -18.343   6.777  1.00  0.00     0.159 HD
HETATM   14  H   UNL     1      43.748 -19.757   7.029  1.00  0.00     0.159 HD
HETATM   15  O   UNL     1      44.729 -19.899   4.803  1.00  0.00    -0.268 OA
ENDBRANCH   8  11
ENDBRANCH   2   5
BRANCH   1  16
HETATM   16  C   UNL     1      41.217 -12.694   1.073  1.00  0.00     0.050 A 
HETATM   17  C   UNL     1      40.807 -12.780  -0.321  1.00  0.00    -0.003 A 
HETATM   18  C   UNL     1      40.350 -13.874  -1.107  1.00  0.00     0.014 A 
HETATM   19  C   UNL     1      40.880 -11.532  -0.951  1.00  0.00     0.016 A 
HETATM   20  C   UNL     1      40.044 -13.711  -2.464  1.00  0.00     0.001 A 
HETATM   21  C   UNL     1      40.165 -12.468  -3.063  1.00  0.00     0.001 A 
HETATM   22  C   UNL     1      40.574 -11.364  -2.317  1.00  0.00     0.019 A 
HETATM   23  S   UNL     1      41.359 -10.293   0.141  1.00  0.00    -0.100 SA
HETATM   24  C   UNL     1      41.476 -11.385   1.436  1.00  0.00     0.068 A 
ENDBRANCH   1  16
TORSDOF 3
ENDMDL
MODEL 8
REMARK VINA RESULT:      -7.0      2.975      8.007
REMARK  3 active torsions:
REMARK  status: ('A' for Active; 'I' for Inactive)
REMARK    1  A    between atoms: C_7  and  C_8 
REMARK       I    between atoms: C_8  and  N_9 
REMARK    2  A    between atoms: N_9  and  C_10 
REMARK    3  A    between atoms: C_13  and  C_14 
REMARK       I    between atoms: C_14  and  N_15 
ROOT
HETATM    1  C   UNL     1      43.563 -12.053   6.031  1.00  0.00     0.257 C 
HETATM    2  N   UNL     1      43.019 -13.287   6.335  1.00  0.00    -0.323 N 
HETATM    3  O   UNL     1      44.329 -11.819   5.104  1.00  0.00    -0.267 OA
HETATM    4  H   UNL     1      42.326 -13.301   7.073  1.00  0.00     0.169 HD
ENDROOT
BRANCH   2   5
HETATM    5  C   UNL     1      43.251 -14.518   5.689  1.00  0.00     0.035 A 
HETATM    6  C   UNL     1      42.821 -14.818   4.395  1.00  0.00     0.030 A 
HETATM    7  C   UNL     1      43.076 -16.075   3.827  1.00  0.00     0.019 A 
HETATM    8  C   UNL     1      43.783 -17.046   4.543  1.00  0.00     0.032 A 
HETATM    9  C   UNL     1      44.219 -16.744   5.839  1.00  0.00     0.019 A 
HETATM   10  C   UNL     1      43.952 -15.493   6.407  1.00  0.00     0.030 A 
BRANCH   8  11
HETATM   11  C   UNL     1      44.086 -18.404   4.005  1.00  0.00     0.249 C 
HETATM   12  N   UNL     1      44.347 -19.415   4.886  1.00  0.00    -0.366 N 
HETATM   13  H   UNL     1      44.266 -19.346   5.888  1.00  0.00     0.159 HD
HETATM   14  H   UNL     1      44.511 -20.330   4.488  1.00  0.00     0.159 HD
HETATM   15  O   UNL     1      44.093 -18.625   2.799  1.00  0.00    -0.268 OA
ENDBRANCH   8  11
ENDBRANCH   2   5
BRANCH   1  16
HETATM   16  C   UNL     1      43.085 -10.965   6.895  1.00  0.00     0.050 A 
HETATM   17  C   UNL     1      43.698 -10.417   8.096  1.00  0.00    -0.003 A 
HETATM   18  C   UNL     1      44.935 -10.698   8.739  1.00  0.00     0.014 A 
HETATM   19  C   UNL     1      42.890  -9.431   8.675  1.00  0.00     0.016 A 
HETATM   20  C   UNL     1      45.295 -10.051   9.928  1.00  0.00     0.001 A 
HETATM   21  C   UNL     1      44.453  -9.108  10.492  1.00  0.00     0.001 A 
HETATM   22  C   UNL     1      43.248  -8.779   9.872  1.00  0.00     0.019 A 
HETATM   23  S   UNL     1      41.476  -9.136   7.743  1.00  0.00    -0.100 SA
HETATM   24  C   UNL     1      41.913 -10.299   6.585  1.00  0.00     0.068 A 
ENDBRANCH   1  16
TORSDOF 3
ENDMDL
MODEL 9
REMARK VINA RESULT:      -7.0     16.517     17.764
REMARK  3 active torsions:
REMARK  status: ('A' for Active; 'I' for Inactive)
REMARK    1  A    between atoms: C_7  and  C_8 
REMARK       I    between atoms: C_8  and  N_9 
REMARK    2  A    between atoms: N_9  and  C_10 
REMARK    3  A    between atoms: C_13  and  C_14 
REMARK       I    between atoms: C_14  and  N_15 
ROOT
HETATM    1  C   UNL     1      47.129 -28.985   2.005  1.00  0.00     0.257 C 
HETATM    2  N   UNL     1      47.712 -30.212   2.265  1.00  0.00    -0.323 N 
HETATM    3  O   UNL     1      47.531 -27.903   2.415  1.00  0.00    -0.267 OA
HETATM    4  H   UNL     1      47.319 -31.006   1.775  1.00  0.00     0.169 HD
ENDROOT
BRANCH   2   5
HETATM    5  C   UNL     1      48.837 -30.482   3.070  1.00  0.00     0.035 A 
HETATM    6  C   UNL     1      50.145 -30.125   2.735  1.00  0.00     0.030 A 
HETATM    7  C   UNL     1      51.216 -30.447   3.581  1.00  0.00     0.019 A 
HETATM    8  C   UNL     1      50.990 -31.117   4.788  1.00  0.00     0.032 A 
HETATM    9  C   UNL     1      49.678 -31.471   5.126  1.00  0.00     0.019 A 
HETATM   10  C   UNL     1      48.612 -31.160   4.273  1.00  0.00     0.030 A 
BRANCH   8  11
HETATM   11  C   UNL     1      52.079 -31.495   5.733  1.00  0.00     0.249 C 
HETATM   12  N   UNL     1      52.508 -32.792   5.754  1.00  0.00    -0.366 N 
HETATM   13  H   UNL     1      52.210 -33.512   5.116  1.00  0.00     0.159 HD
HETATM   14  H   UNL     1      53.274 -33.005   6.381  1.00  0.00     0.159 HD
HETATM   15  O   UNL     1      52.596 -30.666   6.474  1.00  0.00    -0.268 OA
ENDBRANCH   8  11
ENDBRANCH   2   5
BRANCH   1  16
HETATM   16  C   UNL     1      45.976 -29.057   1.098  1.00  0.00     0.050 A 
HETATM   17  C   UNL     1      45.914 -28.759  -0.325  1.00  0.00    -0.003 A 
HETATM   18  C   UNL     1      46.921 -28.393  -1.260  1.00  0.00     0.014 A 
HETATM   19  C   UNL     1      44.608 -28.883  -0.814  1.00  0.00     0.016 A 
HETATM   20  C   UNL     1      46.603 -28.117  -2.595  1.00  0.00     0.001 A 
HETATM   21  C   UNL     1      45.293 -28.213  -3.035  1.00  0.00     0.001 A 
HETATM   22  C   UNL     1      44.283 -28.604  -2.158  1.00  0.00     0.019 A 
HETATM   23  S   UNL     1      43.518 -29.416   0.403  1.00  0.00    -0.100 SA
HETATM   24  C   UNL     1      44.748 -29.481   1.573  1.00  0.00     0.068 A 
ENDBRANCH   1  16
TORSDOF 3
ENDMDL
MODEL 10
REMARK VINA RESULT:      -6.9      4.580      5.933
REMARK  3 active torsions:
REMARK  status: ('A' for Active; 'I' for Inactive)
REMARK    1  A    between atoms: C_7  and  C_8 
REMARK       I    between atoms: C_8  and  N_9 
REMARK    2  A    between atoms: N_9  and  C_10 
REMARK    3  A    between atoms: C_13  and  C_14 
REMARK       I    between atoms: C_14  and  N_15 
ROOT
HETATM    1  C   UNL     1      41.872 -15.020   3.444  1.00  0.00     0.257 C 
HETATM    2  N   UNL     1      42.573 -14.090   2.698  1.00  0.00    -0.323 N 
HETATM    3  O   UNL     1      40.654 -15.073   3.558  1.00  0.00    -0.267 OA
HETATM    4  H   UNL     1      43.572 -14.237   2.625  1.00  0.00     0.169 HD
ENDROOT
BRANCH   2   5
HETATM    5  C   UNL     1      42.056 -13.005   1.962  1.00  0.00     0.035 A 
HETATM    6  C   UNL     1      42.273 -11.664   2.284  1.00  0.00     0.030 A 
HETATM    7  C   UNL     1      41.707 -10.639   1.510  1.00  0.00     0.019 A 
HETATM    8  C   UNL     1      40.928 -10.945   0.390  1.00  0.00     0.032 A 
HETATM    9  C   UNL     1      40.714 -12.290   0.065  1.00  0.00     0.019 A 
HETATM   10  C   UNL     1      41.269 -13.310   0.846  1.00  0.00     0.030 A 
BRANCH   8  11
HETATM   11  C   UNL     1      40.292  -9.909  -0.474  1.00  0.00     0.249 C 
HETATM   12  N   UNL     1      39.309 -10.293  -1.342  1.00  0.00    -0.366 N 
HETATM   13  H   UNL     1      38.907 -11.214  -1.392  1.00  0.00     0.159 HD
HETATM   14  H   UNL     1      38.875  -9.558  -1.885  1.00  0.00     0.159 HD
HETATM   15  O   UNL     1      40.627  -8.731  -0.408  1.00  0.00    -0.268 OA
ENDBRANCH   8  11
ENDBRANCH   2   5
BRANCH   1  16
HETATM   16  C   UNL     1      42.724 -16.041   4.069  1.00  0.00     0.050 A 
HETATM   17  C   UNL     1      43.062 -17.370   3.582  1.00  0.00    -0.003 A 
HETATM   18  C   UNL     1      42.751 -18.040   2.367  1.00  0.00     0.014 A 
HETATM   19  C   UNL     1      43.848 -18.067   4.508  1.00  0.00     0.016 A 
HETATM   20  C   UNL     1      43.169 -19.357   2.139  1.00  0.00     0.001 A 
HETATM   21  C   UNL     1      43.913 -20.028   3.095  1.00  0.00     0.001 A 
HETATM   22  C   UNL     1      44.270 -19.393   4.284  1.00  0.00     0.019 A 
HETATM   23  S   UNL     1      44.218 -17.104   5.883  1.00  0.00    -0.100 SA
HETATM   24  C   UNL     1      43.349 -15.778   5.274  1.00  0.00     0.068 A 
ENDBRANCH   1  16
TORSDOF 3
ENDMDL
