MODEL 1
REMARK VINA RESULT:      -8.3      0.000      0.000
REMARK  6 active torsions:
REMARK  status: ('A' for Active; 'I' for Inactive)
REMARK    1  A    between atoms: C_3  and  N_4 
REMARK    2  A    between atoms: N_4  and  C_5 
REMARK    3  A    between atoms: C_5  and  C_6 
REMARK    4  A    between atoms: N_8  and  C_10 
REMARK    5  A    between atoms: C_10  and  C_11 
REMARK    6  A    between atoms: C_16  and  O_17 
ROOT
HETATM    1  C   UNL     1      42.078 -15.068   6.630  1.00  0.00     0.031 C 
HETATM    2  C   UNL     1      42.170 -16.266   5.682  1.00  0.00     0.241 C 
HETATM    3  N   UNL     1      43.433 -17.004   6.076  1.00  0.00    -0.067 N 
HETATM    4  H   UNL     1      43.148 -17.960   6.346  1.00  0.00     0.280 HD
HETATM    5  C   UNL     1      43.996 -16.353   7.315  1.00  0.00     0.235 C 
HETATM    6  C   UNL     1      42.822 -15.565   7.869  1.00  0.00     0.035 C 
ENDROOT
BRANCH   3   7
HETATM    7  C   UNL     1      44.419 -17.202   4.950  1.00  0.00     0.274 C 
BRANCH   7   8
HETATM    8  C   UNL     1      44.016 -18.272   3.975  1.00  0.00    -0.013 A 
HETATM    9  C   UNL     1      43.460 -17.991   2.716  1.00  0.00     0.019 A 
HETATM   10 BR   UNL     1      43.143 -16.208   2.143  1.00  0.00    -0.051 Br
HETATM   11  C   UNL     1      43.104 -19.025   1.844  1.00  0.00     0.022 A 
HETATM   12  C   UNL     1      43.286 -20.356   2.220  1.00  0.00     0.038 A 
HETATM   13  C   UNL     1      43.824 -20.640   3.467  1.00  0.00     0.066 A 
HETATM   14  C   UNL     1      44.190 -19.618   4.338  1.00  0.00     0.046 A 
BRANCH  13  15
HETATM   15  O   UNL     1      44.015 -21.916   3.896  1.00  0.00    -0.361 OA
HETATM   16  H   UNL     1      43.208 -22.232   4.343  1.00  0.00     0.217 HD
ENDBRANCH  13  15
ENDBRANCH   7   8
ENDBRANCH   3   7
BRANCH   1  17
HETATM   17  C   UNL     1      42.688 -13.777   6.050  1.00  0.00     0.127 C 
BRANCH  17  18
HETATM   18  N   UNL     1      42.717 -12.738   7.073  1.00  0.00    -0.376 N 
HETATM   19  H   UNL     1      41.868 -12.162   7.079  1.00  0.00     0.161 HD
BRANCH  18  20
HETATM   20  C   UNL     1      43.810 -11.941   7.405  1.00  0.00     0.100 A 
HETATM   21  C   UNL     1      44.933 -11.956   6.560  1.00  0.00     0.048 A 
HETATM   22  C   UNL     1      46.037 -11.151   6.835  1.00  0.00     0.005 A 
HETATM   23  C   UNL     1      46.016 -10.326   7.947  1.00  0.00     0.017 A 
HETATM   24  C   UNL     1      44.886 -10.316   8.748  1.00  0.00     0.089 A 
HETATM   25  N   UNL     1      43.834 -11.099   8.452  1.00  0.00    -0.353 N 
HETATM   26  H   UNL     1      43.032 -11.048   9.068  1.00  0.00     0.166 HD
ENDBRANCH  18  20
ENDBRANCH  17  18
ENDBRANCH   1  17
TORSDOF 6
ENDMDL
MODEL 2
REMARK VINA RESULT:      -8.2      5.184      7.170
REMARK  6 active torsions:
REMARK  status: ('A' for Active; 'I' for Inactive)
REMARK    1  A    between atoms: C_3  and  N_4 
REMARK    2  A    between atoms: N_4  and  C_5 
REMARK    3  A    between atoms: C_5  and  C_6 
REMARK    4  A    between atoms: N_8  and  C_10 
REMARK    5  A    between atoms: C_10  and  C_11 
REMARK    6  A    between atoms: C_16  and  O_17 
ROOT
HETATM    1  C   UNL     1      40.138 -14.650   2.048  1.00  0.00     0.031 C 
HETATM    2  C   UNL     1      40.748 -16.042   2.231  1.00  0.00     0.241 C 
HETATM    3  N   UNL     1      41.776 -15.898   3.333  1.00  0.00    -0.067 N 
HETATM    4  H   UNL     1      41.494 -16.541   4.091  1.00  0.00     0.280 HD
HETATM    5  C   UNL     1      41.678 -14.500   3.893  1.00  0.00     0.235 C 
HETATM    6  C   UNL     1      40.311 -14.026   3.432  1.00  0.00     0.035 C 
ENDROOT
BRANCH   3   7
HETATM    7  C   UNL     1      43.168 -16.340   2.952  1.00  0.00     0.274 C 
BRANCH   7   8
HETATM    8  C   UNL     1      43.439 -17.791   3.235  1.00  0.00    -0.013 A 
HETATM    9  C   UNL     1      43.874 -18.259   4.486  1.00  0.00     0.019 A 
HETATM   10 BR   UNL     1      44.186 -17.075   5.939  1.00  0.00    -0.051 Br
HETATM   11  C   UNL     1      44.110 -19.621   4.698  1.00  0.00     0.022 A 
HETATM   12  C   UNL     1      43.926 -20.537   3.662  1.00  0.00     0.038 A 
HETATM   13  C   UNL     1      43.508 -20.079   2.421  1.00  0.00     0.066 A 
HETATM   14  C   UNL     1      43.262 -18.726   2.202  1.00  0.00     0.046 A 
BRANCH  13  15
HETATM   15  O   UNL     1      43.322 -20.919   1.367  1.00  0.00    -0.361 OA
HETATM   16  H   UNL     1      43.778 -20.562   0.583  1.00  0.00     0.217 HD
ENDBRANCH  13  15
ENDBRANCH   7   8
ENDBRANCH   3   7
BRANCH   1  17
HETATM   17  C   UNL     1      40.815 -13.824   0.936  1.00  0.00     0.127 C 
BRANCH  17  18
HETATM   18  N   UNL     1      40.526 -14.414  -0.366  1.00  0.00    -0.376 N 
HETATM   19  H   UNL     1      41.371 -14.577  -0.926  1.00  0.00     0.161 HD
BRANCH  18  20
HETATM   20  C   UNL     1      39.480 -14.059  -1.216  1.00  0.00     0.100 A 
HETATM   21  C   UNL     1      39.295 -14.798  -2.397  1.00  0.00     0.048 A 
HETATM   22  C   UNL     1      38.244 -14.499  -3.261  1.00  0.00     0.005 A 
HETATM   23  C   UNL     1      37.373 -13.470  -2.942  1.00  0.00     0.017 A 
HETATM   24  C   UNL     1      37.568 -12.775  -1.760  1.00  0.00     0.089 A 
HETATM   25  N   UNL     1      38.588 -13.093  -0.943  1.00  0.00    -0.353 N 
HETATM   26  H   UNL     1      38.680 -12.556  -0.089  1.00  0.00     0.166 HD
ENDBRANCH  18  20
ENDBRANCH  17  18
ENDBRANCH   1  17
TORSDOF 6
ENDMDL
MODEL 3
REMARK VINA RESULT:      -7.8      2.628      3.511
REMARK  6 active torsions:
REMARK  status: ('A' for Active; 'I' for Inactive)
REMARK    1  A    between atoms: C_3  and  N_4 
REMARK    2  A    between atoms: N_4  and  C_5 
REMARK    3  A    between atoms: C_5  and  C_6 
REMARK    4  A    between atoms: N_8  and  C_10 
REMARK    5  A    between atoms: C_10  and  C_11 
REMARK    6  A    between atoms: C_16  and  O_17 
ROOT
HETATM    1  C   UNL     1      40.821 -14.082   1.963  1.00  0.00     0.031 C 
HETATM    2  C   UNL     1      42.095 -14.834   1.571  1.00  0.00     0.241 C 
HETATM    3  N   UNL     1      42.063 -16.132   2.351  1.00  0.00    -0.067 N 
HETATM    4  H   UNL     1      42.074 -16.898   1.658  1.00  0.00     0.280 HD
HETATM    5  C   UNL     1      40.739 -16.218   3.072  1.00  0.00     0.235 C 
HETATM    6  C   UNL     1      39.867 -15.216   2.337  1.00  0.00     0.035 C 
ENDROOT
BRANCH   3   7
HETATM    7  C   UNL     1      43.279 -16.374   3.212  1.00  0.00     0.274 C 
BRANCH   7   8
HETATM    8  C   UNL     1      43.529 -17.826   3.508  1.00  0.00    -0.013 A 
HETATM    9  C   UNL     1      43.845 -18.302   4.792  1.00  0.00     0.019 A 
HETATM   10 BR   UNL     1      44.011 -17.128   6.276  1.00  0.00    -0.051 Br
HETATM   11  C   UNL     1      44.066 -19.665   5.015  1.00  0.00     0.022 A 
HETATM   12  C   UNL     1      43.987 -20.573   3.959  1.00  0.00     0.038 A 
HETATM   13  C   UNL     1      43.686 -20.107   2.688  1.00  0.00     0.066 A 
HETATM   14  C   UNL     1      43.456 -18.754   2.456  1.00  0.00     0.046 A 
BRANCH  13  15
HETATM   15  O   UNL     1      43.606 -20.940   1.615  1.00  0.00    -0.361 OA
HETATM   16  H   UNL     1      42.988 -21.666   1.813  1.00  0.00     0.217 HD
ENDBRANCH  13  15
ENDBRANCH   7   8
ENDBRANCH   3   7
BRANCH   1  17
HETATM   17  C   UNL     1      41.030 -13.078   3.114  1.00  0.00     0.127 C 
BRANCH  17  18
HETATM   18  N   UNL     1      42.439 -12.714   3.205  1.00  0.00    -0.376 N 
HETATM   19  H   UNL     1      43.023 -13.210   2.523  1.00  0.00     0.161 HD
BRANCH  18  20
HETATM   20  C   UNL     1      43.167 -12.530   4.379  1.00  0.00     0.100 A 
HETATM   21  C   UNL     1      43.016 -13.467   5.416  1.00  0.00     0.048 A 
HETATM   22  C   UNL     1      43.746 -13.342   6.595  1.00  0.00     0.005 A 
HETATM   23  C   UNL     1      44.633 -12.286   6.737  1.00  0.00     0.017 A 
HETATM   24  C   UNL     1      44.776 -11.392   5.689  1.00  0.00     0.089 A 
HETATM   25  N   UNL     1      44.062 -11.545   4.560  1.00  0.00    -0.353 N 
HETATM   26  H   UNL     1      44.210 -10.865   3.824  1.00  0.00     0.166 HD
ENDBRANCH  18  20
ENDBRANCH  17  18
ENDBRANCH   1  17
TORSDOF 6
ENDMDL
MODEL 4
REMARK VINA RESULT:      -7.7      5.888      8.239
REMARK  6 active torsions:
REMARK  status: ('A' for Active; 'I' for Inactive)
REMARK    1  A    between atoms: C_3  and  N_4 
REMARK    2  A    between atoms: N_4  and  C_5 
REMARK    3  A    between atoms: C_5  and  C_6 
REMARK    4  A    between atoms: N_8  and  C_10 
REMARK    5  A    between atoms: C_10  and  C_11 
REMARK    6  A    between atoms: C_16  and  O_17 
ROOT
HETATM    1  C   UNL     1      41.231 -14.931   3.253  1.00  0.00     0.031 C 
HETATM    2  C   UNL     1      40.705 -13.718   2.481  1.00  0.00     0.241 C 
HETATM    3  N   UNL     1      39.961 -14.282   1.289  1.00  0.00    -0.067 N 
HETATM    4  H   UNL     1      38.985 -13.948   1.360  1.00  0.00     0.280 HD
HETATM    5  C   UNL     1      39.916 -15.784   1.424  1.00  0.00     0.235 C 
HETATM    6  C   UNL     1      40.219 -16.019   2.893  1.00  0.00     0.035 C 
ENDROOT
BRANCH   3   7
HETATM    7  C   UNL     1      40.444 -13.772  -0.048  1.00  0.00     0.274 C 
BRANCH   7   8
HETATM    8  C   UNL     1      39.344 -13.585  -1.055  1.00  0.00    -0.013 A 
HETATM    9  C   UNL     1      38.396 -12.551  -0.970  1.00  0.00     0.019 A 
HETATM   10 BR   UNL     1      38.408 -11.304   0.462  1.00  0.00    -0.051 Br
HETATM   11  C   UNL     1      37.393 -12.419  -1.936  1.00  0.00     0.022 A 
HETATM   12  C   UNL     1      37.315 -13.322  -2.997  1.00  0.00     0.038 A 
HETATM   13  C   UNL     1      38.242 -14.351  -3.080  1.00  0.00     0.066 A 
HETATM   14  C   UNL     1      39.249 -14.486  -2.128  1.00  0.00     0.046 A 
BRANCH  13  15
HETATM   15  O   UNL     1      38.212 -15.270  -4.082  1.00  0.00    -0.361 OA
HETATM   16  H   UNL     1      38.910 -15.933  -3.936  1.00  0.00     0.217 HD
ENDBRANCH  13  15
ENDBRANCH   7   8
ENDBRANCH   3   7
BRANCH   1  17
HETATM   17  C   UNL     1      42.676 -15.318   2.878  1.00  0.00     0.127 C 
BRANCH  17  18
HETATM   18  N   UNL     1      43.207 -16.259   3.858  1.00  0.00    -0.376 N 
HETATM   19  H   UNL     1      44.002 -15.879   4.384  1.00  0.00     0.161 HD
BRANCH  18  20
HETATM   20  C   UNL     1      43.401 -17.625   3.666  1.00  0.00     0.100 A 
HETATM   21  C   UNL     1      43.069 -18.181   2.419  1.00  0.00     0.048 A 
HETATM   22  C   UNL     1      43.275 -19.537   2.171  1.00  0.00     0.005 A 
HETATM   23  C   UNL     1      43.820 -20.334   3.164  1.00  0.00     0.017 A 
HETATM   24  C   UNL     1      44.158 -19.753   4.375  1.00  0.00     0.089 A 
HETATM   25  N   UNL     1      43.953 -18.439   4.581  1.00  0.00    -0.353 N 
HETATM   26  H   UNL     1      44.224 -18.066   5.482  1.00  0.00     0.166 HD
ENDBRANCH  18  20
ENDBRANCH  17  18
ENDBRANCH   1  17
TORSDOF 6
ENDMDL
MODEL 5
REMARK VINA RESULT:      -7.3      3.367      8.202
REMARK  6 active torsions:
REMARK  status: ('A' for Active; 'I' for Inactive)
REMARK    1  A    between atoms: C_3  and  N_4 
REMARK    2  A    between atoms: N_4  and  C_5 
REMARK    3  A    between atoms: C_5  and  C_6 
REMARK    4  A    between atoms: N_8  and  C_10 
REMARK    5  A    between atoms: C_10  and  C_11 
REMARK    6  A    between atoms: C_16  and  O_17 
ROOT
HETATM    1  C   UNL     1      42.059 -15.668   5.983  1.00  0.00     0.031 C 
HETATM    2  C   UNL     1      43.076 -14.642   6.490  1.00  0.00     0.241 C 
HETATM    3  N   UNL     1      42.353 -13.311   6.487  1.00  0.00    -0.067 N 
HETATM    4  H   UNL     1      42.365 -12.963   7.459  1.00  0.00     0.280 HD
HETATM    5  C   UNL     1      40.907 -13.558   6.132  1.00  0.00     0.235 C 
HETATM    6  C   UNL     1      40.725 -15.043   6.390  1.00  0.00     0.035 C 
ENDROOT
BRANCH   3   7
HETATM    7  C   UNL     1      43.036 -12.231   5.684  1.00  0.00     0.274 C 
BRANCH   7   8
HETATM    8  C   UNL     1      43.851 -11.283   6.518  1.00  0.00    -0.013 A 
HETATM    9  C   UNL     1      43.283 -10.231   7.257  1.00  0.00     0.019 A 
HETATM   10 BR   UNL     1      41.412  -9.899   7.241  1.00  0.00    -0.051 Br
HETATM   11  C   UNL     1      44.086  -9.377   8.019  1.00  0.00     0.022 A 
HETATM   12  C   UNL     1      45.470  -9.553   8.049  1.00  0.00     0.038 A 
HETATM   13  C   UNL     1      46.037 -10.582   7.312  1.00  0.00     0.066 A 
HETATM   14  C   UNL     1      45.246 -11.443   6.556  1.00  0.00     0.046 A 
BRANCH  13  15
HETATM   15  O   UNL     1      47.380 -10.798   7.289  1.00  0.00    -0.361 OA
HETATM   16  H   UNL     1      47.813 -10.093   6.774  1.00  0.00     0.217 HD
ENDBRANCH  13  15
ENDBRANCH   7   8
ENDBRANCH   3   7
BRANCH   1  17
HETATM   17  C   UNL     1      42.154 -15.929   4.466  1.00  0.00     0.127 C 
BRANCH  17  18
HETATM   18  N   UNL     1      43.392 -16.635   4.160  1.00  0.00    -0.376 N 
HETATM   19  H   UNL     1      44.032 -16.084   3.578  1.00  0.00     0.161 HD
BRANCH  18  20
HETATM   20  C   UNL     1      43.507 -17.980   3.814  1.00  0.00     0.100 A 
HETATM   21  C   UNL     1      43.189 -18.364   2.500  1.00  0.00     0.048 A 
HETATM   22  C   UNL     1      43.319 -19.693   2.100  1.00  0.00     0.005 A 
HETATM   23  C   UNL     1      43.775 -20.635   3.008  1.00  0.00     0.017 A 
HETATM   24  C   UNL     1      44.103 -20.221   4.288  1.00  0.00     0.089 A 
HETATM   25  N   UNL     1      43.973 -18.930   4.642  1.00  0.00    -0.353 N 
HETATM   26  H   UNL     1      44.232 -18.683   5.589  1.00  0.00     0.166 HD
ENDBRANCH  18  20
ENDBRANCH  17  18
ENDBRANCH   1  17
TORSDOF 6
ENDMDL
MODEL 6
REMARK VINA RESULT:      -7.1      2.498      3.733
REMARK  6 active torsions:
REMARK  status: ('A' for Active; 'I' for Inactive)
REMARK    1  A    between atoms: C_3  and  N_4 
REMARK    2  A    between atoms: N_4  and  C_5 
REMARK    3  A    between atoms: C_5  and  C_6 
REMARK    4  A    between atoms: N_8  and  C_10 
REMARK    5  A    between atoms: C_10  and  C_11 
REMARK    6  A    between atoms: C_16  and  O_17 
ROOT
HETATM    1  C   UNL     1      42.096 -12.551   4.112  1.00  0.00     0.031 C 
HETATM    2  C   UNL     1      42.395 -13.967   3.614  1.00  0.00     0.241 C 
HETATM    3  N   UNL     1      41.046 -14.603   3.351  1.00  0.00    -0.067 N 
HETATM    4  H   UNL     1      41.028 -14.865   2.352  1.00  0.00     0.280 HD
HETATM    5  C   UNL     1      39.980 -13.552   3.543  1.00  0.00     0.235 C 
HETATM    6  C   UNL     1      40.749 -12.245   3.457  1.00  0.00     0.035 C 
ENDROOT
BRANCH   3   7
HETATM    7  C   UNL     1      40.811 -15.898   4.091  1.00  0.00     0.274 C 
BRANCH   7   8
HETATM    8  C   UNL     1      41.979 -16.336   4.928  1.00  0.00    -0.013 A 
HETATM    9  C   UNL     1      43.040 -17.105   4.418  1.00  0.00     0.019 A 
HETATM   10 BR   UNL     1      43.071 -17.685   2.610  1.00  0.00    -0.051 Br
HETATM   11  C   UNL     1      44.106 -17.485   5.240  1.00  0.00     0.022 A 
HETATM   12  C   UNL     1      44.126 -17.114   6.584  1.00  0.00     0.038 A 
HETATM   13  C   UNL     1      43.076 -16.364   7.095  1.00  0.00     0.066 A 
HETATM   14  C   UNL     1      42.014 -15.974   6.284  1.00  0.00     0.046 A 
BRANCH  13  15
HETATM   15  O   UNL     1      43.031 -15.982   8.400  1.00  0.00    -0.361 OA
HETATM   16  H   UNL     1      42.106 -15.980   8.705  1.00  0.00     0.217 HD
ENDBRANCH  13  15
ENDBRANCH   7   8
ENDBRANCH   3   7
BRANCH   1  17
HETATM   17  C   UNL     1      42.048 -12.437   5.649  1.00  0.00     0.127 C 
BRANCH  17  18
HETATM   18  N   UNL     1      43.366 -12.710   6.208  1.00  0.00    -0.376 N 
HETATM   19  H   UNL     1      43.477 -13.685   6.507  1.00  0.00     0.161 HD
BRANCH  18  20
HETATM   20  C   UNL     1      44.078 -11.885   7.076  1.00  0.00     0.100 A 
HETATM   21  C   UNL     1      45.389 -11.516   6.728  1.00  0.00     0.048 A 
HETATM   22  C   UNL     1      46.128 -10.668   7.550  1.00  0.00     0.005 A 
HETATM   23  C   UNL     1      45.555 -10.180   8.714  1.00  0.00     0.017 A 
HETATM   24  C   UNL     1      44.254 -10.543   9.018  1.00  0.00     0.089 A 
HETATM   25  N   UNL     1      43.564 -11.358   8.200  1.00  0.00    -0.353 N 
HETATM   26  H   UNL     1      42.615 -11.586   8.469  1.00  0.00     0.166 HD
ENDBRANCH  18  20
ENDBRANCH  17  18
ENDBRANCH   1  17
TORSDOF 6
ENDMDL
MODEL 7
REMARK VINA RESULT:      -7.1      4.087      7.358
REMARK  6 active torsions:
REMARK  status: ('A' for Active; 'I' for Inactive)
REMARK    1  A    between atoms: C_3  and  N_4 
REMARK    2  A    between atoms: N_4  and  C_5 
REMARK    3  A    between atoms: C_5  and  C_6 
REMARK    4  A    between atoms: N_8  and  C_10 
REMARK    5  A    between atoms: C_10  and  C_11 
REMARK    6  A    between atoms: C_16  and  O_17 
ROOT
HETATM    1  C   UNL     1      40.947 -15.651   1.473  1.00  0.00     0.031 C 
HETATM    2  C   UNL     1      39.948 -15.544   2.628  1.00  0.00     0.241 C 
HETATM    3  N   UNL     1      39.288 -14.189   2.475  1.00  0.00    -0.067 N 
HETATM    4  H   UNL     1      38.276 -14.362   2.362  1.00  0.00     0.280 HD
HETATM    5  C   UNL     1      39.769 -13.570   1.185  1.00  0.00     0.235 C 
HETATM    6  C   UNL     1      40.322 -14.751   0.407  1.00  0.00     0.035 C 
ENDROOT
BRANCH   3   7
HETATM    7  C   UNL     1      39.393 -13.302   3.691  1.00  0.00     0.274 C 
BRANCH   7   8
HETATM    8  C   UNL     1      40.807 -13.040   4.127  1.00  0.00    -0.013 A 
HETATM    9  C   UNL     1      41.417 -13.719   5.196  1.00  0.00     0.019 A 
HETATM   10 BR   UNL     1      40.482 -15.024   6.211  1.00  0.00    -0.051 Br
HETATM   11  C   UNL     1      42.738 -13.439   5.560  1.00  0.00     0.022 A 
HETATM   12  C   UNL     1      43.468 -12.470   4.871  1.00  0.00     0.038 A 
HETATM   13  C   UNL     1      42.867 -11.789   3.822  1.00  0.00     0.066 A 
HETATM   14  C   UNL     1      41.556 -12.066   3.446  1.00  0.00     0.046 A 
BRANCH  13  15
HETATM   15  O   UNL     1      43.521 -10.825   3.119  1.00  0.00    -0.361 OA
HETATM   16  H   UNL     1      44.477 -11.016   3.119  1.00  0.00     0.217 HD
ENDBRANCH  13  15
ENDBRANCH   7   8
ENDBRANCH   3   7
BRANCH   1  17
HETATM   17  C   UNL     1      42.376 -15.215   1.854  1.00  0.00     0.127 C 
BRANCH  17  18
HETATM   18  N   UNL     1      43.271 -16.367   1.825  1.00  0.00    -0.376 N 
HETATM   19  H   UNL     1      43.179 -16.920   0.965  1.00  0.00     0.161 HD
BRANCH  18  20
HETATM   20  C   UNL     1      43.544 -17.223   2.889  1.00  0.00     0.100 A 
HETATM   21  C   UNL     1      43.457 -16.717   4.197  1.00  0.00     0.048 A 
HETATM   22  C   UNL     1      43.692 -17.545   5.293  1.00  0.00     0.005 A 
HETATM   23  C   UNL     1      44.004 -18.879   5.084  1.00  0.00     0.017 A 
HETATM   24  C   UNL     1      44.060 -19.353   3.784  1.00  0.00     0.089 A 
HETATM   25  N   UNL     1      43.821 -18.530   2.747  1.00  0.00    -0.353 N 
HETATM   26  H   UNL     1      43.870 -18.932   1.819  1.00  0.00     0.166 HD
ENDBRANCH  18  20
ENDBRANCH  17  18
ENDBRANCH   1  17
TORSDOF 6
ENDMDL
MODEL 8
REMARK VINA RESULT:      -7.0      2.285      3.391
REMARK  6 active torsions:
REMARK  status: ('A' for Active; 'I' for Inactive)
REMARK    1  A    between atoms: C_3  and  N_4 
REMARK    2  A    between atoms: N_4  and  C_5 
REMARK    3  A    between atoms: C_5  and  C_6 
REMARK    4  A    between atoms: N_8  and  C_10 
REMARK    5  A    between atoms: C_10  and  C_11 
REMARK    6  A    between atoms: C_16  and  O_17 
ROOT
HETATM    1  C   UNL     1      41.818 -11.901   4.235  1.00  0.00     0.031 C 
HETATM    2  C   UNL     1      42.390 -13.313   4.095  1.00  0.00     0.241 C 
HETATM    3  N   UNL     1      41.204 -14.211   3.810  1.00  0.00    -0.067 N 
HETATM    4  H   UNL     1      41.381 -14.659   2.896  1.00  0.00     0.280 HD
HETATM    5  C   UNL     1      39.982 -13.341   3.637  1.00  0.00     0.235 C 
HETATM    6  C   UNL     1      40.560 -11.964   3.367  1.00  0.00     0.035 C 
ENDROOT
BRANCH   3   7
HETATM    7  C   UNL     1      41.043 -15.359   4.776  1.00  0.00     0.274 C 
BRANCH   7   8
HETATM    8  C   UNL     1      42.162 -16.360   4.717  1.00  0.00    -0.013 A 
HETATM    9  C   UNL     1      43.002 -16.636   5.809  1.00  0.00     0.019 A 
HETATM   10 BR   UNL     1      42.805 -15.733   7.469  1.00  0.00    -0.051 Br
HETATM   11  C   UNL     1      44.029 -17.579   5.702  1.00  0.00     0.022 A 
HETATM   12  C   UNL     1      44.241 -18.254   4.499  1.00  0.00     0.038 A 
HETATM   13  C   UNL     1      43.423 -17.978   3.414  1.00  0.00     0.066 A 
HETATM   14  C   UNL     1      42.392 -17.047   3.513  1.00  0.00     0.046 A 
BRANCH  13  15
HETATM   15  O   UNL     1      43.586 -18.593   2.212  1.00  0.00    -0.361 OA
HETATM   16  H   UNL     1      42.713 -18.790   1.827  1.00  0.00     0.217 HD
ENDBRANCH  13  15
ENDBRANCH   7   8
ENDBRANCH   3   7
BRANCH   1  17
HETATM   17  C   UNL     1      41.513 -11.503   5.693  1.00  0.00     0.127 C 
BRANCH  17  18
HETATM   18  N   UNL     1      42.440 -12.176   6.595  1.00  0.00    -0.376 N 
HETATM   19  H   UNL     1      41.964 -12.764   7.288  1.00  0.00     0.161 HD
BRANCH  18  20
HETATM   20  C   UNL     1      43.575 -11.615   7.177  1.00  0.00     0.100 A 
HETATM   21  C   UNL     1      44.788 -11.666   6.469  1.00  0.00     0.048 A 
HETATM   22  C   UNL     1      45.941 -11.091   6.998  1.00  0.00     0.005 A 
HETATM   23  C   UNL     1      45.882 -10.457   8.229  1.00  0.00     0.017 A 
HETATM   24  C   UNL     1      44.667 -10.404   8.892  1.00  0.00     0.089 A 
HETATM   25  N   UNL     1      43.570 -10.962   8.351  1.00  0.00    -0.353 N 
HETATM   26  H   UNL     1      42.708 -10.889   8.877  1.00  0.00     0.166 HD
ENDBRANCH  18  20
ENDBRANCH  17  18
ENDBRANCH   1  17
TORSDOF 6
ENDMDL
MODEL 9
REMARK VINA RESULT:      -7.0      4.627      8.346
REMARK  6 active torsions:
REMARK  status: ('A' for Active; 'I' for Inactive)
REMARK    1  A    between atoms: C_3  and  N_4 
REMARK    2  A    between atoms: N_4  and  C_5 
REMARK    3  A    between atoms: C_5  and  C_6 
REMARK    4  A    between atoms: N_8  and  C_10 
REMARK    5  A    between atoms: C_10  and  C_11 
REMARK    6  A    between atoms: C_16  and  O_17 
ROOT
HETATM    1  C   UNL     1      40.952 -16.403   2.676  1.00  0.00     0.031 C 
HETATM    2  C   UNL     1      40.900 -15.823   4.092  1.00  0.00     0.241 C 
HETATM    3  N   UNL     1      40.390 -14.405   3.936  1.00  0.00    -0.067 N 
HETATM    4  H   UNL     1      39.518 -14.340   4.486  1.00  0.00     0.280 HD
HETATM    5  C   UNL     1      40.008 -14.195   2.491  1.00  0.00     0.235 C 
HETATM    6  C   UNL     1      39.868 -15.606   1.950  1.00  0.00     0.035 C 
ENDROOT
BRANCH   3   7
HETATM    7  C   UNL     1      41.294 -13.348   4.522  1.00  0.00     0.274 C 
BRANCH   7   8
HETATM    8  C   UNL     1      40.571 -12.096   4.933  1.00  0.00    -0.013 A 
HETATM    9  C   UNL     1      40.634 -10.900   4.200  1.00  0.00     0.019 A 
HETATM   10 BR   UNL     1      41.675 -10.755   2.618  1.00  0.00    -0.051 Br
HETATM   11  C   UNL     1      39.939  -9.762   4.625  1.00  0.00     0.022 A 
HETATM   12  C   UNL     1      39.180  -9.798   5.795  1.00  0.00     0.038 A 
HETATM   13  C   UNL     1      39.123 -10.974   6.529  1.00  0.00     0.066 A 
HETATM   14  C   UNL     1      39.804 -12.114   6.110  1.00  0.00     0.046 A 
BRANCH  13  15
HETATM   15  O   UNL     1      38.411 -11.069   7.684  1.00  0.00    -0.361 OA
HETATM   16  H   UNL     1      37.833 -11.853   7.645  1.00  0.00     0.217 HD
ENDBRANCH  13  15
ENDBRANCH   7   8
ENDBRANCH   3   7
BRANCH   1  17
HETATM   17  C   UNL     1      42.335 -16.268   2.008  1.00  0.00     0.127 C 
BRANCH  17  18
HETATM   18  N   UNL     1      43.362 -16.836   2.873  1.00  0.00    -0.376 N 
HETATM   19  H   UNL     1      44.282 -16.403   2.738  1.00  0.00     0.161 HD
BRANCH  18  20
HETATM   20  C   UNL     1      43.536 -18.188   3.165  1.00  0.00     0.100 A 
HETATM   21  C   UNL     1      43.279 -19.131   2.156  1.00  0.00     0.048 A 
HETATM   22  C   UNL     1      43.468 -20.491   2.393  1.00  0.00     0.005 A 
HETATM   23  C   UNL     1      43.922 -20.908   3.634  1.00  0.00     0.017 A 
HETATM   24  C   UNL     1      44.188 -19.953   4.601  1.00  0.00     0.089 A 
HETATM   25  N   UNL     1      44.002 -18.647   4.339  1.00  0.00    -0.353 N 
HETATM   26  H   UNL     1      44.218 -17.992   5.080  1.00  0.00     0.166 HD
ENDBRANCH  18  20
ENDBRANCH  17  18
ENDBRANCH   1  17
TORSDOF 6
ENDMDL
MODEL 10
REMARK VINA RESULT:      -6.9      6.190      8.761
REMARK  6 active torsions:
REMARK  status: ('A' for Active; 'I' for Inactive)
REMARK    1  A    between atoms: C_3  and  N_4 
REMARK    2  A    between atoms: N_4  and  C_5 
REMARK    3  A    between atoms: C_5  and  C_6 
REMARK    4  A    between atoms: N_8  and  C_10 
REMARK    5  A    between atoms: C_10  and  C_11 
REMARK    6  A    between atoms: C_16  and  O_17 
ROOT
HETATM    1  C   UNL     1      42.215 -14.713   2.645  1.00  0.00     0.031 C 
HETATM    2  C   UNL     1      41.856 -13.697   1.559  1.00  0.00     0.241 C 
HETATM    3  N   UNL     1      40.374 -13.875   1.304  1.00  0.00    -0.067 N 
HETATM    4  H   UNL     1      39.924 -12.967   1.508  1.00  0.00     0.280 HD
HETATM    5  C   UNL     1      39.834 -14.862   2.311  1.00  0.00     0.235 C 
HETATM    6  C   UNL     1      40.895 -14.877   3.398  1.00  0.00     0.035 C 
ENDROOT
BRANCH   3   7
HETATM    7  C   UNL     1      40.017 -14.166  -0.134  1.00  0.00     0.274 C 
BRANCH   7   8
HETATM    8  C   UNL     1      39.060 -13.172  -0.731  1.00  0.00    -0.013 A 
HETATM    9  C   UNL     1      38.389 -13.391  -1.945  1.00  0.00     0.019 A 
HETATM   10 BR   UNL     1      38.659 -14.973  -2.962  1.00  0.00    -0.051 Br
HETATM   11  C   UNL     1      37.506 -12.435  -2.457  1.00  0.00     0.022 A 
HETATM   12  C   UNL     1      37.287 -11.240  -1.770  1.00  0.00     0.038 A 
HETATM   13  C   UNL     1      37.956 -11.014  -0.576  1.00  0.00     0.066 A 
HETATM   14  C   UNL     1      38.830 -11.963  -0.054  1.00  0.00     0.046 A 
BRANCH  13  15
HETATM   15  O   UNL     1      37.796  -9.865   0.134  1.00  0.00    -0.361 OA
HETATM   16  H   UNL     1      37.435 -10.076   1.015  1.00  0.00     0.217 HD
ENDBRANCH  13  15
ENDBRANCH   7   8
ENDBRANCH   3   7
BRANCH   1  17
HETATM   17  C   UNL     1      42.749 -16.048   2.087  1.00  0.00     0.127 C 
BRANCH  17  18
HETATM   18  N   UNL     1      43.500 -16.753   3.119  1.00  0.00    -0.376 N 
HETATM   19  H   UNL     1      44.417 -16.332   3.301  1.00  0.00     0.161 HD
BRANCH  18  20
HETATM   20  C   UNL     1      43.596 -18.135   3.266  1.00  0.00     0.100 A 
HETATM   21  C   UNL     1      43.253 -18.952   2.175  1.00  0.00     0.048 A 
HETATM   22  C   UNL     1      43.364 -20.338   2.266  1.00  0.00     0.005 A 
HETATM   23  C   UNL     1      43.825 -20.907   3.442  1.00  0.00     0.017 A 
HETATM   24  C   UNL     1      44.177 -20.075   4.492  1.00  0.00     0.089 A 
HETATM   25  N   UNL     1      44.066 -18.740   4.370  1.00  0.00    -0.353 N 
HETATM   26  H   UNL     1      44.342 -18.179   5.167  1.00  0.00     0.166 HD
ENDBRANCH  18  20
ENDBRANCH  17  18
ENDBRANCH   1  17
TORSDOF 6
ENDMDL
