MODEL 1
REMARK VINA RESULT:      -9.4      0.000      0.000
REMARK  8 active torsions:
REMARK  status: ('A' for Active; 'I' for Inactive)
REMARK    1  A    between atoms: C_7  and  S_8 
REMARK    2  A    between atoms: S_8  and  N_9 
REMARK    3  A    between atoms: N_9  and  C_10 
REMARK    4  A    between atoms: C_19  and  N_20 
REMARK    5  A    between atoms: C_25  and  N_26 
REMARK    6  A    between atoms: C_30  and  S_31 
REMARK    7  A    between atoms: S_31  and  N_32 
REMARK    8  A    between atoms: N_32  and  C_33 
ROOT
HETATM    1  C   UNL     1      41.804 -15.643   4.663  1.00  0.00     0.041 A 
HETATM    2  C   UNL     1      41.221 -14.554   4.037  1.00  0.00     0.030 A 
HETATM    3  C   UNL     1      41.588 -13.205   4.234  1.00  0.00     0.025 A 
HETATM    4  C   UNL     1      40.697 -12.366   3.414  1.00  0.00     0.025 C 
HETATM    5  C   UNL     1      39.953 -13.215   2.567  1.00  0.00     0.030 C 
HETATM    6  C   UNL     1      39.075 -12.794   1.581  1.00  0.00     0.041 C 
HETATM    7  C   UNL     1      38.887 -11.420   1.453  1.00  0.00     0.077 C 
HETATM    8  C   UNL     1      39.483 -10.530   2.361  1.00  0.00     0.061 C 
HETATM    9  C   UNL     1      40.375 -11.010   3.345  1.00  0.00     0.116 C 
HETATM   10  C   UNL     1      40.223 -14.606   2.958  1.00  0.00     0.194 C 
HETATM   11  O   UNL     1      39.737 -15.603   2.471  1.00  0.00    -0.287 OA
HETATM   12  C   UNL     1      42.720 -12.992   5.024  1.00  0.00     0.116 A 
HETATM   13  C   UNL     1      43.350 -14.069   5.687  1.00  0.00     0.062 A 
HETATM   14  C   UNL     1      42.882 -15.381   5.502  1.00  0.00     0.082 A 
ENDROOT
BRANCH   7  15
HETATM   15  S   UNL     1      37.789 -10.803   0.197  1.00  0.00     0.241 S 
HETATM   16  O   UNL     1      36.498 -10.615   0.818  1.00  0.00    -0.206 OA
HETATM   17  O   UNL     1      38.463  -9.742  -0.513  1.00  0.00    -0.206 OA
BRANCH  15  18
HETATM   18  N   UNL     1      37.633 -12.154  -0.802  1.00  0.00    -0.211 NA
HETATM   19  H   UNL     1      36.704 -12.556  -0.656  1.00  0.00     0.140 HD
BRANCH  18  20
HETATM   20  C   UNL     1      38.040 -12.056  -2.228  1.00  0.00     0.071 C 
HETATM   21  C   UNL     1      39.524 -11.714  -2.382  1.00  0.00     0.020 C 
HETATM   22  C   UNL     1      40.444 -12.832  -1.897  1.00  0.00     0.002 C 
HETATM   23  C   UNL     1      40.131 -14.150  -2.597  1.00  0.00     0.000 C 
HETATM   24  C   UNL     1      38.660 -14.526  -2.456  1.00  0.00     0.002 C 
HETATM   25  C   UNL     1      37.736 -13.398  -2.917  1.00  0.00     0.020 C 
ENDBRANCH  18  20
ENDBRANCH  15  18
ENDBRANCH   7  15
BRANCH   9  26
HETATM   26  N   UNL     1      40.786 -10.065   4.373  1.00  0.00    -0.115 N 
HETATM   27  O   UNL     1      40.319 -10.238   5.506  1.00  0.00    -0.532 OA
HETATM   28  O   UNL     1      41.529  -9.136   4.033  1.00  0.00    -0.532 OA
ENDBRANCH   9  26
BRANCH  12  29
HETATM   29  N   UNL     1      43.437 -11.725   5.017  1.00  0.00    -0.115 N 
HETATM   30  O   UNL     1      43.988 -11.406   3.955  1.00  0.00    -0.532 OA
HETATM   31  O   UNL     1      43.504 -11.096   6.079  1.00  0.00    -0.532 OA
ENDBRANCH  12  29
BRANCH  14  32
HETATM   32  S   UNL     1      43.735 -16.721   6.295  1.00  0.00     0.259 S 
HETATM   33  O   UNL     1      45.145 -16.419   6.207  1.00  0.00    -0.201 OA
HETATM   34  O   UNL     1      43.084 -17.008   7.551  1.00  0.00    -0.201 OA
BRANCH  32  35
HETATM   35  N   UNL     1      43.460 -17.996   5.226  1.00  0.00    -0.311 N 
HETATM   36  H   UNL     1      42.534 -17.891   4.806  1.00  0.00     0.172 HD
BRANCH  35  37
HETATM   37  C   UNL     1      44.539 -18.436   4.308  1.00  0.00     0.093 C 
HETATM   38  C   UNL     1      44.738 -19.954   4.348  1.00  0.00     0.026 C 
HETATM   39  C   UNL     1      43.540 -20.721   3.790  1.00  0.00     0.002 C 
HETATM   40  C   UNL     1      43.203 -20.267   2.372  1.00  0.00     0.000 C 
HETATM   41  C   UNL     1      42.998 -18.757   2.295  1.00  0.00     0.002 C 
HETATM   42  C   UNL     1      44.184 -17.990   2.880  1.00  0.00     0.026 C 
ENDBRANCH  35  37
ENDBRANCH  32  35
ENDBRANCH  14  32
TORSDOF 8
ENDMDL
MODEL 2
REMARK VINA RESULT:      -9.4      4.355      8.176
REMARK  8 active torsions:
REMARK  status: ('A' for Active; 'I' for Inactive)
REMARK    1  A    between atoms: C_7  and  S_8 
REMARK    2  A    between atoms: S_8  and  N_9 
REMARK    3  A    between atoms: N_9  and  C_10 
REMARK    4  A    between atoms: C_19  and  N_20 
REMARK    5  A    between atoms: C_25  and  N_26 
REMARK    6  A    between atoms: C_30  and  S_31 
REMARK    7  A    between atoms: S_31  and  N_32 
REMARK    8  A    between atoms: N_32  and  C_33 
ROOT
HETATM    1  C   UNL     1      44.110 -10.843   7.840  1.00  0.00     0.041 A 
HETATM    2  C   UNL     1      43.347 -11.540   6.918  1.00  0.00     0.030 A 
HETATM    3  C   UNL     1      42.166 -11.064   6.308  1.00  0.00     0.025 A 
HETATM    4  C   UNL     1      41.648 -12.127   5.429  1.00  0.00     0.025 C 
HETATM    5  C   UNL     1      42.626 -13.141   5.344  1.00  0.00     0.030 C 
HETATM    6  C   UNL     1      42.547 -14.264   4.535  1.00  0.00     0.041 C 
HETATM    7  C   UNL     1      41.385 -14.415   3.783  1.00  0.00     0.077 C 
HETATM    8  C   UNL     1      40.314 -13.520   3.935  1.00  0.00     0.061 C 
HETATM    9  C   UNL     1      40.447 -12.388   4.768  1.00  0.00     0.116 C 
HETATM   10  C   UNL     1      43.696 -12.829   6.302  1.00  0.00     0.194 C 
HETATM   11  O   UNL     1      44.686 -13.491   6.524  1.00  0.00    -0.287 OA
HETATM   12  C   UNL     1      41.840  -9.732   6.572  1.00  0.00     0.116 A 
HETATM   13  C   UNL     1      42.585  -8.978   7.506  1.00  0.00     0.062 A 
HETATM   14  C   UNL     1      43.709  -9.543   8.132  1.00  0.00     0.082 A 
ENDROOT
BRANCH   7  15
HETATM   15  S   UNL     1      41.220 -15.822   2.707  1.00  0.00     0.241 S 
HETATM   16  O   UNL     1      39.828 -16.207   2.725  1.00  0.00    -0.206 OA
HETATM   17  O   UNL     1      41.924 -15.539   1.479  1.00  0.00    -0.206 OA
BRANCH  15  18
HETATM   18  N   UNL     1      42.044 -17.008   3.581  1.00  0.00    -0.211 NA
HETATM   19  H   UNL     1      41.480 -17.862   3.573  1.00  0.00     0.140 HD
BRANCH  18  20
HETATM   20  C   UNL     1      43.491 -17.227   3.326  1.00  0.00     0.071 C 
HETATM   21  C   UNL     1      44.256 -17.580   4.604  1.00  0.00     0.020 C 
HETATM   22  C   UNL     1      43.857 -18.938   5.178  1.00  0.00     0.002 C 
HETATM   23  C   UNL     1      44.018 -20.046   4.143  1.00  0.00     0.000 C 
HETATM   24  C   UNL     1      43.261 -19.730   2.858  1.00  0.00     0.002 C 
HETATM   25  C   UNL     1      43.640 -18.360   2.295  1.00  0.00     0.020 C 
ENDBRANCH  18  20
ENDBRANCH  15  18
ENDBRANCH   7  15
BRANCH   9  26
HETATM   26  N   UNL     1      39.235 -11.628   5.038  1.00  0.00    -0.115 N 
HETATM   27  O   UNL     1      38.740 -11.753   6.166  1.00  0.00    -0.532 OA
HETATM   28  O   UNL     1      38.764 -10.954   4.114  1.00  0.00    -0.532 OA
ENDBRANCH   9  26
BRANCH  12  29
HETATM   29  N   UNL     1      40.894  -8.993   5.747  1.00  0.00    -0.115 N 
HETATM   30  O   UNL     1      41.237  -8.767   4.579  1.00  0.00    -0.532 OA
HETATM   31  O   UNL     1      39.857  -8.588   6.284  1.00  0.00    -0.532 OA
ENDBRANCH  12  29
BRANCH  14  32
HETATM   32  S   UNL     1      44.664  -8.550   9.251  1.00  0.00     0.259 S 
HETATM   33  O   UNL     1      45.640  -9.431   9.850  1.00  0.00    -0.201 OA
HETATM   34  O   UNL     1      45.038  -7.326   8.582  1.00  0.00    -0.201 OA
BRANCH  32  35
HETATM   35  N   UNL     1      43.542  -8.199  10.459  1.00  0.00    -0.311 N 
HETATM   36  H   UNL     1      42.609  -8.133  10.044  1.00  0.00     0.172 HD
BRANCH  35  37
HETATM   37  C   UNL     1      43.619  -8.899  11.764  1.00  0.00     0.093 C 
HETATM   38  C   UNL     1      43.215  -7.986  12.925  1.00  0.00     0.026 C 
HETATM   39  C   UNL     1      41.739  -7.595  12.883  1.00  0.00     0.002 C 
HETATM   40  C   UNL     1      40.841  -8.828  12.840  1.00  0.00     0.000 C 
HETATM   41  C   UNL     1      41.214  -9.762  11.693  1.00  0.00     0.002 C 
HETATM   42  C   UNL     1      42.698 -10.130  11.719  1.00  0.00     0.026 C 
ENDBRANCH  35  37
ENDBRANCH  32  35
ENDBRANCH  14  32
TORSDOF 8
ENDMDL
MODEL 3
REMARK VINA RESULT:      -9.1      2.148      2.706
REMARK  8 active torsions:
REMARK  status: ('A' for Active; 'I' for Inactive)
REMARK    1  A    between atoms: C_7  and  S_8 
REMARK    2  A    between atoms: S_8  and  N_9 
REMARK    3  A    between atoms: N_9  and  C_10 
REMARK    4  A    between atoms: C_19  and  N_20 
REMARK    5  A    between atoms: C_25  and  N_26 
REMARK    6  A    between atoms: C_30  and  S_31 
REMARK    7  A    between atoms: S_31  and  N_32 
REMARK    8  A    between atoms: N_32  and  C_33 
ROOT
HETATM    1  C   UNL     1      41.580 -15.881   3.737  1.00  0.00     0.041 A 
HETATM    2  C   UNL     1      41.159 -14.980   2.773  1.00  0.00     0.030 A 
HETATM    3  C   UNL     1      41.385 -13.587   2.801  1.00  0.00     0.025 A 
HETATM    4  C   UNL     1      40.739 -12.996   1.616  1.00  0.00     0.025 C 
HETATM    5  C   UNL     1      40.324 -14.050   0.773  1.00  0.00     0.030 C 
HETATM    6  C   UNL     1      39.760 -13.894  -0.483  1.00  0.00     0.041 C 
HETATM    7  C   UNL     1      39.554 -12.589  -0.922  1.00  0.00     0.077 C 
HETATM    8  C   UNL     1      39.808 -11.501  -0.072  1.00  0.00     0.061 C 
HETATM    9  C   UNL     1      40.388 -11.712   1.198  1.00  0.00     0.116 C 
HETATM   10  C   UNL     1      40.531 -15.318   1.486  1.00  0.00     0.194 C 
HETATM   11  O   UNL     1      40.262 -16.428   1.083  1.00  0.00    -0.287 OA
HETATM   12  C   UNL     1      42.218 -13.127   3.824  1.00  0.00     0.116 A 
HETATM   13  C   UNL     1      42.673 -14.005   4.833  1.00  0.00     0.062 A 
HETATM   14  C   UNL     1      42.345 -15.371   4.780  1.00  0.00     0.082 A 
ENDROOT
BRANCH   7  15
HETATM   15  S   UNL     1      38.852 -12.312  -2.533  1.00  0.00     0.241 S 
HETATM   16  O   UNL     1      39.246 -13.427  -3.364  1.00  0.00    -0.206 OA
HETATM   17  O   UNL     1      37.470 -11.928  -2.366  1.00  0.00    -0.206 OA
BRANCH  15  18
HETATM   18  N   UNL     1      39.755 -10.990  -3.068  1.00  0.00    -0.211 NA
HETATM   19  H   UNL     1      40.413 -11.317  -3.779  1.00  0.00     0.140 HD
BRANCH  18  20
HETATM   20  C   UNL     1      39.057  -9.724  -3.413  1.00  0.00     0.071 C 
HETATM   21  C   UNL     1      38.977  -8.765  -2.222  1.00  0.00     0.020 C 
HETATM   22  C   UNL     1      40.343  -8.233  -1.796  1.00  0.00     0.002 C 
HETATM   23  C   UNL     1      41.066  -7.568  -2.962  1.00  0.00     0.000 C 
HETATM   24  C   UNL     1      41.172  -8.499  -4.164  1.00  0.00     0.002 C 
HETATM   25  C   UNL     1      39.808  -9.054  -4.577  1.00  0.00     0.020 C 
ENDBRANCH  18  20
ENDBRANCH  15  18
ENDBRANCH   7  15
BRANCH   9  26
HETATM   26  N   UNL     1      40.428 -10.568   2.098  1.00  0.00    -0.115 N 
HETATM   27  O   UNL     1      39.664 -10.600   3.071  1.00  0.00    -0.532 OA
HETATM   28  O   UNL     1      41.183  -9.634   1.802  1.00  0.00    -0.532 OA
ENDBRANCH   9  26
BRANCH  12  29
HETATM   29  N   UNL     1      42.843 -11.813   3.776  1.00  0.00    -0.115 N 
HETATM   30  O   UNL     1      43.666 -11.624   2.870  1.00  0.00    -0.532 OA
HETATM   31  O   UNL     1      42.564 -11.011   4.674  1.00  0.00    -0.532 OA
ENDBRANCH  12  29
BRANCH  14  32
HETATM   32  S   UNL     1      42.987 -16.461   6.026  1.00  0.00     0.259 S 
HETATM   33  O   UNL     1      44.357 -16.064   6.252  1.00  0.00    -0.201 OA
HETATM   34  O   UNL     1      42.024 -16.559   7.097  1.00  0.00    -0.201 OA
BRANCH  32  35
HETATM   35  N   UNL     1      43.052 -17.934   5.206  1.00  0.00    -0.311 N 
HETATM   36  H   UNL     1      42.211 -18.039   4.634  1.00  0.00     0.172 HD
BRANCH  35  37
HETATM   37  C   UNL     1      44.321 -18.371   4.575  1.00  0.00     0.093 C 
HETATM   38  C   UNL     1      44.603 -19.855   4.829  1.00  0.00     0.026 C 
HETATM   39  C   UNL     1      43.595 -20.773   4.140  1.00  0.00     0.002 C 
HETATM   40  C   UNL     1      43.527 -20.495   2.642  1.00  0.00     0.000 C 
HETATM   41  C   UNL     1      43.247 -19.024   2.350  1.00  0.00     0.002 C 
HETATM   42  C   UNL     1      44.238 -18.104   3.063  1.00  0.00     0.026 C 
ENDBRANCH  35  37
ENDBRANCH  32  35
ENDBRANCH  14  32
TORSDOF 8
ENDMDL
MODEL 4
REMARK VINA RESULT:      -9.0      4.365      8.029
REMARK  8 active torsions:
REMARK  status: ('A' for Active; 'I' for Inactive)
REMARK    1  A    between atoms: C_7  and  S_8 
REMARK    2  A    between atoms: S_8  and  N_9 
REMARK    3  A    between atoms: N_9  and  C_10 
REMARK    4  A    between atoms: C_19  and  N_20 
REMARK    5  A    between atoms: C_25  and  N_26 
REMARK    6  A    between atoms: C_30  and  S_31 
REMARK    7  A    between atoms: S_31  and  N_32 
REMARK    8  A    between atoms: N_32  and  C_33 
ROOT
HETATM    1  C   UNL     1      43.016 -14.071   4.360  1.00  0.00     0.041 A 
HETATM    2  C   UNL     1      42.887 -12.940   5.149  1.00  0.00     0.030 A 
HETATM    3  C   UNL     1      41.745 -12.112   5.212  1.00  0.00     0.025 A 
HETATM    4  C   UNL     1      42.038 -11.001   6.134  1.00  0.00     0.025 C 
HETATM    5  C   UNL     1      43.258 -11.283   6.786  1.00  0.00     0.030 C 
HETATM    6  C   UNL     1      43.820 -10.520   7.797  1.00  0.00     0.041 C 
HETATM    7  C   UNL     1      43.139  -9.361   8.162  1.00  0.00     0.077 C 
HETATM    8  C   UNL     1      42.001  -8.948   7.451  1.00  0.00     0.061 C 
HETATM    9  C   UNL     1      41.464  -9.765   6.432  1.00  0.00     0.116 C 
HETATM   10  C   UNL     1      43.848 -12.477   6.162  1.00  0.00     0.194 C 
HETATM   11  O   UNL     1      44.907 -12.993   6.444  1.00  0.00    -0.287 OA
HETATM   12  C   UNL     1      40.624 -12.570   4.516  1.00  0.00     0.116 A 
HETATM   13  C   UNL     1      40.703 -13.718   3.696  1.00  0.00     0.062 A 
HETATM   14  C   UNL     1      41.899 -14.452   3.624  1.00  0.00     0.082 A 
ENDROOT
BRANCH   7  15
HETATM   15  S   UNL     1      43.791  -8.342   9.465  1.00  0.00     0.241 S 
HETATM   16  O   UNL     1      44.903  -9.058  10.047  1.00  0.00    -0.206 OA
HETATM   17  O   UNL     1      43.921  -6.994   8.965  1.00  0.00    -0.206 OA
BRANCH  15  18
HETATM   18  N   UNL     1      42.544  -8.415  10.601  1.00  0.00    -0.211 NA
HETATM   19  H   UNL     1      41.797  -7.786  10.298  1.00  0.00     0.140 HD
BRANCH  18  20
HETATM   20  C   UNL     1      42.074  -9.740  11.082  1.00  0.00     0.071 C 
HETATM   21  C   UNL     1      42.718 -10.132  12.414  1.00  0.00     0.020 C 
HETATM   22  C   UNL     1      42.280  -9.236  13.571  1.00  0.00     0.002 C 
HETATM   23  C   UNL     1      40.762  -9.207  13.705  1.00  0.00     0.000 C 
HETATM   24  C   UNL     1      40.088  -8.811  12.397  1.00  0.00     0.002 C 
HETATM   25  C   UNL     1      40.544  -9.690  11.232  1.00  0.00     0.020 C 
ENDBRANCH  18  20
ENDBRANCH  15  18
ENDBRANCH   7  15
BRANCH   9  26
HETATM   26  N   UNL     1      40.418  -9.179   5.607  1.00  0.00    -0.115 N 
HETATM   27  O   UNL     1      40.727  -8.881   4.446  1.00  0.00    -0.532 OA
HETATM   28  O   UNL     1      39.317  -8.979   6.134  1.00  0.00    -0.532 OA
ENDBRANCH   9  26
BRANCH  12  29
HETATM   29  N   UNL     1      39.290 -12.049   4.777  1.00  0.00    -0.115 N 
HETATM   30  O   UNL     1      38.763 -11.394   3.868  1.00  0.00    -0.532 OA
HETATM   31  O   UNL     1      38.810 -12.235   5.901  1.00  0.00    -0.532 OA
ENDBRANCH  12  29
BRANCH  14  32
HETATM   32  S   UNL     1      41.948 -15.927   2.637  1.00  0.00     0.259 S 
HETATM   33  O   UNL     1      40.579 -16.239   2.297  1.00  0.00    -0.201 OA
HETATM   34  O   UNL     1      42.979 -15.782   1.636  1.00  0.00    -0.201 OA
BRANCH  32  35
HETATM   35  N   UNL     1      42.429 -17.089   3.761  1.00  0.00    -0.311 N 
HETATM   36  H   UNL     1      41.839 -17.918   3.664  1.00  0.00     0.172 HD
BRANCH  35  37
HETATM   37  C   UNL     1      43.873 -17.347   3.984  1.00  0.00     0.093 C 
HETATM   38  C   UNL     1      44.193 -17.553   5.467  1.00  0.00     0.026 C 
HETATM   39  C   UNL     1      43.571 -18.829   6.033  1.00  0.00     0.002 C 
HETATM   40  C   UNL     1      43.987 -20.054   5.225  1.00  0.00     0.000 C 
HETATM   41  C   UNL     1      43.682 -19.884   3.740  1.00  0.00     0.002 C 
HETATM   42  C   UNL     1      44.280 -18.593   3.180  1.00  0.00     0.026 C 
ENDBRANCH  35  37
ENDBRANCH  32  35
ENDBRANCH  14  32
TORSDOF 8
ENDMDL
MODEL 5
REMARK VINA RESULT:      -8.8      4.865      8.830
REMARK  8 active torsions:
REMARK  status: ('A' for Active; 'I' for Inactive)
REMARK    1  A    between atoms: C_7  and  S_8 
REMARK    2  A    between atoms: S_8  and  N_9 
REMARK    3  A    between atoms: N_9  and  C_10 
REMARK    4  A    between atoms: C_19  and  N_20 
REMARK    5  A    between atoms: C_25  and  N_26 
REMARK    6  A    between atoms: C_30  and  S_31 
REMARK    7  A    between atoms: S_31  and  N_32 
REMARK    8  A    between atoms: N_32  and  C_33 
ROOT
HETATM    1  C   UNL     1      42.356 -12.950   3.949  1.00  0.00     0.041 A 
HETATM    2  C   UNL     1      42.487 -12.206   5.110  1.00  0.00     0.030 A 
HETATM    3  C   UNL     1      41.503 -11.349   5.647  1.00  0.00     0.025 A 
HETATM    4  C   UNL     1      42.058 -10.721   6.859  1.00  0.00     0.025 C 
HETATM    5  C   UNL     1      43.276 -11.364   7.167  1.00  0.00     0.030 C 
HETATM    6  C   UNL     1      44.049 -11.118   8.290  1.00  0.00     0.041 C 
HETATM    7  C   UNL     1      43.600 -10.125   9.157  1.00  0.00     0.077 C 
HETATM    8  C   UNL     1      42.476  -9.348   8.832  1.00  0.00     0.061 C 
HETATM    9  C   UNL     1      41.719  -9.643   7.677  1.00  0.00     0.116 C 
HETATM   10  C   UNL     1      43.604 -12.279   6.064  1.00  0.00     0.194 C 
HETATM   11  O   UNL     1      44.591 -12.975   5.970  1.00  0.00    -0.287 OA
HETATM   12  C   UNL     1      40.260 -11.376   5.011  1.00  0.00     0.116 A 
HETATM   13  C   UNL     1      40.074 -12.118   3.822  1.00  0.00     0.062 A 
HETATM   14  C   UNL     1      41.125 -12.892   3.303  1.00  0.00     0.082 A 
ENDROOT
BRANCH   7  15
HETATM   15  S   UNL     1      44.531  -9.768  10.629  1.00  0.00     0.241 S 
HETATM   16  O   UNL     1      44.411 -10.919  11.496  1.00  0.00    -0.206 OA
HETATM   17  O   UNL     1      45.812  -9.230  10.238  1.00  0.00    -0.206 OA
BRANCH  15  18
HETATM   18  N   UNL     1      43.590  -8.555  11.333  1.00  0.00    -0.211 NA
HETATM   19  H   UNL     1      42.943  -8.200  10.625  1.00  0.00     0.140 HD
BRANCH  18  20
HETATM   20  C   UNL     1      42.974  -8.793  12.665  1.00  0.00     0.071 C 
HETATM   21  C   UNL     1      43.103  -7.577  13.586  1.00  0.00     0.020 C 
HETATM   22  C   UNL     1      42.290  -6.378  13.102  1.00  0.00     0.002 C 
HETATM   23  C   UNL     1      40.823  -6.744  12.914  1.00  0.00     0.000 C 
HETATM   24  C   UNL     1      40.656  -7.947  11.993  1.00  0.00     0.002 C 
HETATM   25  C   UNL     1      41.489  -9.142  12.460  1.00  0.00     0.020 C 
ENDBRANCH  18  20
ENDBRANCH  15  18
ENDBRANCH   7  15
BRANCH   9  26
HETATM   26  N   UNL     1      40.702  -8.673   7.297  1.00  0.00    -0.115 N 
HETATM   27  O   UNL     1      40.937  -7.985   6.294  1.00  0.00    -0.532 OA
HETATM   28  O   UNL     1      39.706  -8.573   8.023  1.00  0.00    -0.532 OA
ENDBRANCH   9  26
BRANCH  12  29
HETATM   29  N   UNL     1      39.057 -10.856   5.646  1.00  0.00    -0.115 N 
HETATM   30  O   UNL     1      38.670 -11.445   6.665  1.00  0.00    -0.532 OA
HETATM   31  O   UNL     1      38.474  -9.918   5.092  1.00  0.00    -0.532 OA
ENDBRANCH  12  29
BRANCH  14  32
HETATM   32  S   UNL     1      40.842 -13.866   1.845  1.00  0.00     0.259 S 
HETATM   33  O   UNL     1      39.508 -14.407   1.967  1.00  0.00    -0.201 OA
HETATM   34  O   UNL     1      41.266 -13.108   0.692  1.00  0.00    -0.201 OA
BRANCH  32  35
HETATM   35  N   UNL     1      41.898 -15.160   2.075  1.00  0.00    -0.311 N 
HETATM   36  H   UNL     1      42.766 -14.818   2.493  1.00  0.00     0.172 HD
BRANCH  35  37
HETATM   37  C   UNL     1      41.385 -16.445   2.610  1.00  0.00     0.093 C 
HETATM   38  C   UNL     1      42.221 -17.636   2.135  1.00  0.00     0.026 C 
HETATM   39  C   UNL     1      43.641 -17.623   2.699  1.00  0.00     0.002 C 
HETATM   40  C   UNL     1      43.631 -17.557   4.223  1.00  0.00     0.000 C 
HETATM   41  C   UNL     1      42.806 -16.380   4.734  1.00  0.00     0.002 C 
HETATM   42  C   UNL     1      41.394 -16.377   4.147  1.00  0.00     0.026 C 
ENDBRANCH  35  37
ENDBRANCH  32  35
ENDBRANCH  14  32
TORSDOF 8
ENDMDL
MODEL 6
REMARK VINA RESULT:      -8.7      4.172      6.937
REMARK  8 active torsions:
REMARK  status: ('A' for Active; 'I' for Inactive)
REMARK    1  A    between atoms: C_7  and  S_8 
REMARK    2  A    between atoms: S_8  and  N_9 
REMARK    3  A    between atoms: N_9  and  C_10 
REMARK    4  A    between atoms: C_19  and  N_20 
REMARK    5  A    between atoms: C_25  and  N_26 
REMARK    6  A    between atoms: C_30  and  S_31 
REMARK    7  A    between atoms: S_31  and  N_32 
REMARK    8  A    between atoms: N_32  and  C_33 
ROOT
HETATM    1  C   UNL     1      43.824 -11.289   7.494  1.00  0.00     0.041 A 
HETATM    2  C   UNL     1      42.993 -11.720   6.474  1.00  0.00     0.030 A 
HETATM    3  C   UNL     1      41.956 -10.963   5.888  1.00  0.00     0.025 A 
HETATM    4  C   UNL     1      41.293 -11.803   4.875  1.00  0.00     0.025 C 
HETATM    5  C   UNL     1      42.067 -12.971   4.701  1.00  0.00     0.030 C 
HETATM    6  C   UNL     1      41.821 -13.961   3.764  1.00  0.00     0.041 C 
HETATM    7  C   UNL     1      40.692 -13.803   2.964  1.00  0.00     0.077 C 
HETATM    8  C   UNL     1      39.801 -12.741   3.188  1.00  0.00     0.061 C 
HETATM    9  C   UNL     1      40.101 -11.754   4.152  1.00  0.00     0.116 C 
HETATM   10  C   UNL     1      43.126 -12.977   5.721  1.00  0.00     0.194 C 
HETATM   11  O   UNL     1      43.960 -13.838   5.893  1.00  0.00    -0.287 OA
HETATM   12  C   UNL     1      41.872  -9.630   6.297  1.00  0.00     0.116 A 
HETATM   13  C   UNL     1      42.696  -9.140   7.335  1.00  0.00     0.062 A 
HETATM   14  C   UNL     1      43.659  -9.977   7.924  1.00  0.00     0.082 A 
ENDROOT
BRANCH   7  15
HETATM   15  S   UNL     1      40.323 -15.025   1.726  1.00  0.00     0.241 S 
HETATM   16  O   UNL     1      41.563 -15.330   1.049  1.00  0.00    -0.206 OA
HETATM   17  O   UNL     1      39.504 -16.050   2.330  1.00  0.00    -0.206 OA
BRANCH  15  18
HETATM   18  N   UNL     1      39.404 -14.126   0.633  1.00  0.00    -0.211 NA
HETATM   19  H   UNL     1      38.722 -13.577   1.162  1.00  0.00     0.140 HD
BRANCH  18  20
HETATM   20  C   UNL     1      40.091 -13.374  -0.450  1.00  0.00     0.071 C 
HETATM   21  C   UNL     1      39.976 -14.077  -1.804  1.00  0.00     0.020 C 
HETATM   22  C   UNL     1      38.545 -14.106  -2.338  1.00  0.00     0.002 C 
HETATM   23  C   UNL     1      37.956 -12.702  -2.420  1.00  0.00     0.000 C 
HETATM   24  C   UNL     1      38.047 -11.975  -1.083  1.00  0.00     0.002 C 
HETATM   25  C   UNL     1      39.474 -11.967  -0.534  1.00  0.00     0.020 C 
ENDBRANCH  18  20
ENDBRANCH  15  18
ENDBRANCH   7  15
BRANCH   9  26
HETATM   26  N   UNL     1      39.041 -10.809   4.473  1.00  0.00    -0.115 N 
HETATM   27  O   UNL     1      38.735  -9.996   3.591  1.00  0.00    -0.532 OA
HETATM   28  O   UNL     1      38.558 -10.855   5.611  1.00  0.00    -0.532 OA
ENDBRANCH   9  26
BRANCH  12  29
HETATM   29  N   UNL     1      41.126  -8.637   5.537  1.00  0.00    -0.115 N 
HETATM   30  O   UNL     1      41.530  -8.399   4.390  1.00  0.00    -0.532 OA
HETATM   31  O   UNL     1      40.195  -8.056   6.107  1.00  0.00    -0.532 OA
ENDBRANCH  12  29
BRANCH  14  32
HETATM   32  S   UNL     1      44.725  -9.314   9.180  1.00  0.00     0.259 S 
HETATM   33  O   UNL     1      45.437 -10.436   9.747  1.00  0.00    -0.201 OA
HETATM   34  O   UNL     1      45.405  -8.156   8.650  1.00  0.00    -0.201 OA
BRANCH  32  35
HETATM   35  N   UNL     1      43.621  -8.817  10.354  1.00  0.00    -0.311 N 
HETATM   36  H   UNL     1      43.217  -7.919  10.079  1.00  0.00     0.172 HD
BRANCH  35  37
HETATM   37  C   UNL     1      42.674  -9.798  10.939  1.00  0.00     0.093 C 
HETATM   38  C   UNL     1      42.920 -10.003  12.437  1.00  0.00     0.026 C 
HETATM   39  C   UNL     1      42.607  -8.756  13.263  1.00  0.00     0.002 C 
HETATM   40  C   UNL     1      41.179  -8.275  13.020  1.00  0.00     0.000 C 
HETATM   41  C   UNL     1      40.899  -8.059  11.536  1.00  0.00     0.002 C 
HETATM   42  C   UNL     1      41.239  -9.297  10.706  1.00  0.00     0.026 C 
ENDBRANCH  35  37
ENDBRANCH  32  35
ENDBRANCH  14  32
TORSDOF 8
ENDMDL
MODEL 7
REMARK VINA RESULT:      -8.6      4.267      8.951
REMARK  8 active torsions:
REMARK  status: ('A' for Active; 'I' for Inactive)
REMARK    1  A    between atoms: C_7  and  S_8 
REMARK    2  A    between atoms: S_8  and  N_9 
REMARK    3  A    between atoms: N_9  and  C_10 
REMARK    4  A    between atoms: C_19  and  N_20 
REMARK    5  A    between atoms: C_25  and  N_26 
REMARK    6  A    between atoms: C_30  and  S_31 
REMARK    7  A    between atoms: S_31  and  N_32 
REMARK    8  A    between atoms: N_32  and  C_33 
ROOT
HETATM    1  C   UNL     1      41.941 -14.058   3.740  1.00  0.00     0.041 A 
HETATM    2  C   UNL     1      42.198 -13.080   4.687  1.00  0.00     0.030 A 
HETATM    3  C   UNL     1      41.447 -11.898   4.865  1.00  0.00     0.025 A 
HETATM    4  C   UNL     1      42.077 -11.116   5.943  1.00  0.00     0.025 C 
HETATM    5  C   UNL     1      43.061 -11.924   6.553  1.00  0.00     0.030 C 
HETATM    6  C   UNL     1      43.805 -11.574   7.668  1.00  0.00     0.041 C 
HETATM    7  C   UNL     1      43.586 -10.305   8.197  1.00  0.00     0.077 C 
HETATM    8  C   UNL     1      42.729  -9.400   7.549  1.00  0.00     0.061 C 
HETATM    9  C   UNL     1      41.989  -9.807   6.418  1.00  0.00     0.116 C 
HETATM   10  C   UNL     1      43.198 -13.156   5.762  1.00  0.00     0.194 C 
HETATM   11  O   UNL     1      43.968 -14.067   5.970  1.00  0.00    -0.287 OA
HETATM   12  C   UNL     1      40.280 -11.799   4.103  1.00  0.00     0.116 A 
HETATM   13  C   UNL     1      39.973 -12.769   3.123  1.00  0.00     0.062 A 
HETATM   14  C   UNL     1      40.810 -13.885   2.950  1.00  0.00     0.082 A 
ENDROOT
BRANCH   7  15
HETATM   15  S   UNL     1      44.490  -9.794   9.640  1.00  0.00     0.241 S 
HETATM   16  O   UNL     1      45.425 -10.852   9.951  1.00  0.00    -0.206 OA
HETATM   17  O   UNL     1      44.913  -8.427   9.450  1.00  0.00    -0.206 OA
BRANCH  15  18
HETATM   18  N   UNL     1      43.294  -9.865  10.828  1.00  0.00    -0.211 NA
HETATM   19  H   UNL     1      43.659 -10.400  11.620  1.00  0.00     0.140 HD
BRANCH  18  20
HETATM   20  C   UNL     1      42.570  -8.624  11.208  1.00  0.00     0.071 C 
HETATM   21  C   UNL     1      41.053  -8.777  11.075  1.00  0.00     0.020 C 
HETATM   22  C   UNL     1      40.467  -9.769  12.078  1.00  0.00     0.002 C 
HETATM   23  C   UNL     1      40.838  -9.395  13.509  1.00  0.00     0.000 C 
HETATM   24  C   UNL     1      42.345  -9.243  13.678  1.00  0.00     0.002 C 
HETATM   25  C   UNL     1      42.938  -8.269  12.659  1.00  0.00     0.020 C 
ENDBRANCH  18  20
ENDBRANCH  15  18
ENDBRANCH   7  15
BRANCH   9  26
HETATM   26  N   UNL     1      41.290  -8.763   5.683  1.00  0.00    -0.115 N 
HETATM   27  O   UNL     1      40.316  -8.245   6.244  1.00  0.00    -0.532 OA
HETATM   28  O   UNL     1      41.688  -8.503   4.541  1.00  0.00    -0.532 OA
ENDBRANCH   9  26
BRANCH  12  29
HETATM   29  N   UNL     1      39.224 -10.852   4.432  1.00  0.00    -0.115 N 
HETATM   30  O   UNL     1      38.677 -10.993   5.534  1.00  0.00    -0.532 OA
HETATM   31  O   UNL     1      38.903 -10.026   3.570  1.00  0.00    -0.532 OA
ENDBRANCH  12  29
BRANCH  14  32
HETATM   32  S   UNL     1      40.364 -15.121   1.756  1.00  0.00     0.259 S 
HETATM   33  O   UNL     1      41.595 -15.552   1.134  1.00  0.00    -0.201 OA
HETATM   34  O   UNL     1      39.443 -16.048   2.370  1.00  0.00    -0.201 OA
BRANCH  32  35
HETATM   35  N   UNL     1      39.544 -14.212   0.597  1.00  0.00    -0.311 N 
HETATM   36  H   UNL     1      39.103 -13.408   1.048  1.00  0.00     0.172 HD
BRANCH  35  37
HETATM   37  C   UNL     1      40.177 -13.948  -0.718  1.00  0.00     0.093 C 
HETATM   38  C   UNL     1      39.215 -14.213  -1.879  1.00  0.00     0.026 C 
HETATM   39  C   UNL     1      38.043 -13.233  -1.909  1.00  0.00     0.002 C 
HETATM   40  C   UNL     1      38.530 -11.788  -1.944  1.00  0.00     0.000 C 
HETATM   41  C   UNL     1      39.493 -11.487  -0.800  1.00  0.00     0.002 C 
HETATM   42  C   UNL     1      40.650 -12.485  -0.751  1.00  0.00     0.026 C 
ENDBRANCH  35  37
ENDBRANCH  32  35
ENDBRANCH  14  32
TORSDOF 8
ENDMDL
MODEL 8
REMARK VINA RESULT:      -8.5      7.007     10.665
REMARK  8 active torsions:
REMARK  status: ('A' for Active; 'I' for Inactive)
REMARK    1  A    between atoms: C_7  and  S_8 
REMARK    2  A    between atoms: S_8  and  N_9 
REMARK    3  A    between atoms: N_9  and  C_10 
REMARK    4  A    between atoms: C_19  and  N_20 
REMARK    5  A    between atoms: C_25  and  N_26 
REMARK    6  A    between atoms: C_30  and  S_31 
REMARK    7  A    between atoms: S_31  and  N_32 
REMARK    8  A    between atoms: N_32  and  C_33 
ROOT
HETATM    1  C   UNL     1      43.272 -10.808   6.356  1.00  0.00     0.041 A 
HETATM    2  C   UNL     1      42.840 -10.236   7.541  1.00  0.00     0.030 A 
HETATM    3  C   UNL     1      41.521  -9.813   7.813  1.00  0.00     0.025 A 
HETATM    4  C   UNL     1      41.499  -9.227   9.164  1.00  0.00     0.025 C 
HETATM    5  C   UNL     1      42.741  -9.498   9.779  1.00  0.00     0.030 C 
HETATM    6  C   UNL     1      43.068  -9.190  11.090  1.00  0.00     0.041 C 
HETATM    7  C   UNL     1      42.103  -8.521  11.838  1.00  0.00     0.077 C 
HETATM    8  C   UNL     1      40.907  -8.093  11.241  1.00  0.00     0.061 C 
HETATM    9  C   UNL     1      40.617  -8.437   9.903  1.00  0.00     0.116 C 
HETATM   10  C   UNL     1      43.631 -10.096   8.774  1.00  0.00     0.194 C 
HETATM   11  O   UNL     1      44.784 -10.431   8.935  1.00  0.00    -0.287 OA
HETATM   12  C   UNL     1      40.569 -10.133   6.842  1.00  0.00     0.116 A 
HETATM   13  C   UNL     1      40.957 -10.715   5.614  1.00  0.00     0.062 A 
HETATM   14  C   UNL     1      42.304 -11.042   5.384  1.00  0.00     0.082 A 
ENDROOT
BRANCH   7  15
HETATM   15  S   UNL     1      42.446  -8.110  13.534  1.00  0.00     0.241 S 
HETATM   16  O   UNL     1      42.235  -9.310  14.312  1.00  0.00    -0.206 OA
HETATM   17  O   UNL     1      43.686  -7.372  13.581  1.00  0.00    -0.206 OA
BRANCH  15  18
HETATM   18  N   UNL     1      41.154  -7.087  13.898  1.00  0.00    -0.211 NA
HETATM   19  H   UNL     1      40.344  -7.664  14.135  1.00  0.00     0.140 HD
BRANCH  18  20
HETATM   20  C   UNL     1      41.373  -5.933  14.809  1.00  0.00     0.071 C 
HETATM   21  C   UNL     1      40.109  -5.089  14.986  1.00  0.00     0.020 C 
HETATM   22  C   UNL     1      38.998  -5.832  15.725  1.00  0.00     0.002 C 
HETATM   23  C   UNL     1      39.480  -6.349  17.075  1.00  0.00     0.000 C 
HETATM   24  C   UNL     1      40.736  -7.203  16.935  1.00  0.00     0.002 C 
HETATM   25  C   UNL     1      41.841  -6.471  16.173  1.00  0.00     0.020 C 
ENDBRANCH  18  20
ENDBRANCH  15  18
ENDBRANCH   7  15
BRANCH   9  26
HETATM   26  N   UNL     1      39.467  -7.786   9.293  1.00  0.00    -0.115 N 
HETATM   27  O   UNL     1      39.705  -6.906   8.456  1.00  0.00    -0.532 OA
HETATM   28  O   UNL     1      38.344  -8.122   9.687  1.00  0.00    -0.532 OA
ENDBRANCH   9  26
BRANCH  12  29
HETATM   29  N   UNL     1      39.141 -10.109   7.126  1.00  0.00    -0.115 N 
HETATM   30  O   UNL     1      38.472  -9.254   6.530  1.00  0.00    -0.532 OA
HETATM   31  O   UNL     1      38.712 -10.887   7.985  1.00  0.00    -0.532 OA
ENDBRANCH  12  29
BRANCH  14  32
HETATM   32  S   UNL     1      42.752 -11.833   3.859  1.00  0.00     0.259 S 
HETATM   33  O   UNL     1      41.529 -12.000   3.110  1.00  0.00    -0.201 OA
HETATM   34  O   UNL     1      43.909 -11.164   3.311  1.00  0.00    -0.201 OA
BRANCH  32  35
HETATM   35  N   UNL     1      43.200 -13.373   4.379  1.00  0.00    -0.311 N 
HETATM   36  H   UNL     1      44.130 -13.330   4.802  1.00  0.00     0.172 HD
BRANCH  35  37
HETATM   37  C   UNL     1      42.213 -14.233   5.075  1.00  0.00     0.093 C 
HETATM   38  C   UNL     1      41.936 -15.526   4.303  1.00  0.00     0.026 C 
HETATM   39  C   UNL     1      43.151 -16.451   4.247  1.00  0.00     0.002 C 
HETATM   40  C   UNL     1      43.669 -16.770   5.646  1.00  0.00     0.000 C 
HETATM   41  C   UNL     1      43.956 -15.503   6.446  1.00  0.00     0.002 C 
HETATM   42  C   UNL     1      42.750 -14.564   6.478  1.00  0.00     0.026 C 
ENDBRANCH  35  37
ENDBRANCH  32  35
ENDBRANCH  14  32
TORSDOF 8
ENDMDL
MODEL 9
REMARK VINA RESULT:      -8.5      7.006     10.375
REMARK  8 active torsions:
REMARK  status: ('A' for Active; 'I' for Inactive)
REMARK    1  A    between atoms: C_7  and  S_8 
REMARK    2  A    between atoms: S_8  and  N_9 
REMARK    3  A    between atoms: N_9  and  C_10 
REMARK    4  A    between atoms: C_19  and  N_20 
REMARK    5  A    between atoms: C_25  and  N_26 
REMARK    6  A    between atoms: C_30  and  S_31 
REMARK    7  A    between atoms: S_31  and  N_32 
REMARK    8  A    between atoms: N_32  and  C_33 
ROOT
HETATM    1  C   UNL     1      41.150 -10.634   5.839  1.00  0.00     0.041 A 
HETATM    2  C   UNL     1      41.239 -10.035   7.084  1.00  0.00     0.030 A 
HETATM    3  C   UNL     1      42.397  -9.994   7.891  1.00  0.00     0.025 A 
HETATM    4  C   UNL     1      42.054  -9.303   9.146  1.00  0.00     0.025 C 
HETATM    5  C   UNL     1      40.767  -8.742   9.000  1.00  0.00     0.030 C 
HETATM    6  C   UNL     1      40.135  -7.934   9.932  1.00  0.00     0.041 C 
HETATM    7  C   UNL     1      40.816  -7.698  11.123  1.00  0.00     0.077 C 
HETATM    8  C   UNL     1      42.033  -8.347  11.391  1.00  0.00     0.061 C 
HETATM    9  C   UNL     1      42.638  -9.156  10.405  1.00  0.00     0.116 C 
HETATM   10  C   UNL     1      40.201  -9.216   7.729  1.00  0.00     0.194 C 
HETATM   11  O   UNL     1      39.102  -8.963   7.286  1.00  0.00    -0.287 OA
HETATM   12  C   UNL     1      43.565 -10.486   7.304  1.00  0.00     0.116 A 
HETATM   13  C   UNL     1      43.527 -11.108   6.035  1.00  0.00     0.062 A 
HETATM   14  C   UNL     1      42.320 -11.179   5.320  1.00  0.00     0.082 A 
ENDROOT
BRANCH   7  15
HETATM   15  S   UNL     1      40.076  -6.655  12.359  1.00  0.00     0.241 S 
HETATM   16  O   UNL     1      40.521  -5.305  12.095  1.00  0.00    -0.206 OA
HETATM   17  O   UNL     1      38.677  -6.997  12.462  1.00  0.00    -0.206 OA
BRANCH  15  18
HETATM   18  N   UNL     1      40.893  -7.152  13.749  1.00  0.00    -0.211 NA
HETATM   19  H   UNL     1      41.598  -7.843  13.478  1.00  0.00     0.140 HD
BRANCH  18  20
HETATM   20  C   UNL     1      41.375  -6.131  14.715  1.00  0.00     0.071 C 
HETATM   21  C   UNL     1      40.223  -5.350  15.352  1.00  0.00     0.020 C 
HETATM   22  C   UNL     1      39.351  -6.215  16.260  1.00  0.00     0.002 C 
HETATM   23  C   UNL     1      40.184  -6.901  17.337  1.00  0.00     0.000 C 
HETATM   24  C   UNL     1      41.337  -7.696  16.736  1.00  0.00     0.002 C 
HETATM   25  C   UNL     1      42.197  -6.839  15.806  1.00  0.00     0.020 C 
ENDBRANCH  18  20
ENDBRANCH  15  18
ENDBRANCH   7  15
BRANCH   9  26
HETATM   26  N   UNL     1      43.780  -9.956  10.826  1.00  0.00    -0.115 N 
HETATM   27  O   UNL     1      44.835  -9.347  11.043  1.00  0.00    -0.532 OA
HETATM   28  O   UNL     1      43.627 -11.182  10.889  1.00  0.00    -0.532 OA
ENDBRANCH   9  26
BRANCH  12  29
HETATM   29  N   UNL     1      44.884 -10.179   7.838  1.00  0.00    -0.115 N 
HETATM   30  O   UNL     1      45.549 -11.137   8.255  1.00  0.00    -0.532 OA
HETATM   31  O   UNL     1      45.217  -8.991   7.901  1.00  0.00    -0.532 OA
ENDBRANCH  12  29
BRANCH  14  32
HETATM   32  S   UNL     1      42.317 -11.908   3.701  1.00  0.00     0.259 S 
HETATM   33  O   UNL     1      41.006 -11.663   3.145  1.00  0.00    -0.201 OA
HETATM   34  O   UNL     1      43.530 -11.525   3.018  1.00  0.00    -0.201 OA
BRANCH  32  35
HETATM   35  N   UNL     1      42.378 -13.555   4.055  1.00  0.00    -0.311 N 
HETATM   36  H   UNL     1      42.398 -13.682   5.070  1.00  0.00     0.172 HD
BRANCH  35  37
HETATM   37  C   UNL     1      41.522 -14.504   3.303  1.00  0.00     0.093 C 
HETATM   38  C   UNL     1      42.006 -14.689   1.862  1.00  0.00     0.026 C 
HETATM   39  C   UNL     1      43.364 -15.383   1.780  1.00  0.00     0.002 C 
HETATM   40  C   UNL     1      43.347 -16.723   2.510  1.00  0.00     0.000 C 
HETATM   41  C   UNL     1      42.870 -16.577   3.951  1.00  0.00     0.002 C 
HETATM   42  C   UNL     1      41.524 -15.857   4.035  1.00  0.00     0.026 C 
ENDBRANCH  35  37
ENDBRANCH  32  35
ENDBRANCH  14  32
TORSDOF 8
ENDMDL
MODEL 10
REMARK VINA RESULT:      -8.5      6.962     10.150
REMARK  8 active torsions:
REMARK  status: ('A' for Active; 'I' for Inactive)
REMARK    1  A    between atoms: C_7  and  S_8 
REMARK    2  A    between atoms: S_8  and  N_9 
REMARK    3  A    between atoms: N_9  and  C_10 
REMARK    4  A    between atoms: C_19  and  N_20 
REMARK    5  A    between atoms: C_25  and  N_26 
REMARK    6  A    between atoms: C_30  and  S_31 
REMARK    7  A    between atoms: S_31  and  N_32 
REMARK    8  A    between atoms: N_32  and  C_33 
ROOT
HETATM    1  C   UNL     1      43.023  -9.404  11.095  1.00  0.00     0.041 A 
HETATM    2  C   UNL     1      42.698  -9.683   9.778  1.00  0.00     0.030 A 
HETATM    3  C   UNL     1      41.484  -9.341   9.145  1.00  0.00     0.025 A 
HETATM    4  C   UNL     1      41.528  -9.856   7.765  1.00  0.00     0.025 C 
HETATM    5  C   UNL     1      42.841 -10.305   7.507  1.00  0.00     0.030 C 
HETATM    6  C   UNL     1      43.303 -10.770   6.286  1.00  0.00     0.041 C 
HETATM    7  C   UNL     1      42.377 -10.836   5.248  1.00  0.00     0.077 C 
HETATM    8  C   UNL     1      41.023 -10.545   5.480  1.00  0.00     0.061 C 
HETATM    9  C   UNL     1      40.604 -10.069   6.741  1.00  0.00     0.116 C 
HETATM   10  C   UNL     1      43.600 -10.252   8.765  1.00  0.00     0.194 C 
HETATM   11  O   UNL     1      44.752 -10.589   8.931  1.00  0.00    -0.287 OA
HETATM   12  C   UNL     1      40.615  -8.541   9.890  1.00  0.00     0.116 A 
HETATM   13  C   UNL     1      40.899  -8.228  11.238  1.00  0.00     0.062 A 
HETATM   14  C   UNL     1      42.097  -8.667  11.826  1.00  0.00     0.082 A 
ENDROOT
BRANCH   7  15
HETATM   15  S   UNL     1      42.901 -11.405   3.647  1.00  0.00     0.241 S 
HETATM   16  O   UNL     1      42.221 -10.592   2.665  1.00  0.00    -0.206 OA
HETATM   17  O   UNL     1      44.338 -11.548   3.664  1.00  0.00    -0.206 OA
BRANCH  15  18
HETATM   18  N   UNL     1      42.173 -12.926   3.578  1.00  0.00    -0.211 NA
HETATM   19  H   UNL     1      41.751 -13.038   2.653  1.00  0.00     0.140 HD
BRANCH  18  20
HETATM   20  C   UNL     1      42.924 -14.115   4.058  1.00  0.00     0.071 C 
HETATM   21  C   UNL     1      42.674 -14.397   5.541  1.00  0.00     0.020 C 
HETATM   22  C   UNL     1      41.238 -14.829   5.829  1.00  0.00     0.002 C 
HETATM   23  C   UNL     1      40.845 -16.039   4.988  1.00  0.00     0.000 C 
HETATM   24  C   UNL     1      41.074 -15.790   3.501  1.00  0.00     0.002 C 
HETATM   25  C   UNL     1      42.504 -15.331   3.214  1.00  0.00     0.020 C 
ENDBRANCH  18  20
ENDBRANCH  15  18
ENDBRANCH   7  15
BRANCH   9  26
HETATM   26  N   UNL     1      39.168  -9.990   6.968  1.00  0.00    -0.115 N 
HETATM   27  O   UNL     1      38.564  -9.074   6.394  1.00  0.00    -0.532 OA
HETATM   28  O   UNL     1      38.666 -10.808   7.748  1.00  0.00    -0.532 OA
ENDBRANCH   9  26
BRANCH  12  29
HETATM   29  N   UNL     1      39.523  -7.804   9.268  1.00  0.00    -0.115 N 
HETATM   30  O   UNL     1      39.841  -6.889   8.497  1.00  0.00    -0.532 OA
HETATM   31  O   UNL     1      38.369  -8.094   9.604  1.00  0.00    -0.532 OA
ENDBRANCH  12  29
BRANCH  14  32
HETATM   32  S   UNL     1      42.457  -8.203  13.502  1.00  0.00     0.259 S 
HETATM   33  O   UNL     1      42.269  -9.390  14.304  1.00  0.00    -0.201 OA
HETATM   34  O   UNL     1      43.686  -7.445  13.520  1.00  0.00    -0.201 OA
BRANCH  32  35
HETATM   35  N   UNL     1      41.169  -7.178  13.868  1.00  0.00    -0.311 N 
HETATM   36  H   UNL     1      40.349  -7.739  14.109  1.00  0.00     0.172 HD
BRANCH  35  37
HETATM   37  C   UNL     1      41.399  -5.977  14.707  1.00  0.00     0.093 C 
HETATM   38  C   UNL     1      40.154  -5.088  14.784  1.00  0.00     0.026 C 
HETATM   39  C   UNL     1      38.997  -5.756  15.527  1.00  0.00     0.002 C 
HETATM   40  C   UNL     1      39.420  -6.199  16.925  1.00  0.00     0.000 C 
HETATM   41  C   UNL     1      40.659  -7.087  16.887  1.00  0.00     0.002 C 
HETATM   42  C   UNL     1      41.807  -6.432  16.119  1.00  0.00     0.026 C 
ENDBRANCH  35  37
ENDBRANCH  32  35
ENDBRANCH  14  32
TORSDOF 8
ENDMDL
