MODEL 1
REMARK VINA RESULT:      -8.0      0.000      0.000
REMARK  6 active torsions:
REMARK  status: ('A' for Active; 'I' for Inactive)
REMARK    1  A    between atoms: C_2  and  C_3 
REMARK    2  A    between atoms: C_8  and  C_9 
REMARK    3  A    between atoms: C_9  and  N_10 
REMARK    4  A    between atoms: C_12  and  C_13 
REMARK    5  A    between atoms: C_13  and  N_14 
REMARK       I    between atoms: N_14  and  C_15 
REMARK    6  A    between atoms: C_15  and  C_16 
ROOT
HETATM    1  N   UNL     1      40.052 -13.614   0.717  1.00  0.00    -0.061 N 
HETATM    2  H   UNL     1      39.028 -13.574   0.745  1.00  0.00     0.280 HD
HETATM    3  C   UNL     1      40.377 -14.970   1.358  1.00  0.00     0.206 C 
HETATM    4  C   UNL     1      39.774 -14.959   2.774  1.00  0.00     0.035 C 
HETATM    5  C   UNL     1      40.261 -13.784   3.614  1.00  0.00     0.004 C 
HETATM    6  C   UNL     1      39.988 -12.461   2.911  1.00  0.00     0.028 C 
HETATM    7  C   UNL     1      40.554 -12.428   1.499  1.00  0.00     0.236 C 
ENDROOT
BRANCH   1   8
HETATM    8  C   UNL     1      40.377 -13.494  -0.761  1.00  0.00     0.277 C 
BRANCH   8   9
HETATM    9  C   UNL     1      39.235 -13.778  -1.664  1.00  0.00     0.012 A 
HETATM   10  C   UNL     1      38.153 -12.936  -2.092  1.00  0.00     0.071 A 
HETATM   11  N   UNL     1      37.337 -13.609  -2.914  1.00  0.00    -0.178 NA
HETATM   12  N   UNL     1      37.866 -14.827  -3.034  1.00  0.00    -0.288 N 
HETATM   13  H   UNL     1      37.394 -15.506  -3.626  1.00  0.00     0.188 HD
HETATM   14  C   UNL     1      39.011 -14.977  -2.316  1.00  0.00     0.120 A 
BRANCH  10  15
HETATM   15  C   UNL     1      37.834 -11.466  -1.791  1.00  0.00    -0.004 C 
HETATM   16  C   UNL     1      37.521 -11.248  -0.288  1.00  0.00     0.021 C 
HETATM   17  C   UNL     1      36.597 -11.025  -2.597  1.00  0.00     0.021 C 
HETATM   18  C   UNL     1      39.014 -10.539  -2.132  1.00  0.00     0.021 C 
ENDBRANCH  10  15
ENDBRANCH   8   9
ENDBRANCH   1   8
BRANCH   3  19
HETATM   19  C   UNL     1      41.899 -15.297   1.343  1.00  0.00     0.156 C 
BRANCH  19  20
HETATM   20  N   UNL     1      42.220 -16.625   1.833  1.00  0.00    -0.355 N 
HETATM   21  C   UNL     1      43.033 -16.794   2.937  1.00  0.00     0.251 C 
HETATM   22  O   UNL     1      43.484 -15.843   3.565  1.00  0.00    -0.268 OA
HETATM   23  H   UNL     1      41.970 -17.437   1.279  1.00  0.00     0.162 HD
BRANCH  21  24
HETATM   24  C   UNL     1      43.423 -18.191   3.258  1.00  0.00     0.032 A 
HETATM   25  C   UNL     1      43.270 -19.168   2.266  1.00  0.00     0.017 A 
HETATM   26  C   UNL     1      43.576 -20.499   2.548  1.00  0.00     0.001 A 
HETATM   27  C   UNL     1      44.048 -20.855   3.812  1.00  0.00     0.000 A 
HETATM   28  C   UNL     1      44.223 -19.879   4.795  1.00  0.00     0.001 A 
HETATM   29  C   UNL     1      43.912 -18.545   4.521  1.00  0.00     0.017 A 
ENDBRANCH  21  24
ENDBRANCH  19  20
ENDBRANCH   3  19
TORSDOF 6
ENDMDL
MODEL 2
REMARK VINA RESULT:      -8.0      5.712      8.506
REMARK  6 active torsions:
REMARK  status: ('A' for Active; 'I' for Inactive)
REMARK    1  A    between atoms: C_2  and  C_3 
REMARK    2  A    between atoms: C_8  and  C_9 
REMARK    3  A    between atoms: C_9  and  N_10 
REMARK    4  A    between atoms: C_12  and  C_13 
REMARK    5  A    between atoms: C_13  and  N_14 
REMARK       I    between atoms: N_14  and  C_15 
REMARK    6  A    between atoms: C_15  and  C_16 
ROOT
HETATM    1  N   UNL     1      43.269 -11.854   6.194  1.00  0.00    -0.061 N 
HETATM    2  H   UNL     1      43.811 -11.185   5.636  1.00  0.00     0.280 HD
HETATM    3  C   UNL     1      43.515 -13.195   5.488  1.00  0.00     0.206 C 
HETATM    4  C   UNL     1      43.038 -13.036   4.033  1.00  0.00     0.035 C 
HETATM    5  C   UNL     1      41.586 -12.582   3.934  1.00  0.00     0.004 C 
HETATM    6  C   UNL     1      41.365 -11.289   4.709  1.00  0.00     0.028 C 
HETATM    7  C   UNL     1      41.836 -11.390   6.152  1.00  0.00     0.236 C 
ENDROOT
BRANCH   1   8
HETATM    8  C   UNL     1      43.864 -11.727   7.584  1.00  0.00     0.277 C 
BRANCH   8   9
HETATM    9  C   UNL     1      44.912 -10.686   7.710  1.00  0.00     0.012 A 
HETATM   10  C   UNL     1      44.911  -9.445   8.434  1.00  0.00     0.071 A 
HETATM   11  N   UNL     1      46.078  -8.809   8.266  1.00  0.00    -0.178 NA
HETATM   12  N   UNL     1      46.815  -9.599   7.485  1.00  0.00    -0.288 N 
HETATM   13  H   UNL     1      47.753  -9.298   7.234  1.00  0.00     0.188 HD
HETATM   14  C   UNL     1      46.169 -10.743   7.135  1.00  0.00     0.120 A 
BRANCH  10  15
HETATM   15  C   UNL     1      43.853  -8.800   9.337  1.00  0.00    -0.004 C 
HETATM   16  C   UNL     1      43.828  -7.259   9.174  1.00  0.00     0.021 C 
HETATM   17  C   UNL     1      44.167  -9.111  10.813  1.00  0.00     0.021 C 
HETATM   18  C   UNL     1      42.434  -9.299   9.009  1.00  0.00     0.021 C 
ENDBRANCH  10  15
ENDBRANCH   8   9
ENDBRANCH   1   8
BRANCH   3  19
HETATM   19  C   UNL     1      42.851 -14.395   6.224  1.00  0.00     0.156 C 
BRANCH  19  20
HETATM   20  N   UNL     1      42.776 -15.605   5.426  1.00  0.00    -0.355 N 
HETATM   21  C   UNL     1      43.796 -16.536   5.454  1.00  0.00     0.251 C 
HETATM   22  O   UNL     1      44.780 -16.402   6.173  1.00  0.00    -0.268 OA
HETATM   23  H   UNL     1      42.043 -15.701   4.731  1.00  0.00     0.162 HD
BRANCH  21  24
HETATM   24  C   UNL     1      43.690 -17.656   4.484  1.00  0.00     0.032 A 
HETATM   25  C   UNL     1      44.128 -18.925   4.885  1.00  0.00     0.017 A 
HETATM   26  C   UNL     1      44.094 -19.989   3.985  1.00  0.00     0.001 A 
HETATM   27  C   UNL     1      43.609 -19.794   2.691  1.00  0.00     0.000 A 
HETATM   28  C   UNL     1      43.151 -18.536   2.297  1.00  0.00     0.001 A 
HETATM   29  C   UNL     1      43.189 -17.464   3.191  1.00  0.00     0.017 A 
ENDBRANCH  21  24
ENDBRANCH  19  20
ENDBRANCH   3  19
TORSDOF 6
ENDMDL
MODEL 3
REMARK VINA RESULT:      -7.9      1.537      2.303
REMARK  6 active torsions:
REMARK  status: ('A' for Active; 'I' for Inactive)
REMARK    1  A    between atoms: C_2  and  C_3 
REMARK    2  A    between atoms: C_8  and  C_9 
REMARK    3  A    between atoms: C_9  and  N_10 
REMARK    4  A    between atoms: C_12  and  C_13 
REMARK    5  A    between atoms: C_13  and  N_14 
REMARK       I    between atoms: N_14  and  C_15 
REMARK    6  A    between atoms: C_15  and  C_16 
ROOT
HETATM    1  N   UNL     1      40.954 -12.992   2.546  1.00  0.00    -0.061 N 
HETATM    2  H   UNL     1      39.933 -12.983   2.456  1.00  0.00     0.280 HD
HETATM    3  C   UNL     1      41.225 -14.195   3.460  1.00  0.00     0.206 C 
HETATM    4  C   UNL     1      40.467 -13.947   4.775  1.00  0.00     0.035 C 
HETATM    5  C   UNL     1      40.838 -12.622   5.430  1.00  0.00     0.004 C 
HETATM    6  C   UNL     1      40.626 -11.460   4.469  1.00  0.00     0.028 C 
HETATM    7  C   UNL     1      41.346 -11.665   3.144  1.00  0.00     0.236 C 
ENDROOT
BRANCH   1   8
HETATM    8  C   UNL     1      41.440 -13.133   1.116  1.00  0.00     0.277 C 
BRANCH   8   9
HETATM    9  C   UNL     1      40.449 -13.730   0.188  1.00  0.00     0.012 A 
HETATM   10  C   UNL     1      39.766 -13.159  -0.939  1.00  0.00     0.071 A 
HETATM   11  N   UNL     1      38.950 -14.065  -1.495  1.00  0.00    -0.178 NA
HETATM   12  N   UNL     1      39.102 -15.180  -0.779  1.00  0.00    -0.288 N 
HETATM   13  H   UNL     1      38.565 -16.003  -1.040  1.00  0.00     0.188 HD
HETATM   14  C   UNL     1      40.000 -15.037   0.232  1.00  0.00     0.120 A 
BRANCH  10  15
HETATM   15  C   UNL     1      39.851 -11.767  -1.577  1.00  0.00    -0.004 C 
HETATM   16  C   UNL     1      41.255 -11.502  -2.179  1.00  0.00     0.021 C 
HETATM   17  C   UNL     1      39.587 -10.687  -0.510  1.00  0.00     0.021 C 
HETATM   18  C   UNL     1      38.842 -11.597  -2.726  1.00  0.00     0.021 C 
ENDBRANCH  10  15
ENDBRANCH   8   9
ENDBRANCH   1   8
BRANCH   3  19
HETATM   19  C   UNL     1      42.744 -14.465   3.669  1.00  0.00     0.156 C 
BRANCH  19  20
HETATM   20  N   UNL     1      43.072 -15.866   3.855  1.00  0.00    -0.355 N 
HETATM   21  C   UNL     1      43.321 -16.685   2.772  1.00  0.00     0.251 C 
HETATM   22  O   UNL     1      43.312 -16.262   1.621  1.00  0.00    -0.268 OA
HETATM   23  H   UNL     1      42.974 -16.285   4.775  1.00  0.00     0.162 HD
BRANCH  21  24
HETATM   24  C   UNL     1      43.492 -18.131   3.066  1.00  0.00     0.032 A 
HETATM   25  C   UNL     1      44.016 -18.498   4.311  1.00  0.00     0.017 A 
HETATM   26  C   UNL     1      44.240 -19.843   4.603  1.00  0.00     0.001 A 
HETATM   27  C   UNL     1      43.928 -20.823   3.660  1.00  0.00     0.000 A 
HETATM   28  C   UNL     1      43.384 -20.462   2.426  1.00  0.00     0.001 A 
HETATM   29  C   UNL     1      43.163 -19.116   2.126  1.00  0.00     0.017 A 
ENDBRANCH  21  24
ENDBRANCH  19  20
ENDBRANCH   3  19
TORSDOF 6
ENDMDL
MODEL 4
REMARK VINA RESULT:      -7.7      2.863      7.670
REMARK  6 active torsions:
REMARK  status: ('A' for Active; 'I' for Inactive)
REMARK    1  A    between atoms: C_2  and  C_3 
REMARK    2  A    between atoms: C_8  and  C_9 
REMARK    3  A    between atoms: C_9  and  N_10 
REMARK    4  A    between atoms: C_12  and  C_13 
REMARK    5  A    between atoms: C_13  and  N_14 
REMARK       I    between atoms: N_14  and  C_15 
REMARK    6  A    between atoms: C_15  and  C_16 
ROOT
HETATM    1  N   UNL     1      42.585 -13.659   5.007  1.00  0.00    -0.061 N 
HETATM    2  H   UNL     1      43.560 -13.929   5.171  1.00  0.00     0.280 HD
HETATM    3  C   UNL     1      42.611 -13.050   3.599  1.00  0.00     0.206 C 
HETATM    4  C   UNL     1      43.607 -11.876   3.630  1.00  0.00     0.035 C 
HETATM    5  C   UNL     1      43.274 -10.848   4.705  1.00  0.00     0.004 C 
HETATM    6  C   UNL     1      43.182 -11.503   6.077  1.00  0.00     0.028 C 
HETATM    7  C   UNL     1      42.219 -12.681   6.094  1.00  0.00     0.236 C 
ENDROOT
BRANCH   1   8
HETATM    8  C   UNL     1      41.822 -14.964   5.142  1.00  0.00     0.277 C 
BRANCH   8   9
HETATM    9  C   UNL     1      42.680 -16.173   5.193  1.00  0.00     0.012 A 
HETATM   10  C   UNL     1      43.047 -17.099   4.159  1.00  0.00     0.071 A 
HETATM   11  N   UNL     1      43.845 -18.055   4.654  1.00  0.00    -0.178 NA
HETATM   12  N   UNL     1      44.007 -17.762   5.945  1.00  0.00    -0.288 N 
HETATM   13  H   UNL     1      44.590 -18.372   6.513  1.00  0.00     0.188 HD
HETATM   14  C   UNL     1      43.342 -16.636   6.316  1.00  0.00     0.120 A 
BRANCH  10  15
HETATM   15  C   UNL     1      42.708 -17.135   2.664  1.00  0.00    -0.004 C 
HETATM   16  C   UNL     1      41.222 -16.776   2.408  1.00  0.00     0.021 C 
HETATM   17  C   UNL     1      42.952 -18.550   2.107  1.00  0.00     0.021 C 
HETATM   18  C   UNL     1      43.547 -16.126   1.860  1.00  0.00     0.021 C 
ENDBRANCH  10  15
ENDBRANCH   8   9
ENDBRANCH   1   8
BRANCH   3  19
HETATM   19  C   UNL     1      41.198 -12.641   3.090  1.00  0.00     0.156 C 
BRANCH  19  20
HETATM   20  N   UNL     1      40.836 -13.240   1.818  1.00  0.00    -0.355 N 
HETATM   21  C   UNL     1      40.950 -12.527   0.642  1.00  0.00     0.251 C 
HETATM   22  O   UNL     1      41.392 -11.383   0.615  1.00  0.00    -0.268 OA
HETATM   23  H   UNL     1      40.357 -14.135   1.805  1.00  0.00     0.162 HD
BRANCH  21  24
HETATM   24  C   UNL     1      40.407 -13.177  -0.578  1.00  0.00     0.032 A 
HETATM   25  C   UNL     1      40.550 -12.516  -1.803  1.00  0.00     0.017 A 
HETATM   26  C   UNL     1      40.006 -13.071  -2.962  1.00  0.00     0.001 A 
HETATM   27  C   UNL     1      39.333 -14.292  -2.901  1.00  0.00     0.000 A 
HETATM   28  C   UNL     1      39.209 -14.964  -1.684  1.00  0.00     0.001 A 
HETATM   29  C   UNL     1      39.745 -14.411  -0.520  1.00  0.00     0.017 A 
ENDBRANCH  21  24
ENDBRANCH  19  20
ENDBRANCH   3  19
TORSDOF 6
ENDMDL
MODEL 5
REMARK VINA RESULT:      -7.5      4.874      8.617
REMARK  6 active torsions:
REMARK  status: ('A' for Active; 'I' for Inactive)
REMARK    1  A    between atoms: C_2  and  C_3 
REMARK    2  A    between atoms: C_8  and  C_9 
REMARK    3  A    between atoms: C_9  and  N_10 
REMARK    4  A    between atoms: C_12  and  C_13 
REMARK    5  A    between atoms: C_13  and  N_14 
REMARK       I    between atoms: N_14  and  C_15 
REMARK    6  A    between atoms: C_15  and  C_16 
ROOT
HETATM    1  N   UNL     1      41.770 -13.881   4.093  1.00  0.00    -0.061 N 
HETATM    2  H   UNL     1      41.295 -14.743   4.382  1.00  0.00     0.280 HD
HETATM    3  C   UNL     1      41.782 -13.031   5.372  1.00  0.00     0.206 C 
HETATM    4  C   UNL     1      40.318 -12.844   5.807  1.00  0.00     0.035 C 
HETATM    5  C   UNL     1      39.448 -12.238   4.711  1.00  0.00     0.004 C 
HETATM    6  C   UNL     1      39.521 -13.067   3.436  1.00  0.00     0.028 C 
HETATM    7  C   UNL     1      40.953 -13.293   2.972  1.00  0.00     0.236 C 
ENDROOT
BRANCH   1   8
HETATM    8  C   UNL     1      43.127 -14.359   3.612  1.00  0.00     0.277 C 
BRANCH   8   9
HETATM    9  C   UNL     1      43.184 -15.803   3.276  1.00  0.00     0.012 A 
HETATM   10  C   UNL     1      43.286 -16.954   4.129  1.00  0.00     0.071 A 
HETATM   11  N   UNL     1      43.308 -18.075   3.395  1.00  0.00    -0.178 NA
HETATM   12  N   UNL     1      43.209 -17.681   2.125  1.00  0.00    -0.288 N 
HETATM   13  H   UNL     1      43.205 -18.388   1.395  1.00  0.00     0.188 HD
HETATM   14  C   UNL     1      43.117 -16.330   2.000  1.00  0.00     0.120 A 
BRANCH  10  15
HETATM   15  C   UNL     1      43.337 -17.083   5.656  1.00  0.00    -0.004 C 
HETATM   16  C   UNL     1      44.514 -16.271   6.256  1.00  0.00     0.021 C 
HETATM   17  C   UNL     1      43.537 -18.559   6.050  1.00  0.00     0.021 C 
HETATM   18  C   UNL     1      42.055 -16.553   6.322  1.00  0.00     0.021 C 
ENDBRANCH  10  15
ENDBRANCH   8   9
ENDBRANCH   1   8
BRANCH   3  19
HETATM   19  C   UNL     1      42.546 -11.686   5.196  1.00  0.00     0.156 C 
BRANCH  19  20
HETATM   20  N   UNL     1      42.758 -10.964   6.438  1.00  0.00    -0.355 N 
HETATM   21  C   UNL     1      44.008 -10.912   7.021  1.00  0.00     0.251 C 
HETATM   22  O   UNL     1      44.989 -11.435   6.505  1.00  0.00    -0.268 OA
HETATM   23  H   UNL     1      41.958 -10.620   6.959  1.00  0.00     0.162 HD
BRANCH  21  24
HETATM   24  C   UNL     1      44.081 -10.283   8.364  1.00  0.00     0.032 A 
HETATM   25  C   UNL     1      45.310 -10.291   9.036  1.00  0.00     0.017 A 
HETATM   26  C   UNL     1      45.405  -9.757  10.321  1.00  0.00     0.001 A 
HETATM   27  C   UNL     1      44.279  -9.200  10.930  1.00  0.00     0.000 A 
HETATM   28  C   UNL     1      43.059  -9.170  10.254  1.00  0.00     0.001 A 
HETATM   29  C   UNL     1      42.956  -9.709   8.970  1.00  0.00     0.017 A 
ENDBRANCH  21  24
ENDBRANCH  19  20
ENDBRANCH   3  19
TORSDOF 6
ENDMDL
MODEL 6
REMARK VINA RESULT:      -7.5      2.255      3.460
REMARK  6 active torsions:
REMARK  status: ('A' for Active; 'I' for Inactive)
REMARK    1  A    between atoms: C_2  and  C_3 
REMARK    2  A    between atoms: C_8  and  C_9 
REMARK    3  A    between atoms: C_9  and  N_10 
REMARK    4  A    between atoms: C_12  and  C_13 
REMARK    5  A    between atoms: C_13  and  N_14 
REMARK       I    between atoms: N_14  and  C_15 
REMARK    6  A    between atoms: C_15  and  C_16 
ROOT
HETATM    1  N   UNL     1      42.574 -12.664   3.661  1.00  0.00    -0.061 N 
HETATM    2  H   UNL     1      41.731 -12.119   3.450  1.00  0.00     0.280 HD
HETATM    3  C   UNL     1      42.122 -13.604   4.787  1.00  0.00     0.206 C 
HETATM    4  C   UNL     1      41.621 -12.720   5.943  1.00  0.00     0.035 C 
HETATM    5  C   UNL     1      42.663 -11.710   6.409  1.00  0.00     0.004 C 
HETATM    6  C   UNL     1      43.141 -10.846   5.250  1.00  0.00     0.028 C 
HETATM    7  C   UNL     1      43.634 -11.675   4.073  1.00  0.00     0.236 C 
ENDROOT
BRANCH   1   8
HETATM    8  C   UNL     1      42.910 -13.335   2.343  1.00  0.00     0.277 C 
BRANCH   8   9
HETATM    9  C   UNL     1      41.737 -13.882   1.617  1.00  0.00     0.012 A 
HETATM   10  C   UNL     1      40.573 -13.222   1.098  1.00  0.00     0.071 A 
HETATM   11  N   UNL     1      39.758 -14.110   0.512  1.00  0.00    -0.178 NA
HETATM   12  N   UNL     1      40.365 -15.292   0.627  1.00  0.00    -0.288 N 
HETATM   13  H   UNL     1      39.908 -16.113   0.239  1.00  0.00     0.188 HD
HETATM   14  C   UNL     1      41.561 -15.209   1.268  1.00  0.00     0.120 A 
BRANCH  10  15
HETATM   15  C   UNL     1      40.167 -11.743   1.087  1.00  0.00    -0.004 C 
HETATM   16  C   UNL     1      39.698 -11.271   2.487  1.00  0.00     0.021 C 
HETATM   17  C   UNL     1      38.999 -11.530   0.105  1.00  0.00     0.021 C 
HETATM   18  C   UNL     1      41.336 -10.828   0.684  1.00  0.00     0.021 C 
ENDBRANCH  10  15
ENDBRANCH   8   9
ENDBRANCH   1   8
BRANCH   3  19
HETATM   19  C   UNL     1      43.232 -14.607   5.219  1.00  0.00     0.156 C 
BRANCH  19  20
HETATM   20  N   UNL     1      43.147 -15.897   4.559  1.00  0.00    -0.355 N 
HETATM   21  C   UNL     1      43.787 -17.003   5.082  1.00  0.00     0.251 C 
HETATM   22  O   UNL     1      44.416 -16.954   6.133  1.00  0.00    -0.268 OA
HETATM   23  H   UNL     1      42.740 -15.958   3.632  1.00  0.00     0.162 HD
BRANCH  21  24
HETATM   24  C   UNL     1      43.764 -18.232   4.248  1.00  0.00     0.032 A 
HETATM   25  C   UNL     1      43.344 -18.123   2.917  1.00  0.00     0.017 A 
HETATM   26  C   UNL     1      43.259 -19.263   2.118  1.00  0.00     0.001 A 
HETATM   27  C   UNL     1      43.608 -20.509   2.641  1.00  0.00     0.000 A 
HETATM   28  C   UNL     1      44.049 -20.617   3.961  1.00  0.00     0.001 A 
HETATM   29  C   UNL     1      44.130 -19.480   4.768  1.00  0.00     0.017 A 
ENDBRANCH  21  24
ENDBRANCH  19  20
ENDBRANCH   3  19
TORSDOF 6
ENDMDL
MODEL 7
REMARK VINA RESULT:      -7.5      3.346      5.077
REMARK  6 active torsions:
REMARK  status: ('A' for Active; 'I' for Inactive)
REMARK    1  A    between atoms: C_2  and  C_3 
REMARK    2  A    between atoms: C_8  and  C_9 
REMARK    3  A    between atoms: C_9  and  N_10 
REMARK    4  A    between atoms: C_12  and  C_13 
REMARK    5  A    between atoms: C_13  and  N_14 
REMARK       I    between atoms: N_14  and  C_15 
REMARK    6  A    between atoms: C_15  and  C_16 
ROOT
HETATM    1  N   UNL     1      41.518 -12.708   6.368  1.00  0.00    -0.061 N 
HETATM    2  H   UNL     1      41.411 -12.584   7.380  1.00  0.00     0.280 HD
HETATM    3  C   UNL     1      42.522 -13.863   6.250  1.00  0.00     0.206 C 
HETATM    4  C   UNL     1      43.803 -13.428   6.983  1.00  0.00     0.035 C 
HETATM    5  C   UNL     1      44.365 -12.111   6.459  1.00  0.00     0.004 C 
HETATM    6  C   UNL     1      43.317 -11.008   6.523  1.00  0.00     0.028 C 
HETATM    7  C   UNL     1      42.022 -11.397   5.823  1.00  0.00     0.236 C 
ENDROOT
BRANCH   1   8
HETATM    8  C   UNL     1      40.110 -13.013   5.892  1.00  0.00     0.277 C 
BRANCH   8   9
HETATM    9  C   UNL     1      39.409 -11.861   5.274  1.00  0.00     0.012 A 
HETATM   10  C   UNL     1      39.258 -11.494   3.894  1.00  0.00     0.071 A 
HETATM   11  N   UNL     1      38.544 -10.365   3.789  1.00  0.00    -0.178 NA
HETATM   12  N   UNL     1      38.228 -10.017   5.037  1.00  0.00    -0.288 N 
HETATM   13  H   UNL     1      37.676  -9.175   5.182  1.00  0.00     0.188 HD
HETATM   14  C   UNL     1      38.710 -10.887   5.963  1.00  0.00     0.120 A 
BRANCH  10  15
HETATM   15  C   UNL     1      39.734 -12.177   2.606  1.00  0.00    -0.004 C 
HETATM   16  C   UNL     1      41.234 -11.896   2.334  1.00  0.00     0.021 C 
HETATM   17  C   UNL     1      38.931 -11.643   1.404  1.00  0.00     0.021 C 
HETATM   18  C   UNL     1      39.580 -13.707   2.674  1.00  0.00     0.021 C 
ENDBRANCH  10  15
ENDBRANCH   8   9
ENDBRANCH   1   8
BRANCH   3  19
HETATM   19  C   UNL     1      42.775 -14.296   4.776  1.00  0.00     0.156 C 
BRANCH  19  20
HETATM   20  N   UNL     1      43.168 -15.685   4.630  1.00  0.00    -0.355 N 
HETATM   21  C   UNL     1      43.152 -16.300   3.394  1.00  0.00     0.251 C 
HETATM   22  O   UNL     1      42.844 -15.697   2.372  1.00  0.00    -0.268 OA
HETATM   23  H   UNL     1      43.314 -16.253   5.459  1.00  0.00     0.162 HD
BRANCH  21  24
HETATM   24  C   UNL     1      43.421 -17.760   3.382  1.00  0.00     0.032 A 
HETATM   25  C   UNL     1      43.091 -18.487   2.232  1.00  0.00     0.017 A 
HETATM   26  C   UNL     1      43.280 -19.868   2.202  1.00  0.00     0.001 A 
HETATM   27  C   UNL     1      43.811 -20.524   3.314  1.00  0.00     0.000 A 
HETATM   28  C   UNL     1      44.162 -19.798   4.454  1.00  0.00     0.001 A 
HETATM   29  C   UNL     1      43.969 -18.416   4.491  1.00  0.00     0.017 A 
ENDBRANCH  21  24
ENDBRANCH  19  20
ENDBRANCH   3  19
TORSDOF 6
ENDMDL
MODEL 8
REMARK VINA RESULT:      -7.5      5.069      8.569
REMARK  6 active torsions:
REMARK  status: ('A' for Active; 'I' for Inactive)
REMARK    1  A    between atoms: C_2  and  C_3 
REMARK    2  A    between atoms: C_8  and  C_9 
REMARK    3  A    between atoms: C_9  and  N_10 
REMARK    4  A    between atoms: C_12  and  C_13 
REMARK    5  A    between atoms: C_13  and  N_14 
REMARK       I    between atoms: N_14  and  C_15 
REMARK    6  A    between atoms: C_15  and  C_16 
ROOT
HETATM    1  N   UNL     1      41.461 -13.472   4.481  1.00  0.00    -0.061 N 
HETATM    2  H   UNL     1      40.970 -14.331   4.752  1.00  0.00     0.280 HD
HETATM    3  C   UNL     1      41.182 -12.515   5.648  1.00  0.00     0.206 C 
HETATM    4  C   UNL     1      39.654 -12.372   5.764  1.00  0.00     0.035 C 
HETATM    5  C   UNL     1      39.003 -11.913   4.464  1.00  0.00     0.004 C 
HETATM    6  C   UNL     1      39.364 -12.846   3.315  1.00  0.00     0.028 C 
HETATM    7  C   UNL     1      40.867 -13.031   3.168  1.00  0.00     0.236 C 
ENDROOT
BRANCH   1   8
HETATM    8  C   UNL     1      42.904 -13.915   4.327  1.00  0.00     0.277 C 
BRANCH   8   9
HETATM    9  C   UNL     1      43.167 -15.309   4.761  1.00  0.00     0.012 A 
HETATM   10  C   UNL     1      43.064 -16.545   4.037  1.00  0.00     0.071 A 
HETATM   11  N   UNL     1      43.397 -17.575   4.827  1.00  0.00    -0.178 NA
HETATM   12  N   UNL     1      43.718 -17.041   6.006  1.00  0.00    -0.288 N 
HETATM   13  H   UNL     1      44.007 -17.661   6.758  1.00  0.00     0.188 HD
HETATM   14  C   UNL     1      43.611 -15.685   6.016  1.00  0.00     0.120 A 
BRANCH  10  15
HETATM   15  C   UNL     1      42.686 -16.837   2.580  1.00  0.00    -0.004 C 
HETATM   16  C   UNL     1      41.184 -16.558   2.314  1.00  0.00     0.021 C 
HETATM   17  C   UNL     1      42.952 -18.321   2.259  1.00  0.00     0.021 C 
HETATM   18  C   UNL     1      43.476 -15.960   1.593  1.00  0.00     0.021 C 
ENDBRANCH  10  15
ENDBRANCH   8   9
ENDBRANCH   1   8
BRANCH   3  19
HETATM   19  C   UNL     1      41.916 -11.150   5.498  1.00  0.00     0.156 C 
BRANCH  19  20
HETATM   20  N   UNL     1      42.257 -10.524   6.762  1.00  0.00    -0.355 N 
HETATM   21  C   UNL     1      43.553 -10.549   7.237  1.00  0.00     0.251 C 
HETATM   22  O   UNL     1      44.469 -11.061   6.602  1.00  0.00    -0.268 OA
HETATM   23  H   UNL     1      41.517 -10.195   7.373  1.00  0.00     0.162 HD
BRANCH  21  24
HETATM   24  C   UNL     1      43.762 -10.018   8.608  1.00  0.00     0.032 A 
HETATM   25  C   UNL     1      45.024 -10.169   9.194  1.00  0.00     0.017 A 
HETATM   26  C   UNL     1      45.243  -9.730  10.500  1.00  0.00     0.001 A 
HETATM   27  C   UNL     1      44.208  -9.128  11.216  1.00  0.00     0.000 A 
HETATM   28  C   UNL     1      42.955  -8.956  10.626  1.00  0.00     0.001 A 
HETATM   29  C   UNL     1      42.728  -9.398   9.321  1.00  0.00     0.017 A 
ENDBRANCH  21  24
ENDBRANCH  19  20
ENDBRANCH   3  19
TORSDOF 6
ENDMDL
MODEL 9
REMARK VINA RESULT:      -7.4      2.534      5.441
REMARK  6 active torsions:
REMARK  status: ('A' for Active; 'I' for Inactive)
REMARK    1  A    between atoms: C_2  and  C_3 
REMARK    2  A    between atoms: C_8  and  C_9 
REMARK    3  A    between atoms: C_9  and  N_10 
REMARK    4  A    between atoms: C_12  and  C_13 
REMARK    5  A    between atoms: C_13  and  N_14 
REMARK       I    between atoms: N_14  and  C_15 
REMARK    6  A    between atoms: C_15  and  C_16 
ROOT
HETATM    1  N   UNL     1      39.863 -12.149   1.302  1.00  0.00    -0.061 N 
HETATM    2  H   UNL     1      40.389 -11.321   1.005  1.00  0.00     0.280 HD
HETATM    3  C   UNL     1      40.620 -13.312   0.646  1.00  0.00     0.206 C 
HETATM    4  C   UNL     1      40.616 -13.058  -0.872  1.00  0.00     0.035 C 
HETATM    5  C   UNL     1      39.211 -12.884  -1.437  1.00  0.00     0.004 C 
HETATM    6  C   UNL     1      38.465 -11.772  -0.711  1.00  0.00     0.028 C 
HETATM    7  C   UNL     1      38.454 -11.970   0.798  1.00  0.00     0.236 C 
ENDROOT
BRANCH   1   8
HETATM    8  C   UNL     1      39.931 -12.096   2.818  1.00  0.00     0.277 C 
BRANCH   8   9
HETATM    9  C   UNL     1      40.771 -10.997   3.354  1.00  0.00     0.012 A 
HETATM   10  C   UNL     1      42.018 -11.041   4.067  1.00  0.00     0.071 A 
HETATM   11  N   UNL     1      42.426  -9.801   4.366  1.00  0.00    -0.178 NA
HETATM   12  N   UNL     1      41.502  -8.982   3.861  1.00  0.00    -0.288 N 
HETATM   13  H   UNL     1      41.624  -7.979   3.977  1.00  0.00     0.188 HD
HETATM   14  C   UNL     1      40.497  -9.648   3.232  1.00  0.00     0.120 A 
BRANCH  10  15
HETATM   15  C   UNL     1      42.907 -12.220   4.480  1.00  0.00    -0.004 C 
HETATM   16  C   UNL     1      43.319 -13.079   3.256  1.00  0.00     0.021 C 
HETATM   17  C   UNL     1      42.144 -13.133   5.458  1.00  0.00     0.021 C 
HETATM   18  C   UNL     1      44.213 -11.750   5.145  1.00  0.00     0.021 C 
ENDBRANCH  10  15
ENDBRANCH   8   9
ENDBRANCH   1   8
BRANCH   3  19
HETATM   19  C   UNL     1      40.046 -14.705   1.036  1.00  0.00     0.156 C 
BRANCH  19  20
HETATM   20  N   UNL     1      41.049 -15.647   1.498  1.00  0.00    -0.355 N 
HETATM   21  C   UNL     1      41.116 -16.015   2.827  1.00  0.00     0.251 C 
HETATM   22  O   UNL     1      40.318 -15.598   3.659  1.00  0.00    -0.268 OA
HETATM   23  H   UNL     1      41.800 -15.924   0.874  1.00  0.00     0.162 HD
BRANCH  21  24
HETATM   24  C   UNL     1      42.274 -16.859   3.218  1.00  0.00     0.032 A 
HETATM   25  C   UNL     1      42.661 -17.895   2.359  1.00  0.00     0.017 A 
HETATM   26  C   UNL     1      43.710 -18.742   2.717  1.00  0.00     0.001 A 
HETATM   27  C   UNL     1      44.382 -18.547   3.924  1.00  0.00     0.000 A 
HETATM   28  C   UNL     1      44.013 -17.501   4.772  1.00  0.00     0.001 A 
HETATM   29  C   UNL     1      42.960 -16.654   4.422  1.00  0.00     0.017 A 
ENDBRANCH  21  24
ENDBRANCH  19  20
ENDBRANCH   3  19
TORSDOF 6
ENDMDL
MODEL 10
REMARK VINA RESULT:      -7.4      4.871      6.687
REMARK  6 active torsions:
REMARK  status: ('A' for Active; 'I' for Inactive)
REMARK    1  A    between atoms: C_2  and  C_3 
REMARK    2  A    between atoms: C_8  and  C_9 
REMARK    3  A    between atoms: C_9  and  N_10 
REMARK    4  A    between atoms: C_12  and  C_13 
REMARK    5  A    between atoms: C_13  and  N_14 
REMARK       I    between atoms: N_14  and  C_15 
REMARK    6  A    between atoms: C_15  and  C_16 
ROOT
HETATM    1  N   UNL     1      42.338 -13.350   6.397  1.00  0.00    -0.061 N 
HETATM    2  H   UNL     1      41.744 -13.056   7.179  1.00  0.00     0.280 HD
HETATM    3  C   UNL     1      41.393 -14.187   5.522  1.00  0.00     0.206 C 
HETATM    4  C   UNL     1      40.865 -15.338   6.396  1.00  0.00     0.035 C 
HETATM    5  C   UNL     1      41.982 -16.173   7.012  1.00  0.00     0.004 C 
HETATM    6  C   UNL     1      42.940 -15.298   7.809  1.00  0.00     0.028 C 
HETATM    7  C   UNL     1      43.480 -14.133   6.991  1.00  0.00     0.236 C 
ENDROOT
BRANCH   1   8
HETATM    8  C   UNL     1      42.806 -12.041   5.789  1.00  0.00     0.277 C 
BRANCH   8   9
HETATM    9  C   UNL     1      42.585 -10.852   6.648  1.00  0.00     0.012 A 
HETATM   10  C   UNL     1      41.439  -9.997   6.776  1.00  0.00     0.071 A 
HETATM   11  N   UNL     1      41.677  -9.033   7.676  1.00  0.00    -0.178 NA
HETATM   12  N   UNL     1      42.911  -9.255   8.128  1.00  0.00    -0.288 N 
HETATM   13  H   UNL     1      43.291  -8.628   8.833  1.00  0.00     0.188 HD
HETATM   14  C   UNL     1      43.494 -10.342   7.555  1.00  0.00     0.120 A 
BRANCH  10  15
HETATM   15  C   UNL     1      40.062 -10.039   6.101  1.00  0.00    -0.004 C 
HETATM   16  C   UNL     1      39.206  -8.802   6.476  1.00  0.00     0.021 C 
HETATM   17  C   UNL     1      39.296 -11.296   6.558  1.00  0.00     0.021 C 
HETATM   18  C   UNL     1      40.172 -10.047   4.566  1.00  0.00     0.021 C 
ENDBRANCH  10  15
ENDBRANCH   8   9
ENDBRANCH   1   8
BRANCH   3  19
HETATM   19  C   UNL     1      42.063 -14.674   4.204  1.00  0.00     0.156 C 
BRANCH  19  20
HETATM   20  N   UNL     1      42.498 -16.058   4.244  1.00  0.00    -0.355 N 
HETATM   21  C   UNL     1      43.195 -16.611   3.188  1.00  0.00     0.251 C 
HETATM   22  O   UNL     1      43.505 -15.956   2.199  1.00  0.00    -0.268 OA
HETATM   23  H   UNL     1      42.164 -16.667   4.984  1.00  0.00     0.162 HD
BRANCH  21  24
HETATM   24  C   UNL     1      43.455 -18.072   3.264  1.00  0.00     0.032 A 
HETATM   25  C   UNL     1      43.146 -18.860   2.149  1.00  0.00     0.017 A 
HETATM   26  C   UNL     1      43.327 -20.242   2.202  1.00  0.00     0.001 A 
HETATM   27  C   UNL     1      43.829 -20.836   3.360  1.00  0.00     0.000 A 
HETATM   28  C   UNL     1      44.159 -20.050   4.465  1.00  0.00     0.001 A 
HETATM   29  C   UNL     1      43.974 -18.666   4.421  1.00  0.00     0.017 A 
ENDBRANCH  21  24
ENDBRANCH  19  20
ENDBRANCH   3  19
TORSDOF 6
ENDMDL
