MODEL 1
REMARK VINA RESULT:      -9.8      0.000      0.000
REMARK  4 active torsions:
REMARK  status: ('A' for Active; 'I' for Inactive)
REMARK    1  A    between atoms: C_5  and  C_6 
REMARK    2  A    between atoms: C_7  and  C_8 
REMARK       I    between atoms: C_8  and  N_9 
REMARK    3  A    between atoms: N_9  and  C_10 
REMARK    4  A    between atoms: C_17  and  C_18 
REMARK       I    between atoms: C_18  and  N_19 
ROOT
HETATM    1  C   UNL     1      42.031 -13.614   2.331  1.00  0.00     0.245 C 
HETATM    2  N   UNL     1      40.768 -14.015   1.946  1.00  0.00    -0.324 N 
HETATM    3  O   UNL     1      42.658 -12.644   1.927  1.00  0.00    -0.268 OA
HETATM    4  H   UNL     1      40.411 -14.866   2.359  1.00  0.00     0.169 HD
ENDROOT
BRANCH   2   5
HETATM    5  C   UNL     1      39.935 -13.411   0.978  1.00  0.00     0.035 A 
HETATM    6  C   UNL     1      39.565 -14.026  -0.226  1.00  0.00     0.046 A 
HETATM    7  C   UNL     1      38.705 -13.350  -1.121  1.00  0.00     0.030 A 
HETATM    8  C   UNL     1      38.248 -12.083  -0.782  1.00  0.00     0.063 A 
HETATM    9  C   UNL     1      38.118 -13.627  -2.392  1.00  0.00     0.156 A 
HETATM   10  N   UNL     1      37.445 -11.698  -1.819  1.00  0.00    -0.277 N 
HETATM   11  C   UNL     1      38.603 -11.436   0.401  1.00  0.00     0.034 A 
HETATM   12  H   UNL     1      36.936 -10.826  -1.909  1.00  0.00     0.189 HD
HETATM   13  N   UNL     1      37.341 -12.600  -2.808  1.00  0.00    -0.168 NA
HETATM   14  C   UNL     1      39.457 -12.125   1.271  1.00  0.00     0.032 A 
BRANCH   9  15
HETATM   15  C   UNL     1      38.277 -14.837  -3.211  1.00  0.00     0.270 C 
HETATM   16  N   UNL     1      38.398 -15.991  -2.485  1.00  0.00    -0.365 N 
HETATM   17  H   UNL     1      38.370 -15.933  -1.474  1.00  0.00     0.159 HD
HETATM   18  H   UNL     1      38.508 -16.872  -2.963  1.00  0.00     0.159 HD
HETATM   19  O   UNL     1      38.301 -14.855  -4.437  1.00  0.00    -0.266 OA
ENDBRANCH   9  15
ENDBRANCH   2   5
BRANCH   1  20
HETATM   20  C   UNL     1      42.628 -14.549   3.325  1.00  0.00     0.075 C 
HETATM   21  C   UNL     1      42.520 -15.872   3.128  1.00  0.00     0.018 C 
BRANCH  21  22
HETATM   22  C   UNL     1      43.059 -16.884   4.055  1.00  0.00    -0.025 A 
HETATM   23  C   UNL     1      43.319 -18.219   3.632  1.00  0.00    -0.016 A 
HETATM   24  C   UNL     1      43.769 -19.163   4.592  1.00  0.00    -0.025 A 
HETATM   25  C   UNL     1      43.162 -18.670   2.299  1.00  0.00     0.013 A 
HETATM   26  C   UNL     1      44.026 -20.490   4.210  1.00  0.00     0.012 A 
HETATM   27  C   UNL     1      43.954 -18.769   5.926  1.00  0.00     0.012 A 
HETATM   28  C   UNL     1      43.850 -20.904   2.890  1.00  0.00     0.001 A 
HETATM   29  C   UNL     1      43.420 -19.993   1.934  1.00  0.00     0.001 A 
HETATM   30  C   UNL     1      43.694 -17.463   6.329  1.00  0.00     0.002 A 
HETATM   31  C   UNL     1      43.244 -16.529   5.401  1.00  0.00     0.012 A 
ENDBRANCH  21  22
ENDBRANCH   1  20
TORSDOF 4
ENDMDL
MODEL 2
REMARK VINA RESULT:      -9.4      2.174      3.100
REMARK  4 active torsions:
REMARK  status: ('A' for Active; 'I' for Inactive)
REMARK    1  A    between atoms: C_5  and  C_6 
REMARK    2  A    between atoms: C_7  and  C_8 
REMARK       I    between atoms: C_8  and  N_9 
REMARK    3  A    between atoms: N_9  and  C_10 
REMARK    4  A    between atoms: C_17  and  C_18 
REMARK       I    between atoms: C_18  and  N_19 
ROOT
HETATM    1  C   UNL     1      40.129 -14.550   2.241  1.00  0.00     0.245 C 
HETATM    2  N   UNL     1      40.637 -14.648   0.961  1.00  0.00    -0.324 N 
HETATM    3  O   UNL     1      39.248 -13.800   2.636  1.00  0.00    -0.268 OA
HETATM    4  H   UNL     1      41.393 -15.303   0.816  1.00  0.00     0.169 HD
ENDROOT
BRANCH   2   5
HETATM    5  C   UNL     1      40.273 -13.877  -0.166  1.00  0.00     0.035 A 
HETATM    6  C   UNL     1      40.681 -12.552  -0.370  1.00  0.00     0.046 A 
HETATM    7  C   UNL     1      40.285 -11.872  -1.544  1.00  0.00     0.030 A 
HETATM    8  C   UNL     1      39.493 -12.539  -2.470  1.00  0.00     0.063 A 
HETATM    9  C   UNL     1      40.487 -10.572  -2.099  1.00  0.00     0.156 A 
HETATM   10  N   UNL     1      39.286 -11.644  -3.482  1.00  0.00    -0.277 N 
HETATM   11  C   UNL     1      39.059 -13.854  -2.295  1.00  0.00     0.034 A 
HETATM   12  H   UNL     1      38.753 -11.792  -4.331  1.00  0.00     0.189 HD
HETATM   13  N   UNL     1      39.867 -10.449  -3.296  1.00  0.00    -0.168 NA
HETATM   14  C   UNL     1      39.464 -14.506  -1.124  1.00  0.00     0.032 A 
BRANCH   9  15
HETATM   15  C   UNL     1      41.253  -9.458  -1.523  1.00  0.00     0.270 C 
HETATM   16  N   UNL     1      40.567  -8.274  -1.476  1.00  0.00    -0.365 N 
HETATM   17  H   UNL     1      39.617  -8.251  -1.827  1.00  0.00     0.159 HD
HETATM   18  H   UNL     1      41.011  -7.455  -1.093  1.00  0.00     0.159 HD
HETATM   19  O   UNL     1      42.403  -9.540  -1.107  1.00  0.00    -0.266 OA
ENDBRANCH   9  15
ENDBRANCH   2   5
BRANCH   1  20
HETATM   20  C   UNL     1      40.819 -15.479   3.179  1.00  0.00     0.075 C 
HETATM   21  C   UNL     1      42.132 -15.708   3.030  1.00  0.00     0.018 C 
BRANCH  21  22
HETATM   22  C   UNL     1      42.908 -16.619   3.891  1.00  0.00    -0.025 A 
HETATM   23  C   UNL     1      43.186 -17.960   3.498  1.00  0.00    -0.016 A 
HETATM   24  C   UNL     1      43.876 -18.806   4.405  1.00  0.00    -0.025 A 
HETATM   25  C   UNL     1      42.820 -18.508   2.246  1.00  0.00     0.013 A 
HETATM   26  C   UNL     1      44.157 -20.136   4.053  1.00  0.00     0.012 A 
HETATM   27  C   UNL     1      44.274 -18.313   5.658  1.00  0.00     0.012 A 
HETATM   28  C   UNL     1      43.772 -20.648   2.815  1.00  0.00     0.001 A 
HETATM   29  C   UNL     1      43.106 -19.833   1.910  1.00  0.00     0.001 A 
HETATM   30  C   UNL     1      43.995 -17.002   6.032  1.00  0.00     0.002 A 
HETATM   31  C   UNL     1      43.312 -16.163   5.157  1.00  0.00     0.012 A 
ENDBRANCH  21  22
ENDBRANCH   1  20
TORSDOF 4
ENDMDL
MODEL 3
REMARK VINA RESULT:      -9.3      2.522      3.868
REMARK  4 active torsions:
REMARK  status: ('A' for Active; 'I' for Inactive)
REMARK    1  A    between atoms: C_5  and  C_6 
REMARK    2  A    between atoms: C_7  and  C_8 
REMARK       I    between atoms: C_8  and  N_9 
REMARK    3  A    between atoms: N_9  and  C_10 
REMARK    4  A    between atoms: C_17  and  C_18 
REMARK       I    between atoms: C_18  and  N_19 
ROOT
HETATM    1  C   UNL     1      40.682 -14.169   1.056  1.00  0.00     0.245 C 
HETATM    2  N   UNL     1      40.876 -13.975  -0.296  1.00  0.00    -0.324 N 
HETATM    3  O   UNL     1      39.806 -13.684   1.759  1.00  0.00    -0.268 OA
HETATM    4  H   UNL     1      41.676 -14.430  -0.715  1.00  0.00     0.169 HD
ENDROOT
BRANCH   2   5
HETATM    5  C   UNL     1      40.124 -13.148  -1.160  1.00  0.00     0.035 A 
HETATM    6  C   UNL     1      40.603 -11.948  -1.703  1.00  0.00     0.046 A 
HETATM    7  C   UNL     1      39.783 -11.201  -2.579  1.00  0.00     0.030 A 
HETATM    8  C   UNL     1      38.514 -11.678  -2.879  1.00  0.00     0.063 A 
HETATM    9  C   UNL     1      39.902  -9.982  -3.313  1.00  0.00     0.156 A 
HETATM   10  N   UNL     1      37.976 -10.764  -3.741  1.00  0.00    -0.277 N 
HETATM   11  C   UNL     1      38.000 -12.862  -2.349  1.00  0.00     0.034 A 
HETATM   12  H   UNL     1      37.059 -10.792  -4.171  1.00  0.00     0.189 HD
HETATM   13  N   UNL     1      38.780  -9.728  -4.026  1.00  0.00    -0.168 NA
HETATM   14  C   UNL     1      38.831 -13.584  -1.483  1.00  0.00     0.032 A 
BRANCH   9  15
HETATM   15  C   UNL     1      41.049  -9.064  -3.351  1.00  0.00     0.270 C 
HETATM   16  N   UNL     1      41.414  -8.678  -4.612  1.00  0.00    -0.365 N 
HETATM   17  H   UNL     1      40.889  -9.037  -5.400  1.00  0.00     0.159 HD
HETATM   18  H   UNL     1      42.190  -8.047  -4.736  1.00  0.00     0.159 HD
HETATM   19  O   UNL     1      41.651  -8.654  -2.364  1.00  0.00    -0.266 OA
ENDBRANCH   9  15
ENDBRANCH   2   5
BRANCH   1  20
HETATM   20  C   UNL     1      41.727 -15.055   1.642  1.00  0.00     0.075 C 
HETATM   21  C   UNL     1      41.353 -16.102   2.392  1.00  0.00     0.018 C 
BRANCH  21  22
HETATM   22  C   UNL     1      42.303 -17.031   3.032  1.00  0.00    -0.025 A 
HETATM   23  C   UNL     1      42.564 -16.984   4.432  1.00  0.00    -0.016 A 
HETATM   24  C   UNL     1      43.543 -17.859   4.972  1.00  0.00    -0.025 A 
HETATM   25  C   UNL     1      41.898 -16.116   5.330  1.00  0.00     0.013 A 
HETATM   26  C   UNL     1      43.831 -17.831   6.346  1.00  0.00     0.012 A 
HETATM   27  C   UNL     1      44.226 -18.749   4.130  1.00  0.00     0.012 A 
HETATM   28  C   UNL     1      43.165 -16.955   7.202  1.00  0.00     0.001 A 
HETATM   29  C   UNL     1      42.197 -16.100   6.695  1.00  0.00     0.001 A 
HETATM   30  C   UNL     1      43.965 -18.785   2.764  1.00  0.00     0.002 A 
HETATM   31  C   UNL     1      43.015 -17.928   2.218  1.00  0.00     0.012 A 
ENDBRANCH  21  22
ENDBRANCH   1  20
TORSDOF 4
ENDMDL
MODEL 4
REMARK VINA RESULT:      -9.3      1.781      2.681
REMARK  4 active torsions:
REMARK  status: ('A' for Active; 'I' for Inactive)
REMARK    1  A    between atoms: C_5  and  C_6 
REMARK    2  A    between atoms: C_7  and  C_8 
REMARK       I    between atoms: C_8  and  N_9 
REMARK    3  A    between atoms: N_9  and  C_10 
REMARK    4  A    between atoms: C_17  and  C_18 
REMARK       I    between atoms: C_18  and  N_19 
ROOT
HETATM    1  C   UNL     1      41.581 -13.480   1.261  1.00  0.00     0.245 C 
HETATM    2  N   UNL     1      40.719 -14.310   0.575  1.00  0.00    -0.324 N 
HETATM    3  O   UNL     1      41.663 -12.262   1.182  1.00  0.00    -0.268 OA
HETATM    4  H   UNL     1      40.810 -15.304   0.738  1.00  0.00     0.169 HD
ENDROOT
BRANCH   2   5
HETATM    5  C   UNL     1      39.762 -13.937  -0.396  1.00  0.00     0.035 A 
HETATM    6  C   UNL     1      39.064 -12.722  -0.377  1.00  0.00     0.046 A 
HETATM    7  C   UNL     1      38.144 -12.428  -1.408  1.00  0.00     0.030 A 
HETATM    8  C   UNL     1      37.952 -13.360  -2.420  1.00  0.00     0.063 A 
HETATM    9  C   UNL     1      37.276 -11.343  -1.736  1.00  0.00     0.156 A 
HETATM   10  N   UNL     1      37.029 -12.801  -3.259  1.00  0.00    -0.277 N 
HETATM   11  C   UNL     1      38.620 -14.584  -2.466  1.00  0.00     0.034 A 
HETATM   12  H   UNL     1      36.653 -13.201  -4.111  1.00  0.00     0.189 HD
HETATM   13  N   UNL     1      36.598 -11.587  -2.882  1.00  0.00    -0.168 NA
HETATM   14  C   UNL     1      39.526 -14.853  -1.432  1.00  0.00     0.032 A 
BRANCH   9  15
HETATM   15  C   UNL     1      37.081 -10.091  -0.991  1.00  0.00     0.270 C 
HETATM   16  N   UNL     1      38.092  -9.182  -1.153  1.00  0.00    -0.365 N 
HETATM   17  H   UNL     1      38.872  -9.427  -1.751  1.00  0.00     0.159 HD
HETATM   18  H   UNL     1      38.043  -8.293  -0.682  1.00  0.00     0.159 HD
HETATM   19  O   UNL     1      36.114  -9.843  -0.280  1.00  0.00    -0.266 OA
ENDBRANCH   9  15
ENDBRANCH   2   5
BRANCH   1  20
HETATM   20  C   UNL     1      42.498 -14.250   2.147  1.00  0.00     0.075 C 
HETATM   21  C   UNL     1      42.028 -15.317   2.812  1.00  0.00     0.018 C 
BRANCH  21  22
HETATM   22  C   UNL     1      42.843 -16.138   3.725  1.00  0.00    -0.025 A 
HETATM   23  C   UNL     1      43.147 -17.499   3.434  1.00  0.00    -0.016 A 
HETATM   24  C   UNL     1      43.876 -18.253   4.390  1.00  0.00    -0.025 A 
HETATM   25  C   UNL     1      42.768 -18.153   2.237  1.00  0.00     0.013 A 
HETATM   26  C   UNL     1      44.183 -19.601   4.138  1.00  0.00     0.012 A 
HETATM   27  C   UNL     1      44.287 -17.653   5.590  1.00  0.00     0.012 A 
HETATM   28  C   UNL     1      43.786 -20.219   2.953  1.00  0.00     0.001 A 
HETATM   29  C   UNL     1      43.081 -19.494   2.001  1.00  0.00     0.001 A 
HETATM   30  C   UNL     1      43.983 -16.323   5.865  1.00  0.00     0.002 A 
HETATM   31  C   UNL     1      43.261 -15.573   4.942  1.00  0.00     0.012 A 
ENDBRANCH  21  22
ENDBRANCH   1  20
TORSDOF 4
ENDMDL
MODEL 5
REMARK VINA RESULT:      -9.1      1.949      3.519
REMARK  4 active torsions:
REMARK  status: ('A' for Active; 'I' for Inactive)
REMARK    1  A    between atoms: C_5  and  C_6 
REMARK    2  A    between atoms: C_7  and  C_8 
REMARK       I    between atoms: C_8  and  N_9 
REMARK    3  A    between atoms: N_9  and  C_10 
REMARK    4  A    between atoms: C_17  and  C_18 
REMARK       I    between atoms: C_18  and  N_19 
ROOT
HETATM    1  C   UNL     1      41.597 -13.933   1.054  1.00  0.00     0.245 C 
HETATM    2  N   UNL     1      40.743 -14.465   0.110  1.00  0.00    -0.324 N 
HETATM    3  O   UNL     1      41.726 -12.756   1.361  1.00  0.00    -0.268 OA
HETATM    4  H   UNL     1      40.790 -15.463  -0.043  1.00  0.00     0.169 HD
ENDROOT
BRANCH   2   5
HETATM    5  C   UNL     1      39.852 -13.762  -0.732  1.00  0.00     0.035 A 
HETATM    6  C   UNL     1      39.064 -12.683  -0.308  1.00  0.00     0.046 A 
HETATM    7  C   UNL     1      38.222 -12.026  -1.232  1.00  0.00     0.030 A 
HETATM    8  C   UNL     1      38.194 -12.472  -2.548  1.00  0.00     0.063 A 
HETATM    9  C   UNL     1      37.305 -10.932  -1.194  1.00  0.00     0.156 A 
HETATM   10  N   UNL     1      37.312 -11.650  -3.191  1.00  0.00    -0.277 N 
HETATM   11  C   UNL     1      38.957 -13.547  -3.004  1.00  0.00     0.034 A 
HETATM   12  H   UNL     1      37.046 -11.681  -4.169  1.00  0.00     0.189 HD
HETATM   13  N   UNL     1      36.755 -10.711  -2.411  1.00  0.00    -0.168 NA
HETATM   14  C   UNL     1      39.783 -14.183  -2.068  1.00  0.00     0.032 A 
BRANCH   9  15
HETATM   15  C   UNL     1      36.948 -10.099  -0.037  1.00  0.00     0.270 C 
HETATM   16  N   UNL     1      36.420 -10.799   1.013  1.00  0.00    -0.365 N 
HETATM   17  H   UNL     1      36.316 -11.803   0.924  1.00  0.00     0.159 HD
HETATM   18  H   UNL     1      36.148 -10.310   1.851  1.00  0.00     0.159 HD
HETATM   19  O   UNL     1      37.096  -8.883   0.023  1.00  0.00    -0.266 OA
ENDBRANCH   9  15
ENDBRANCH   2   5
BRANCH   1  20
HETATM   20  C   UNL     1      42.438 -14.985   1.690  1.00  0.00     0.075 C 
HETATM   21  C   UNL     1      41.844 -16.039   2.271  1.00  0.00     0.018 C 
BRANCH  21  22
HETATM   22  C   UNL     1      42.579 -17.126   2.943  1.00  0.00    -0.025 A 
HETATM   23  C   UNL     1      42.776 -17.133   4.354  1.00  0.00    -0.016 A 
HETATM   24  C   UNL     1      43.554 -18.171   4.928  1.00  0.00    -0.025 A 
HETATM   25  C   UNL     1      42.235 -16.162   5.231  1.00  0.00     0.013 A 
HETATM   26  C   UNL     1      43.776 -18.202   6.314  1.00  0.00     0.012 A 
HETATM   27  C   UNL     1      44.107 -19.167   4.107  1.00  0.00     0.012 A 
HETATM   28  C   UNL     1      43.237 -17.224   7.150  1.00  0.00     0.001 A 
HETATM   29  C   UNL     1      42.464 -16.206   6.608  1.00  0.00     0.001 A 
HETATM   30  C   UNL     1      43.910 -19.149   2.730  1.00  0.00     0.002 A 
HETATM   31  C   UNL     1      43.157 -18.132   2.152  1.00  0.00     0.012 A 
ENDBRANCH  21  22
ENDBRANCH   1  20
TORSDOF 4
ENDMDL
MODEL 6
REMARK VINA RESULT:      -9.1      6.720      9.844
REMARK  4 active torsions:
REMARK  status: ('A' for Active; 'I' for Inactive)
REMARK    1  A    between atoms: C_5  and  C_6 
REMARK    2  A    between atoms: C_7  and  C_8 
REMARK       I    between atoms: C_8  and  N_9 
REMARK    3  A    between atoms: N_9  and  C_10 
REMARK    4  A    between atoms: C_17  and  C_18 
REMARK       I    between atoms: C_18  and  N_19 
ROOT
HETATM    1  C   UNL     1      44.099 -12.034   6.983  1.00  0.00     0.245 C 
HETATM    2  N   UNL     1      43.165 -13.041   6.850  1.00  0.00    -0.324 N 
HETATM    3  O   UNL     1      45.264 -12.046   6.612  1.00  0.00    -0.268 OA
HETATM    4  H   UNL     1      42.250 -12.874   7.247  1.00  0.00     0.169 HD
ENDROOT
BRANCH   2   5
HETATM    5  C   UNL     1      43.360 -14.321   6.284  1.00  0.00     0.035 A 
HETATM    6  C   UNL     1      43.003 -14.656   4.971  1.00  0.00     0.046 A 
HETATM    7  C   UNL     1      43.263 -15.958   4.487  1.00  0.00     0.030 A 
HETATM    8  C   UNL     1      43.867 -16.880   5.333  1.00  0.00     0.063 A 
HETATM    9  C   UNL     1      43.061 -16.660   3.260  1.00  0.00     0.156 A 
HETATM   10  N   UNL     1      43.994 -18.022   4.594  1.00  0.00    -0.277 N 
HETATM   11  C   UNL     1      44.226 -16.585   6.649  1.00  0.00     0.034 A 
HETATM   12  H   UNL     1      44.398 -18.903   4.892  1.00  0.00     0.189 HD
HETATM   13  N   UNL     1      43.520 -17.930   3.342  1.00  0.00    -0.168 NA
HETATM   14  C   UNL     1      43.958 -15.288   7.105  1.00  0.00     0.032 A 
BRANCH   9  15
HETATM   15  C   UNL     1      42.451 -16.152   2.024  1.00  0.00     0.270 C 
HETATM   16  N   UNL     1      43.345 -15.611   1.140  1.00  0.00    -0.365 N 
HETATM   17  H   UNL     1      44.327 -15.600   1.390  1.00  0.00     0.159 HD
HETATM   18  H   UNL     1      43.017 -15.240   0.263  1.00  0.00     0.159 HD
HETATM   19  O   UNL     1      41.252 -16.192   1.767  1.00  0.00    -0.266 OA
ENDBRANCH   9  15
ENDBRANCH   2   5
BRANCH   1  20
HETATM   20  C   UNL     1      43.540 -10.855   7.702  1.00  0.00     0.075 C 
HETATM   21  C   UNL     1      44.326 -10.166   8.543  1.00  0.00     0.018 C 
BRANCH  21  22
HETATM   22  C   UNL     1      43.871  -8.996   9.316  1.00  0.00    -0.025 A 
HETATM   23  C   UNL     1      43.394  -9.125  10.652  1.00  0.00    -0.016 A 
HETATM   24  C   UNL     1      42.903  -7.969  11.315  1.00  0.00    -0.025 A 
HETATM   25  C   UNL     1      43.382 -10.344  11.372  1.00  0.00     0.013 A 
HETATM   26  C   UNL     1      42.416  -8.064  12.629  1.00  0.00     0.012 A 
HETATM   27  C   UNL     1      42.901  -6.732  10.654  1.00  0.00     0.012 A 
HETATM   28  C   UNL     1      42.409  -9.283  13.306  1.00  0.00     0.001 A 
HETATM   29  C   UNL     1      42.894 -10.422  12.678  1.00  0.00     0.001 A 
HETATM   30  C   UNL     1      43.367  -6.617   9.348  1.00  0.00     0.002 A 
HETATM   31  C   UNL     1      43.843  -7.743   8.682  1.00  0.00     0.012 A 
ENDBRANCH  21  22
ENDBRANCH   1  20
TORSDOF 4
ENDMDL
MODEL 7
REMARK VINA RESULT:      -8.9      5.291      8.143
REMARK  4 active torsions:
REMARK  status: ('A' for Active; 'I' for Inactive)
REMARK    1  A    between atoms: C_5  and  C_6 
REMARK    2  A    between atoms: C_7  and  C_8 
REMARK       I    between atoms: C_8  and  N_9 
REMARK    3  A    between atoms: N_9  and  C_10 
REMARK    4  A    between atoms: C_17  and  C_18 
REMARK       I    between atoms: C_18  and  N_19 
ROOT
HETATM    1  C   UNL     1      41.031 -13.399   5.794  1.00  0.00     0.245 C 
HETATM    2  N   UNL     1      41.984 -12.436   5.534  1.00  0.00    -0.324 N 
HETATM    3  O   UNL     1      40.098 -13.328   6.582  1.00  0.00    -0.268 OA
HETATM    4  H   UNL     1      42.711 -12.675   4.872  1.00  0.00     0.169 HD
ENDROOT
BRANCH   2   5
HETATM    5  C   UNL     1      42.109 -11.167   6.143  1.00  0.00     0.035 A 
HETATM    6  C   UNL     1      43.220 -10.773   6.902  1.00  0.00     0.046 A 
HETATM    7  C   UNL     1      43.264  -9.472   7.451  1.00  0.00     0.030 A 
HETATM    8  C   UNL     1      42.197  -8.612   7.225  1.00  0.00     0.063 A 
HETATM    9  C   UNL     1      44.182  -8.720   8.247  1.00  0.00     0.156 A 
HETATM   10  N   UNL     1      42.527  -7.448   7.861  1.00  0.00    -0.277 N 
HETATM   11  C   UNL     1      41.071  -8.973   6.485  1.00  0.00     0.034 A 
HETATM   12  H   UNL     1      41.980  -6.596   7.903  1.00  0.00     0.189 HD
HETATM   13  N   UNL     1      43.713  -7.473   8.488  1.00  0.00    -0.168 NA
HETATM   14  C   UNL     1      41.050 -10.269   5.952  1.00  0.00     0.032 A 
BRANCH   9  15
HETATM   15  C   UNL     1      45.482  -9.157   8.774  1.00  0.00     0.270 C 
HETATM   16  N   UNL     1      46.491  -9.149   7.849  1.00  0.00    -0.365 N 
HETATM   17  H   UNL     1      46.279  -8.854   6.904  1.00  0.00     0.159 HD
HETATM   18  H   UNL     1      47.419  -9.431   8.121  1.00  0.00     0.159 HD
HETATM   19  O   UNL     1      45.687  -9.503   9.932  1.00  0.00    -0.266 OA
ENDBRANCH   9  15
ENDBRANCH   2   5
BRANCH   1  20
HETATM   20  C   UNL     1      41.271 -14.640   5.006  1.00  0.00     0.075 C 
HETATM   21  C   UNL     1      42.532 -15.043   4.784  1.00  0.00     0.018 C 
BRANCH  21  22
HETATM   22  C   UNL     1      42.882 -16.244   4.005  1.00  0.00    -0.025 A 
HETATM   23  C   UNL     1      43.202 -17.478   4.641  1.00  0.00    -0.016 A 
HETATM   24  C   UNL     1      43.601 -18.577   3.835  1.00  0.00    -0.025 A 
HETATM   25  C   UNL     1      43.143 -17.684   6.041  1.00  0.00     0.013 A 
HETATM   26  C   UNL     1      43.933 -19.804   4.431  1.00  0.00     0.012 A 
HETATM   27  C   UNL     1      43.667 -18.434   2.441  1.00  0.00     0.012 A 
HETATM   28  C   UNL     1      43.874 -19.970   5.814  1.00  0.00     0.001 A 
HETATM   29  C   UNL     1      43.476 -18.911   6.619  1.00  0.00     0.001 A 
HETATM   30  C   UNL     1      43.355 -17.223   1.830  1.00  0.00     0.002 A 
HETATM   31  C   UNL     1      42.971 -16.135   2.608  1.00  0.00     0.012 A 
ENDBRANCH  21  22
ENDBRANCH   1  20
TORSDOF 4
ENDMDL
MODEL 8
REMARK VINA RESULT:      -8.6      3.640      5.218
REMARK  4 active torsions:
REMARK  status: ('A' for Active; 'I' for Inactive)
REMARK    1  A    between atoms: C_5  and  C_6 
REMARK    2  A    between atoms: C_7  and  C_8 
REMARK       I    between atoms: C_8  and  N_9 
REMARK    3  A    between atoms: N_9  and  C_10 
REMARK    4  A    between atoms: C_17  and  C_18 
REMARK       I    between atoms: C_18  and  N_19 
ROOT
HETATM    1  C   UNL     1      41.458 -14.336   4.541  1.00  0.00     0.245 C 
HETATM    2  N   UNL     1      40.118 -14.072   4.342  1.00  0.00    -0.324 N 
HETATM    3  O   UNL     1      42.393 -13.554   4.442  1.00  0.00    -0.268 OA
HETATM    4  H   UNL     1      39.478 -14.850   4.433  1.00  0.00     0.169 HD
ENDROOT
BRANCH   2   5
HETATM    5  C   UNL     1      39.536 -12.846   3.949  1.00  0.00     0.035 A 
HETATM    6  C   UNL     1      39.487 -11.708   4.766  1.00  0.00     0.046 A 
HETATM    7  C   UNL     1      38.905 -10.519   4.273  1.00  0.00     0.030 A 
HETATM    8  C   UNL     1      38.390 -10.509   2.983  1.00  0.00     0.063 A 
HETATM    9  C   UNL     1      38.675  -9.201   4.772  1.00  0.00     0.156 A 
HETATM   10  N   UNL     1      37.914  -9.242   2.791  1.00  0.00    -0.277 N 
HETATM   11  C   UNL     1      38.412 -11.624   2.146  1.00  0.00     0.034 A 
HETATM   12  H   UNL     1      37.471  -8.873   1.958  1.00  0.00     0.189 HD
HETATM   13  N   UNL     1      38.066  -8.425   3.845  1.00  0.00    -0.168 NA
HETATM   14  C   UNL     1      38.993 -12.792   2.657  1.00  0.00     0.032 A 
BRANCH   9  15
HETATM   15  C   UNL     1      39.022  -8.668   6.097  1.00  0.00     0.270 C 
HETATM   16  N   UNL     1      40.325  -8.879   6.460  1.00  0.00    -0.365 N 
HETATM   17  H   UNL     1      40.935  -9.367   5.815  1.00  0.00     0.159 HD
HETATM   18  H   UNL     1      40.654  -8.545   7.352  1.00  0.00     0.159 HD
HETATM   19  O   UNL     1      38.245  -8.080   6.841  1.00  0.00    -0.266 OA
ENDBRANCH   9  15
ENDBRANCH   2   5
BRANCH   1  20
HETATM   20  C   UNL     1      41.693 -15.769   4.875  1.00  0.00     0.075 C 
HETATM   21  C   UNL     1      42.941 -16.259   4.822  1.00  0.00     0.018 C 
BRANCH  21  22
HETATM   22  C   UNL     1      43.284 -17.662   5.116  1.00  0.00    -0.025 A 
HETATM   23  C   UNL     1      43.469 -18.618   4.076  1.00  0.00    -0.016 A 
HETATM   24  C   UNL     1      43.726 -19.968   4.430  1.00  0.00    -0.025 A 
HETATM   25  C   UNL     1      43.419 -18.304   2.697  1.00  0.00     0.013 A 
HETATM   26  C   UNL     1      43.904 -20.938   3.429  1.00  0.00     0.012 A 
HETATM   27  C   UNL     1      43.798 -20.336   5.783  1.00  0.00     0.012 A 
HETATM   28  C   UNL     1      43.837 -20.597   2.079  1.00  0.00     0.001 A 
HETATM   29  C   UNL     1      43.597 -19.279   1.713  1.00  0.00     0.001 A 
HETATM   30  C   UNL     1      43.613 -19.394   6.790  1.00  0.00     0.002 A 
HETATM   31  C   UNL     1      43.351 -18.068   6.459  1.00  0.00     0.012 A 
ENDBRANCH  21  22
ENDBRANCH   1  20
TORSDOF 4
ENDMDL
MODEL 9
REMARK VINA RESULT:      -8.4      3.202      9.574
REMARK  4 active torsions:
REMARK  status: ('A' for Active; 'I' for Inactive)
REMARK    1  A    between atoms: C_5  and  C_6 
REMARK    2  A    between atoms: C_7  and  C_8 
REMARK       I    between atoms: C_8  and  N_9 
REMARK    3  A    between atoms: N_9  and  C_10 
REMARK    4  A    between atoms: C_17  and  C_18 
REMARK       I    between atoms: C_18  and  N_19 
ROOT
HETATM    1  C   UNL     1      40.463 -15.184   0.752  1.00  0.00     0.245 C 
HETATM    2  N   UNL     1      41.756 -14.981   1.189  1.00  0.00    -0.324 N 
HETATM    3  O   UNL     1      39.652 -15.993   1.181  1.00  0.00    -0.268 OA
HETATM    4  H   UNL     1      42.304 -14.289   0.695  1.00  0.00     0.169 HD
ENDROOT
BRANCH   2   5
HETATM    5  C   UNL     1      42.437 -15.685   2.206  1.00  0.00     0.035 A 
HETATM    6  C   UNL     1      42.677 -15.167   3.487  1.00  0.00     0.046 A 
HETATM    7  C   UNL     1      43.346 -15.959   4.447  1.00  0.00     0.030 A 
HETATM    8  C   UNL     1      43.754 -17.239   4.093  1.00  0.00     0.063 A 
HETATM    9  C   UNL     1      43.759 -15.803   5.805  1.00  0.00     0.156 A 
HETATM   10  N   UNL     1      44.352 -17.752   5.210  1.00  0.00    -0.277 N 
HETATM   11  C   UNL     1      43.543 -17.783   2.826  1.00  0.00     0.034 A 
HETATM   12  H   UNL     1      44.765 -18.671   5.317  1.00  0.00     0.189 HD
HETATM   13  N   UNL     1      44.375 -16.918   6.261  1.00  0.00    -0.168 NA
HETATM   14  C   UNL     1      42.879 -16.978   1.891  1.00  0.00     0.032 A 
BRANCH   9  15
HETATM   15  C   UNL     1      43.580 -14.627   6.669  1.00  0.00     0.270 C 
HETATM   16  N   UNL     1      42.701 -14.821   7.700  1.00  0.00    -0.365 N 
HETATM   17  H   UNL     1      42.254 -15.725   7.793  1.00  0.00     0.159 HD
HETATM   18  H   UNL     1      42.518 -14.070   8.346  1.00  0.00     0.159 HD
HETATM   19  O   UNL     1      44.149 -13.552   6.515  1.00  0.00    -0.266 OA
ENDBRANCH   9  15
ENDBRANCH   2   5
BRANCH   1  20
HETATM   20  C   UNL     1      40.122 -14.297  -0.395  1.00  0.00     0.075 C 
HETATM   21  C   UNL     1      39.541 -13.111  -0.158  1.00  0.00     0.018 C 
BRANCH  21  22
HETATM   22  C   UNL     1      39.149 -12.165  -1.218  1.00  0.00    -0.025 A 
HETATM   23  C   UNL     1      39.968 -11.052  -1.565  1.00  0.00    -0.016 A 
HETATM   24  C   UNL     1      39.497 -10.140  -2.545  1.00  0.00    -0.025 A 
HETATM   25  C   UNL     1      41.238 -10.798  -0.994  1.00  0.00     0.013 A 
HETATM   26  C   UNL     1      40.276  -9.027  -2.903  1.00  0.00     0.012 A 
HETATM   27  C   UNL     1      38.250 -10.348  -3.154  1.00  0.00     0.012 A 
HETATM   28  C   UNL     1      41.518  -8.799  -2.313  1.00  0.00     0.001 A 
HETATM   29  C   UNL     1      42.000  -9.686  -1.360  1.00  0.00     0.001 A 
HETATM   30  C   UNL     1      37.457 -11.437  -2.805  1.00  0.00     0.002 A 
HETATM   31  C   UNL     1      37.901 -12.335  -1.839  1.00  0.00     0.012 A 
ENDBRANCH  21  22
ENDBRANCH   1  20
TORSDOF 4
ENDMDL
MODEL 10
REMARK VINA RESULT:      -8.3     15.117     17.156
REMARK  4 active torsions:
REMARK  status: ('A' for Active; 'I' for Inactive)
REMARK    1  A    between atoms: C_5  and  C_6 
REMARK    2  A    between atoms: C_7  and  C_8 
REMARK       I    between atoms: C_8  and  N_9 
REMARK    3  A    between atoms: N_9  and  C_10 
REMARK    4  A    between atoms: C_17  and  C_18 
REMARK       I    between atoms: C_18  and  N_19 
ROOT
HETATM    1  C   UNL     1      42.720 -31.076   2.845  1.00  0.00     0.245 C 
HETATM    2  N   UNL     1      41.994 -30.541   3.890  1.00  0.00    -0.324 N 
HETATM    3  O   UNL     1      42.733 -32.240   2.467  1.00  0.00    -0.268 OA
HETATM    4  H   UNL     1      42.130 -29.559   4.087  1.00  0.00     0.169 HD
ENDROOT
BRANCH   2   5
HETATM    5  C   UNL     1      41.131 -31.227   4.773  1.00  0.00     0.035 A 
HETATM    6  C   UNL     1      39.931 -31.833   4.377  1.00  0.00     0.046 A 
HETATM    7  C   UNL     1      39.147 -32.519   5.331  1.00  0.00     0.030 A 
HETATM    8  C   UNL     1      39.588 -32.574   6.647  1.00  0.00     0.063 A 
HETATM    9  C   UNL     1      37.914 -33.241   5.325  1.00  0.00     0.156 A 
HETATM   10  N   UNL     1      38.643 -33.298   7.318  1.00  0.00    -0.277 N 
HETATM   11  C   UNL     1      40.771 -31.974   7.080  1.00  0.00     0.034 A 
HETATM   12  H   UNL     1      38.640 -33.542   8.302  1.00  0.00     0.189 HD
HETATM   13  N   UNL     1      37.619 -33.717   6.557  1.00  0.00    -0.168 NA
HETATM   14  C   UNL     1      41.530 -31.299   6.116  1.00  0.00     0.032 A 
BRANCH   9  15
HETATM   15  C   UNL     1      37.022 -33.486   4.183  1.00  0.00     0.270 C 
HETATM   16  N   UNL     1      36.020 -32.564   4.049  1.00  0.00    -0.365 N 
HETATM   17  H   UNL     1      35.966 -31.806   4.719  1.00  0.00     0.159 HD
HETATM   18  H   UNL     1      35.361 -32.650   3.291  1.00  0.00     0.159 HD
HETATM   19  O   UNL     1      37.133 -34.420   3.396  1.00  0.00    -0.266 OA
ENDBRANCH   9  15
ENDBRANCH   2   5
BRANCH   1  20
HETATM   20  C   UNL     1      43.579 -30.051   2.189  1.00  0.00     0.075 C 
HETATM   21  C   UNL     1      44.408 -30.424   1.202  1.00  0.00     0.018 C 
BRANCH  21  22
HETATM   22  C   UNL     1      45.312 -29.497   0.497  1.00  0.00    -0.025 A 
HETATM   23  C   UNL     1      45.136 -29.190  -0.883  1.00  0.00    -0.016 A 
HETATM   24  C   UNL     1      46.083 -28.345  -1.519  1.00  0.00    -0.025 A 
HETATM   25  C   UNL     1      44.063 -29.674  -1.670  1.00  0.00     0.013 A 
HETATM   26  C   UNL     1      45.945 -28.031  -2.881  1.00  0.00     0.012 A 
HETATM   27  C   UNL     1      47.162 -27.827  -0.786  1.00  0.00     0.012 A 
HETATM   28  C   UNL     1      44.882 -28.533  -3.630  1.00  0.00     0.001 A 
HETATM   29  C   UNL     1      43.939 -29.353  -3.023  1.00  0.00     0.001 A 
HETATM   30  C   UNL     1      47.325 -28.135   0.561  1.00  0.00     0.002 A 
HETATM   31  C   UNL     1      46.409 -28.969   1.196  1.00  0.00     0.012 A 
ENDBRANCH  21  22
ENDBRANCH   1  20
TORSDOF 4
ENDMDL
