MODEL 1
REMARK VINA RESULT:      -7.5      0.000      0.000
REMARK  6 active torsions:
REMARK  status: ('A' for Active; 'I' for Inactive)
REMARK    1  A    between atoms: C_2  and  N_3 
REMARK    2  A    between atoms: C_2  and  C_16 
REMARK    3  A    between atoms: N_3  and  C_6 
REMARK    4  A    between atoms: C_16  and  C_17 
REMARK       I    between atoms: C_17  and  N_18 
REMARK    5  A    between atoms: N_18  and  C_19 
REMARK    6  A    between atoms: C_21  and  O_22 
ROOT
HETATM    1  C   UNL     1      43.544 -15.312   1.508  1.00  0.00     0.040 C 
HETATM    2  C   UNL     1      42.108 -15.479   2.002  1.00  0.00     0.191 C 
ENDROOT
BRANCH   2   3
HETATM    3  N   UNL     1      42.076 -16.211   3.341  1.00  0.00    -0.063 N 
HETATM    4  H   UNL     1      41.510 -15.622   3.966  1.00  0.00     0.278 HD
HETATM    5  H   UNL     1      41.494 -17.050   3.210  1.00  0.00     0.278 HD
BRANCH   3   6
HETATM    6  C   UNL     1      43.302 -16.632   4.143  1.00  0.00     0.221 C 
HETATM    7  C   UNL     1      43.548 -18.124   4.168  1.00  0.00    -0.011 A 
HETATM    8  C   UNL     1      43.693 -18.845   5.366  1.00  0.00     0.009 A 
HETATM    9  C   UNL     1      43.677 -18.825   2.948  1.00  0.00     0.011 A 
HETATM   10  C   UNL     1      43.854 -20.236   5.335  1.00  0.00     0.019 A 
HETATM   11  S   UNL     1      43.708 -18.056   6.960  1.00  0.00    -0.129 SA
HETATM   12  C   UNL     1      43.926 -20.916   4.121  1.00  0.00     0.001 A 
HETATM   13  C   UNL     1      43.854 -20.210   2.928  1.00  0.00     0.001 A 
HETATM   14  C   UNL     1      44.338 -16.434   6.459  1.00  0.00     0.082 C 
HETATM   15  C   UNL     1      43.355 -15.848   5.463  1.00  0.00     0.048 C 
ENDBRANCH   3   6
ENDBRANCH   2   3
BRANCH   2  16
HETATM   16  C   UNL     1      41.322 -14.168   2.015  1.00  0.00     0.135 C 
BRANCH  16  17
HETATM   17  C   UNL     1      41.311 -13.544   3.397  1.00  0.00     0.224 C 
HETATM   18  N   UNL     1      42.373 -12.682   3.587  1.00  0.00    -0.327 N 
HETATM   19  H   UNL     1      43.009 -12.541   2.810  1.00  0.00     0.169 HD
HETATM   20  O   UNL     1      40.446 -13.853   4.209  1.00  0.00    -0.273 OA
BRANCH  18  21
HETATM   21  C   UNL     1      42.680 -11.933   4.745  1.00  0.00     0.037 A 
HETATM   22  C   UNL     1      43.669 -12.287   5.670  1.00  0.00     0.066 A 
HETATM   23  C   UNL     1      43.906 -11.489   6.795  1.00  0.00     0.070 A 
HETATM   24  C   UNL     1      43.143 -10.338   6.995  1.00  0.00     0.037 A 
HETATM   25  C   UNL     1      42.159  -9.974   6.080  1.00  0.00     0.005 A 
HETATM   26  C   UNL     1      41.931 -10.768   4.958  1.00  0.00     0.029 A 
BRANCH  23  27
HETATM   27  O   UNL     1      44.840 -11.723   7.765  1.00  0.00    -0.356 OA
HETATM   28  C   UNL     1      45.588 -10.608   8.232  1.00  0.00     0.210 C 
ENDBRANCH  23  27
ENDBRANCH  18  21
ENDBRANCH  16  17
ENDBRANCH   2  16
TORSDOF 6
ENDMDL
MODEL 2
REMARK VINA RESULT:      -7.2      2.164      3.394
REMARK  6 active torsions:
REMARK  status: ('A' for Active; 'I' for Inactive)
REMARK    1  A    between atoms: C_2  and  N_3 
REMARK    2  A    between atoms: C_2  and  C_16 
REMARK    3  A    between atoms: N_3  and  C_6 
REMARK    4  A    between atoms: C_16  and  C_17 
REMARK       I    between atoms: C_17  and  N_18 
REMARK    5  A    between atoms: N_18  and  C_19 
REMARK    6  A    between atoms: C_21  and  O_22 
ROOT
HETATM    1  C   UNL     1      40.138 -14.769   6.216  1.00  0.00     0.040 C 
HETATM    2  C   UNL     1      41.209 -13.700   6.012  1.00  0.00     0.191 C 
ENDROOT
BRANCH   2   3
HETATM    3  N   UNL     1      42.165 -14.095   4.889  1.00  0.00    -0.063 N 
HETATM    4  H   UNL     1      41.573 -14.490   4.147  1.00  0.00     0.278 HD
HETATM    5  H   UNL     1      42.517 -13.221   4.475  1.00  0.00     0.278 HD
BRANCH   3   6
HETATM    6  C   UNL     1      43.354 -15.037   5.037  1.00  0.00     0.221 C 
HETATM    7  C   UNL     1      43.333 -16.220   4.094  1.00  0.00    -0.011 A 
HETATM    8  C   UNL     1      43.438 -17.546   4.546  1.00  0.00     0.009 A 
HETATM    9  C   UNL     1      43.244 -15.994   2.703  1.00  0.00     0.011 A 
HETATM   10  C   UNL     1      43.348 -18.608   3.637  1.00  0.00     0.019 A 
HETATM   11  S   UNL     1      43.713 -17.955   6.255  1.00  0.00    -0.129 SA
HETATM   12  C   UNL     1      43.207 -18.365   2.272  1.00  0.00     0.001 A 
HETATM   13  C   UNL     1      43.171 -17.059   1.803  1.00  0.00     0.001 A 
HETATM   14  C   UNL     1      44.580 -16.449   6.764  1.00  0.00     0.082 C 
HETATM   15  C   UNL     1      43.645 -15.279   6.526  1.00  0.00     0.048 C 
ENDBRANCH   3   6
ENDBRANCH   2   3
BRANCH   2  16
HETATM   16  C   UNL     1      40.631 -12.295   5.842  1.00  0.00     0.135 C 
BRANCH  16  17
HETATM   17  C   UNL     1      41.710 -11.235   5.954  1.00  0.00     0.224 C 
HETATM   18  N   UNL     1      42.512 -11.426   7.062  1.00  0.00    -0.327 N 
HETATM   19  H   UNL     1      42.322 -12.231   7.648  1.00  0.00     0.169 HD
HETATM   20  O   UNL     1      41.772 -10.325   5.135  1.00  0.00    -0.273 OA
BRANCH  18  21
HETATM   21  C   UNL     1      43.606 -10.635   7.481  1.00  0.00     0.037 A 
HETATM   22  C   UNL     1      43.505  -9.291   7.856  1.00  0.00     0.066 A 
HETATM   23  C   UNL     1      44.643  -8.580   8.256  1.00  0.00     0.070 A 
HETATM   24  C   UNL     1      45.884  -9.218   8.271  1.00  0.00     0.037 A 
HETATM   25  C   UNL     1      45.995 -10.556   7.903  1.00  0.00     0.005 A 
HETATM   26  C   UNL     1      44.859 -11.262   7.513  1.00  0.00     0.029 A 
BRANCH  23  27
HETATM   27  O   UNL     1      44.677  -7.270   8.647  1.00  0.00    -0.356 OA
HETATM   28  C   UNL     1      43.570  -6.786   9.396  1.00  0.00     0.210 C 
ENDBRANCH  23  27
ENDBRANCH  18  21
ENDBRANCH  16  17
ENDBRANCH   2  16
TORSDOF 6
ENDMDL
MODEL 3
REMARK VINA RESULT:      -7.2      3.480      5.951
REMARK  6 active torsions:
REMARK  status: ('A' for Active; 'I' for Inactive)
REMARK    1  A    between atoms: C_2  and  N_3 
REMARK    2  A    between atoms: C_2  and  C_16 
REMARK    3  A    between atoms: N_3  and  C_6 
REMARK    4  A    between atoms: C_16  and  C_17 
REMARK       I    between atoms: C_17  and  N_18 
REMARK    5  A    between atoms: N_18  and  C_19 
REMARK    6  A    between atoms: C_21  and  O_22 
ROOT
HETATM    1  C   UNL     1      40.525 -16.429   4.588  1.00  0.00     0.040 C 
HETATM    2  C   UNL     1      41.099 -15.748   3.347  1.00  0.00     0.191 C 
ENDROOT
BRANCH   2   3
HETATM    3  N   UNL     1      42.454 -16.345   2.977  1.00  0.00    -0.063 N 
HETATM    4  H   UNL     1      42.245 -17.207   2.457  1.00  0.00     0.278 HD
HETATM    5  H   UNL     1      42.868 -15.728   2.264  1.00  0.00     0.278 HD
BRANCH   3   6
HETATM    6  C   UNL     1      43.559 -16.698   3.967  1.00  0.00     0.221 C 
HETATM    7  C   UNL     1      43.685 -18.177   4.258  1.00  0.00    -0.011 A 
HETATM    8  C   UNL     1      43.655 -18.693   5.565  1.00  0.00     0.009 A 
HETATM    9  C   UNL     1      43.879 -19.079   3.189  1.00  0.00     0.011 A 
HETATM   10  C   UNL     1      43.710 -20.077   5.776  1.00  0.00     0.019 A 
HETATM   11  S   UNL     1      43.574 -17.650   7.003  1.00  0.00    -0.129 SA
HETATM   12  C   UNL     1      43.849 -20.955   4.703  1.00  0.00     0.001 A 
HETATM   13  C   UNL     1      43.949 -20.456   3.411  1.00  0.00     0.001 A 
HETATM   14  C   UNL     1      44.373 -16.176   6.321  1.00  0.00     0.082 C 
HETATM   15  C   UNL     1      43.542 -15.708   5.140  1.00  0.00     0.048 C 
ENDBRANCH   3   6
ENDBRANCH   2   3
BRANCH   2  16
HETATM   16  C   UNL     1      40.119 -15.712   2.175  1.00  0.00     0.135 C 
BRANCH  16  17
HETATM   17  C   UNL     1      40.434 -14.572   1.225  1.00  0.00     0.224 C 
HETATM   18  N   UNL     1      39.465 -14.423   0.253  1.00  0.00    -0.327 N 
HETATM   19  H   UNL     1      38.666 -15.047   0.285  1.00  0.00     0.169 HD
HETATM   20  O   UNL     1      41.470 -13.929   1.351  1.00  0.00    -0.273 OA
BRANCH  18  21
HETATM   21  C   UNL     1      39.431 -13.474  -0.794  1.00  0.00     0.037 A 
HETATM   22  C   UNL     1      38.683 -12.293  -0.760  1.00  0.00     0.066 A 
HETATM   23  C   UNL     1      38.704 -11.409  -1.844  1.00  0.00     0.070 A 
HETATM   24  C   UNL     1      39.473 -11.716  -2.968  1.00  0.00     0.037 A 
HETATM   25  C   UNL     1      40.224 -12.886  -3.012  1.00  0.00     0.005 A 
HETATM   26  C   UNL     1      40.205 -13.761  -1.927  1.00  0.00     0.029 A 
BRANCH  23  27
HETATM   27  O   UNL     1      38.022 -10.226  -1.932  1.00  0.00    -0.356 OA
HETATM   28  C   UNL     1      37.645  -9.788  -3.231  1.00  0.00     0.210 C 
ENDBRANCH  23  27
ENDBRANCH  18  21
ENDBRANCH  16  17
ENDBRANCH   2  16
TORSDOF 6
ENDMDL
MODEL 4
REMARK VINA RESULT:      -7.2      2.775      5.529
REMARK  6 active torsions:
REMARK  status: ('A' for Active; 'I' for Inactive)
REMARK    1  A    between atoms: C_2  and  N_3 
REMARK    2  A    between atoms: C_2  and  C_16 
REMARK    3  A    between atoms: N_3  and  C_6 
REMARK    4  A    between atoms: C_16  and  C_17 
REMARK       I    between atoms: C_17  and  N_18 
REMARK    5  A    between atoms: N_18  and  C_19 
REMARK    6  A    between atoms: C_21  and  O_22 
ROOT
HETATM    1  C   UNL     1      40.373 -15.493   6.244  1.00  0.00     0.040 C 
HETATM    2  C   UNL     1      40.792 -14.025   6.275  1.00  0.00     0.191 C 
ENDROOT
BRANCH   2   3
HETATM    3  N   UNL     1      42.137 -13.829   5.580  1.00  0.00    -0.063 N 
HETATM    4  H   UNL     1      41.915 -13.634   4.594  1.00  0.00     0.278 HD
HETATM    5  H   UNL     1      42.522 -12.936   5.919  1.00  0.00     0.278 HD
BRANCH   3   6
HETATM    6  C   UNL     1      43.278 -14.840   5.570  1.00  0.00     0.221 C 
HETATM    7  C   UNL     1      43.269 -15.778   4.384  1.00  0.00    -0.011 A 
HETATM    8  C   UNL     1      43.295 -17.176   4.528  1.00  0.00     0.009 A 
HETATM    9  C   UNL     1      43.274 -15.242   3.077  1.00  0.00     0.011 A 
HETATM   10  C   UNL     1      43.220 -18.001   3.398  1.00  0.00     0.019 A 
HETATM   11  S   UNL     1      43.448 -17.971   6.111  1.00  0.00    -0.129 SA
HETATM   12  C   UNL     1      43.172 -17.451   2.118  1.00  0.00     0.001 A 
HETATM   13  C   UNL     1      43.215 -16.072   1.957  1.00  0.00     0.001 A 
HETATM   14  C   UNL     1      44.340 -16.665   6.992  1.00  0.00     0.082 C 
HETATM   15  C   UNL     1      43.467 -15.424   6.978  1.00  0.00     0.048 C 
ENDBRANCH   3   6
ENDBRANCH   2   3
BRANCH   2  16
HETATM   16  C   UNL     1      39.707 -13.080   5.760  1.00  0.00     0.135 C 
BRANCH  16  17
HETATM   17  C   UNL     1      39.971 -12.664   4.326  1.00  0.00     0.224 C 
HETATM   18  N   UNL     1      39.440 -13.560   3.419  1.00  0.00    -0.327 N 
HETATM   19  H   UNL     1      38.930 -14.355   3.786  1.00  0.00     0.169 HD
HETATM   20  O   UNL     1      40.623 -11.655   4.083  1.00  0.00    -0.273 OA
BRANCH  18  21
HETATM   21  C   UNL     1      39.497 -13.496   2.008  1.00  0.00     0.037 A 
HETATM   22  C   UNL     1      39.077 -12.394   1.254  1.00  0.00     0.066 A 
HETATM   23  C   UNL     1      39.165 -12.417  -0.142  1.00  0.00     0.070 A 
HETATM   24  C   UNL     1      39.670 -13.550  -0.783  1.00  0.00     0.037 A 
HETATM   25  C   UNL     1      40.094 -14.649  -0.043  1.00  0.00     0.005 A 
HETATM   26  C   UNL     1      40.010 -14.621   1.348  1.00  0.00     0.029 A 
BRANCH  23  27
HETATM   27  O   UNL     1      38.793 -11.409  -0.989  1.00  0.00    -0.356 OA
HETATM   28  C   UNL     1      37.631 -11.620  -1.780  1.00  0.00     0.210 C 
ENDBRANCH  23  27
ENDBRANCH  18  21
ENDBRANCH  16  17
ENDBRANCH   2  16
TORSDOF 6
ENDMDL
MODEL 5
REMARK VINA RESULT:      -7.2      3.237      6.109
REMARK  6 active torsions:
REMARK  status: ('A' for Active; 'I' for Inactive)
REMARK    1  A    between atoms: C_2  and  N_3 
REMARK    2  A    between atoms: C_2  and  C_16 
REMARK    3  A    between atoms: N_3  and  C_6 
REMARK    4  A    between atoms: C_16  and  C_17 
REMARK       I    between atoms: C_17  and  N_18 
REMARK    5  A    between atoms: N_18  and  C_19 
REMARK    6  A    between atoms: C_21  and  O_22 
ROOT
HETATM    1  C   UNL     1      40.029 -12.694   6.123  1.00  0.00     0.040 C 
HETATM    2  C   UNL     1      40.548 -13.271   4.807  1.00  0.00     0.191 C 
ENDROOT
BRANCH   2   3
HETATM    3  N   UNL     1      40.940 -14.736   4.972  1.00  0.00    -0.063 N 
HETATM    4  H   UNL     1      40.289 -15.122   5.669  1.00  0.00     0.278 HD
HETATM    5  H   UNL     1      40.673 -15.218   4.102  1.00  0.00     0.278 HD
BRANCH   3   6
HETATM    6  C   UNL     1      42.327 -15.237   5.359  1.00  0.00     0.221 C 
HETATM    7  C   UNL     1      42.858 -16.345   4.476  1.00  0.00    -0.011 A 
HETATM    8  C   UNL     1      43.310 -17.571   4.994  1.00  0.00     0.009 A 
HETATM    9  C   UNL     1      42.943 -16.138   3.081  1.00  0.00     0.011 A 
HETATM   10  C   UNL     1      43.732 -18.588   4.127  1.00  0.00     0.019 A 
HETATM   11  S   UNL     1      43.402 -17.895   6.740  1.00  0.00    -0.129 SA
HETATM   12  C   UNL     1      43.758 -18.382   2.749  1.00  0.00     0.001 A 
HETATM   13  C   UNL     1      43.379 -17.152   2.227  1.00  0.00     0.001 A 
HETATM   14  C   UNL     1      43.628 -16.196   7.325  1.00  0.00     0.082 C 
HETATM   15  C   UNL     1      42.417 -15.395   6.884  1.00  0.00     0.048 C 
ENDBRANCH   3   6
ENDBRANCH   2   3
BRANCH   2  16
HETATM   16  C   UNL     1      39.600 -13.032   3.632  1.00  0.00     0.135 C 
BRANCH  16  17
HETATM   17  C   UNL     1      40.348 -13.012   2.313  1.00  0.00     0.224 C 
HETATM   18  N   UNL     1      39.490 -12.989   1.230  1.00  0.00    -0.327 N 
HETATM   19  H   UNL     1      38.495 -12.964   1.418  1.00  0.00     0.169 HD
HETATM   20  O   UNL     1      41.572 -13.053   2.294  1.00  0.00    -0.273 OA
BRANCH  18  21
HETATM   21  C   UNL     1      39.833 -12.970  -0.141  1.00  0.00     0.037 A 
HETATM   22  C   UNL     1      39.405 -13.925  -1.070  1.00  0.00     0.066 A 
HETATM   23  C   UNL     1      39.795 -13.833  -2.411  1.00  0.00     0.070 A 
HETATM   24  C   UNL     1      40.622 -12.785  -2.817  1.00  0.00     0.037 A 
HETATM   25  C   UNL     1      41.051 -11.828  -1.903  1.00  0.00     0.005 A 
HETATM   26  C   UNL     1      40.655 -11.920  -0.569  1.00  0.00     0.029 A 
BRANCH  23  27
HETATM   27  O   UNL     1      39.444 -14.696  -3.412  1.00  0.00    -0.356 OA
HETATM   28  C   UNL     1      38.066 -14.769  -3.755  1.00  0.00     0.210 C 
ENDBRANCH  23  27
ENDBRANCH  18  21
ENDBRANCH  16  17
ENDBRANCH   2  16
TORSDOF 6
ENDMDL
MODEL 6
REMARK VINA RESULT:      -7.0      2.876      8.021
REMARK  6 active torsions:
REMARK  status: ('A' for Active; 'I' for Inactive)
REMARK    1  A    between atoms: C_2  and  N_3 
REMARK    2  A    between atoms: C_2  and  C_16 
REMARK    3  A    between atoms: N_3  and  C_6 
REMARK    4  A    between atoms: C_16  and  C_17 
REMARK       I    between atoms: C_17  and  N_18 
REMARK    5  A    between atoms: N_18  and  C_19 
REMARK    6  A    between atoms: C_21  and  O_22 
ROOT
HETATM    1  C   UNL     1      43.681 -11.827   4.520  1.00  0.00     0.040 C 
HETATM    2  C   UNL     1      42.763 -12.724   5.348  1.00  0.00     0.191 C 
ENDROOT
BRANCH   2   3
HETATM    3  N   UNL     1      42.344 -12.027   6.640  1.00  0.00    -0.063 N 
HETATM    4  H   UNL     1      41.356 -12.273   6.781  1.00  0.00     0.278 HD
HETATM    5  H   UNL     1      42.825 -12.510   7.411  1.00  0.00     0.278 HD
BRANCH   3   6
HETATM    6  C   UNL     1      42.453 -10.529   6.906  1.00  0.00     0.221 C 
HETATM    7  C   UNL     1      43.446 -10.159   7.986  1.00  0.00    -0.011 A 
HETATM    8  C   UNL     1      43.096  -9.368   9.093  1.00  0.00     0.009 A 
HETATM    9  C   UNL     1      44.787 -10.587   7.869  1.00  0.00     0.011 A 
HETATM   10  C   UNL     1      44.036  -9.109  10.098  1.00  0.00     0.019 A 
HETATM   11  S   UNL     1      41.484  -8.638   9.275  1.00  0.00    -0.129 SA
HETATM   12  C   UNL     1      45.342  -9.585   9.990  1.00  0.00     0.001 A 
HETATM   13  C   UNL     1      45.721 -10.310   8.869  1.00  0.00     0.001 A 
HETATM   14  C   UNL     1      41.043  -8.503   7.524  1.00  0.00     0.082 C 
HETATM   15  C   UNL     1      41.051  -9.903   6.939  1.00  0.00     0.048 C 
ENDBRANCH   3   6
ENDBRANCH   2   3
BRANCH   2  16
HETATM   16  C   UNL     1      41.579 -13.272   4.551  1.00  0.00     0.135 C 
BRANCH  16  17
HETATM   17  C   UNL     1      41.599 -14.787   4.502  1.00  0.00     0.224 C 
HETATM   18  N   UNL     1      42.732 -15.271   3.878  1.00  0.00    -0.327 N 
HETATM   19  H   UNL     1      43.415 -14.597   3.553  1.00  0.00     0.169 HD
HETATM   20  O   UNL     1      40.660 -15.434   4.951  1.00  0.00    -0.273 OA
BRANCH  18  21
HETATM   21  C   UNL     1      43.081 -16.622   3.650  1.00  0.00     0.037 A 
HETATM   22  C   UNL     1      43.670 -17.453   4.609  1.00  0.00     0.066 A 
HETATM   23  C   UNL     1      43.987 -18.780   4.297  1.00  0.00     0.070 A 
HETATM   24  C   UNL     1      43.720 -19.270   3.018  1.00  0.00     0.037 A 
HETATM   25  C   UNL     1      43.131 -18.453   2.058  1.00  0.00     0.005 A 
HETATM   26  C   UNL     1      42.810 -17.134   2.374  1.00  0.00     0.029 A 
BRANCH  23  27
HETATM   27  O   UNL     1      44.560 -19.690   5.143  1.00  0.00    -0.356 OA
HETATM   28  C   UNL     1      43.989 -20.991   5.182  1.00  0.00     0.210 C 
ENDBRANCH  23  27
ENDBRANCH  18  21
ENDBRANCH  16  17
ENDBRANCH   2  16
TORSDOF 6
ENDMDL
MODEL 7
REMARK VINA RESULT:      -7.0      3.465      7.184
REMARK  6 active torsions:
REMARK  status: ('A' for Active; 'I' for Inactive)
REMARK    1  A    between atoms: C_2  and  N_3 
REMARK    2  A    between atoms: C_2  and  C_16 
REMARK    3  A    between atoms: N_3  and  C_6 
REMARK    4  A    between atoms: C_16  and  C_17 
REMARK       I    between atoms: C_17  and  N_18 
REMARK    5  A    between atoms: N_18  and  C_19 
REMARK    6  A    between atoms: C_21  and  O_22 
ROOT
HETATM    1  C   UNL     1      39.573 -11.630   6.529  1.00  0.00     0.040 C 
HETATM    2  C   UNL     1      40.082 -12.649   5.511  1.00  0.00     0.191 C 
ENDROOT
BRANCH   2   3
HETATM    3  N   UNL     1      40.164 -12.031   4.118  1.00  0.00    -0.063 N 
HETATM    4  H   UNL     1      40.344 -11.030   4.268  1.00  0.00     0.278 HD
HETATM    5  H   UNL     1      41.038 -12.370   3.691  1.00  0.00     0.278 HD
BRANCH   3   6
HETATM    6  C   UNL     1      39.077 -12.117   3.052  1.00  0.00     0.221 C 
HETATM    7  C   UNL     1      39.398 -13.053   1.908  1.00  0.00    -0.011 A 
HETATM    8  C   UNL     1      39.356 -12.643   0.565  1.00  0.00     0.009 A 
HETATM    9  C   UNL     1      39.715 -14.401   2.185  1.00  0.00     0.011 A 
HETATM   10  C   UNL     1      39.726 -13.532  -0.453  1.00  0.00     0.019 A 
HETATM   11  S   UNL     1      38.820 -11.019   0.077  1.00  0.00    -0.129 SA
HETATM   12  C   UNL     1      40.087 -14.844  -0.155  1.00  0.00     0.001 A 
HETATM   13  C   UNL     1      40.066 -15.284   1.162  1.00  0.00     0.001 A 
HETATM   14  C   UNL     1      37.716 -10.663   1.467  1.00  0.00     0.082 C 
HETATM   15  C   UNL     1      38.547 -10.710   2.736  1.00  0.00     0.048 C 
ENDBRANCH   3   6
ENDBRANCH   2   3
BRANCH   2  16
HETATM   16  C   UNL     1      41.380 -13.332   5.942  1.00  0.00     0.135 C 
BRANCH  16  17
HETATM   17  C   UNL     1      41.456 -14.755   5.422  1.00  0.00     0.224 C 
HETATM   18  N   UNL     1      42.659 -15.015   4.797  1.00  0.00    -0.327 N 
HETATM   19  H   UNL     1      43.348 -14.271   4.772  1.00  0.00     0.169 HD
HETATM   20  O   UNL     1      40.500 -15.512   5.547  1.00  0.00    -0.273 OA
BRANCH  18  21
HETATM   21  C   UNL     1      43.074 -16.224   4.193  1.00  0.00     0.037 A 
HETATM   22  C   UNL     1      43.557 -17.330   4.901  1.00  0.00     0.066 A 
HETATM   23  C   UNL     1      43.951 -18.489   4.222  1.00  0.00     0.070 A 
HETATM   24  C   UNL     1      43.866 -18.534   2.830  1.00  0.00     0.037 A 
HETATM   25  C   UNL     1      43.383 -17.441   2.116  1.00  0.00     0.005 A 
HETATM   26  C   UNL     1      42.987 -16.291   2.796  1.00  0.00     0.029 A 
BRANCH  23  27
HETATM   27  O   UNL     1      44.435 -19.632   4.796  1.00  0.00    -0.356 OA
HETATM   28  C   UNL     1      43.743 -20.134   5.931  1.00  0.00     0.210 C 
ENDBRANCH  23  27
ENDBRANCH  18  21
ENDBRANCH  16  17
ENDBRANCH   2  16
TORSDOF 6
ENDMDL
MODEL 8
REMARK VINA RESULT:      -6.9      5.025      9.921
REMARK  6 active torsions:
REMARK  status: ('A' for Active; 'I' for Inactive)
REMARK    1  A    between atoms: C_2  and  N_3 
REMARK    2  A    between atoms: C_2  and  C_16 
REMARK    3  A    between atoms: N_3  and  C_6 
REMARK    4  A    between atoms: C_16  and  C_17 
REMARK       I    between atoms: C_17  and  N_18 
REMARK    5  A    between atoms: N_18  and  C_19 
REMARK    6  A    between atoms: C_21  and  O_22 
ROOT
HETATM    1  C   UNL     1      45.163  -9.721  10.307  1.00  0.00     0.040 C 
HETATM    2  C   UNL     1      43.972 -10.585   9.896  1.00  0.00     0.191 C 
ENDROOT
BRANCH   2   3
HETATM    3  N   UNL     1      42.809 -10.405  10.868  1.00  0.00    -0.063 N 
HETATM    4  H   UNL     1      42.177 -11.197  10.695  1.00  0.00     0.278 HD
HETATM    5  H   UNL     1      43.176 -10.592  11.812  1.00  0.00     0.278 HD
BRANCH   3   6
HETATM    6  C   UNL     1      41.926  -9.165  10.963  1.00  0.00     0.221 C 
HETATM    7  C   UNL     1      42.024  -8.430  12.282  1.00  0.00    -0.011 A 
HETATM    8  C   UNL     1      40.895  -8.131  13.063  1.00  0.00     0.009 A 
HETATM    9  C   UNL     1      43.286  -7.990  12.737  1.00  0.00     0.011 A 
HETATM   10  C   UNL     1      41.046  -7.507  14.308  1.00  0.00     0.019 A 
HETATM   11  S   UNL     1      39.238  -8.492  12.527  1.00  0.00    -0.129 SA
HETATM   12  C   UNL     1      42.307  -7.126  14.763  1.00  0.00     0.001 A 
HETATM   13  C   UNL     1      43.425  -7.353  13.971  1.00  0.00     0.001 A 
HETATM   14  C   UNL     1      39.504  -8.417  10.738  1.00  0.00     0.082 C 
HETATM   15  C   UNL     1      40.537  -9.470  10.383  1.00  0.00     0.048 C 
ENDBRANCH   3   6
ENDBRANCH   2   3
BRANCH   2  16
HETATM   16  C   UNL     1      43.567 -10.393   8.434  1.00  0.00     0.135 C 
BRANCH  16  17
HETATM   17  C   UNL     1      44.071 -11.531   7.568  1.00  0.00     0.224 C 
HETATM   18  N   UNL     1      43.058 -12.398   7.209  1.00  0.00    -0.327 N 
HETATM   19  H   UNL     1      42.119 -12.182   7.526  1.00  0.00     0.169 HD
HETATM   20  O   UNL     1      45.262 -11.622   7.295  1.00  0.00    -0.273 OA
BRANCH  18  21
HETATM   21  C   UNL     1      43.160 -13.563   6.416  1.00  0.00     0.037 A 
HETATM   22  C   UNL     1      43.671 -14.783   6.874  1.00  0.00     0.066 A 
HETATM   23  C   UNL     1      43.740 -15.888   6.018  1.00  0.00     0.070 A 
HETATM   24  C   UNL     1      43.302 -15.766   4.699  1.00  0.00     0.037 A 
HETATM   25  C   UNL     1      42.789 -14.560   4.234  1.00  0.00     0.005 A 
HETATM   26  C   UNL     1      42.716 -13.463   5.090  1.00  0.00     0.029 A 
BRANCH  23  27
HETATM   27  O   UNL     1      44.213 -17.130   6.344  1.00  0.00    -0.356 OA
HETATM   28  C   UNL     1      43.630 -18.243   5.680  1.00  0.00     0.210 C 
ENDBRANCH  23  27
ENDBRANCH  18  21
ENDBRANCH  16  17
ENDBRANCH   2  16
TORSDOF 6
ENDMDL
MODEL 9
REMARK VINA RESULT:      -6.9      4.475      9.697
REMARK  6 active torsions:
REMARK  status: ('A' for Active; 'I' for Inactive)
REMARK    1  A    between atoms: C_2  and  N_3 
REMARK    2  A    between atoms: C_2  and  C_16 
REMARK    3  A    between atoms: N_3  and  C_6 
REMARK    4  A    between atoms: C_16  and  C_17 
REMARK       I    between atoms: C_17  and  N_18 
REMARK    5  A    between atoms: N_18  and  C_19 
REMARK    6  A    between atoms: C_21  and  O_22 
ROOT
HETATM    1  C   UNL     1      46.041  -9.099   8.187  1.00  0.00     0.040 C 
HETATM    2  C   UNL     1      45.232 -10.198   8.873  1.00  0.00     0.191 C 
ENDROOT
BRANCH   2   3
HETATM    3  N   UNL     1      44.884  -9.803  10.305  1.00  0.00    -0.063 N 
HETATM    4  H   UNL     1      45.297 -10.531  10.903  1.00  0.00     0.278 HD
HETATM    5  H   UNL     1      45.440  -8.965  10.529  1.00  0.00     0.278 HD
BRANCH   3   6
HETATM    6  C   UNL     1      43.474  -9.563  10.834  1.00  0.00     0.221 C 
HETATM    7  C   UNL     1      43.081  -8.105  10.923  1.00  0.00    -0.011 A 
HETATM    8  C   UNL     1      42.603  -7.525  12.110  1.00  0.00     0.009 A 
HETATM    9  C   UNL     1      43.158  -7.296   9.769  1.00  0.00     0.011 A 
HETATM   10  C   UNL     1      42.314  -6.155  12.157  1.00  0.00     0.019 A 
HETATM   11  S   UNL     1      42.312  -8.471  13.588  1.00  0.00    -0.129 SA
HETATM   12  C   UNL     1      42.447  -5.361  11.018  1.00  0.00     0.001 A 
HETATM   13  C   UNL     1      42.853  -5.935   9.821  1.00  0.00     0.001 A 
HETATM   14  C   UNL     1      41.974 -10.078  12.825  1.00  0.00     0.082 C 
HETATM   15  C   UNL     1      43.207 -10.480  12.037  1.00  0.00     0.048 C 
ENDBRANCH   3   6
ENDBRANCH   2   3
BRANCH   2  16
HETATM   16  C   UNL     1      44.015 -10.643   8.061  1.00  0.00     0.135 C 
BRANCH  16  17
HETATM   17  C   UNL     1      44.297 -11.922   7.297  1.00  0.00     0.224 C 
HETATM   18  N   UNL     1      43.243 -12.811   7.366  1.00  0.00    -0.327 N 
HETATM   19  H   UNL     1      42.415 -12.522   7.876  1.00  0.00     0.169 HD
HETATM   20  O   UNL     1      45.377 -12.087   6.743  1.00  0.00    -0.273 OA
BRANCH  18  21
HETATM   21  C   UNL     1      43.157 -14.095   6.782  1.00  0.00     0.037 A 
HETATM   22  C   UNL     1      43.231 -14.338   5.406  1.00  0.00     0.066 A 
HETATM   23  C   UNL     1      43.133 -15.644   4.912  1.00  0.00     0.070 A 
HETATM   24  C   UNL     1      42.954 -16.705   5.800  1.00  0.00     0.037 A 
HETATM   25  C   UNL     1      42.883 -16.475   7.170  1.00  0.00     0.005 A 
HETATM   26  C   UNL     1      42.987 -15.174   7.659  1.00  0.00     0.029 A 
BRANCH  23  27
HETATM   27  O   UNL     1      43.192 -16.012   3.596  1.00  0.00    -0.356 OA
HETATM   28  C   UNL     1      43.036 -17.394   3.299  1.00  0.00     0.210 C 
ENDBRANCH  23  27
ENDBRANCH  18  21
ENDBRANCH  16  17
ENDBRANCH   2  16
TORSDOF 6
ENDMDL
MODEL 10
REMARK VINA RESULT:      -6.8      4.480      8.323
REMARK  6 active torsions:
REMARK  status: ('A' for Active; 'I' for Inactive)
REMARK    1  A    between atoms: C_2  and  N_3 
REMARK    2  A    between atoms: C_2  and  C_16 
REMARK    3  A    between atoms: N_3  and  C_6 
REMARK    4  A    between atoms: C_16  and  C_17 
REMARK       I    between atoms: C_17  and  N_18 
REMARK    5  A    between atoms: N_18  and  C_19 
REMARK    6  A    between atoms: C_21  and  O_22 
ROOT
HETATM    1  C   UNL     1      41.060 -11.662   1.830  1.00  0.00     0.040 C 
HETATM    2  C   UNL     1      40.141 -12.778   1.339  1.00  0.00     0.191 C 
ENDROOT
BRANCH   2   3
HETATM    3  N   UNL     1      40.835 -13.625   0.275  1.00  0.00    -0.063 N 
HETATM    4  H   UNL     1      41.811 -13.302   0.256  1.00  0.00     0.278 HD
HETATM    5  H   UNL     1      40.905 -14.580   0.651  1.00  0.00     0.278 HD
BRANCH   3   6
HETATM    6  C   UNL     1      40.394 -13.742  -1.180  1.00  0.00     0.221 C 
HETATM    7  C   UNL     1      40.180 -12.416  -1.875  1.00  0.00    -0.011 A 
HETATM    8  C   UNL     1      38.978 -12.092  -2.528  1.00  0.00     0.009 A 
HETATM    9  C   UNL     1      41.232 -11.474  -1.909  1.00  0.00     0.011 A 
HETATM   10  C   UNL     1      38.808 -10.825  -3.101  1.00  0.00     0.019 A 
HETATM   11  S   UNL     1      37.638 -13.250  -2.692  1.00  0.00    -0.129 SA
HETATM   12  C   UNL     1      39.841  -9.890  -3.077  1.00  0.00     0.001 A 
HETATM   13  C   UNL     1      41.058 -10.219  -2.496  1.00  0.00     0.001 A 
HETATM   14  C   UNL     1      38.592 -14.787  -2.643  1.00  0.00     0.082 C 
HETATM   15  C   UNL     1      39.321 -14.832  -1.312  1.00  0.00     0.048 C 
ENDBRANCH   3   6
ENDBRANCH   2   3
BRANCH   2  16
HETATM   16  C   UNL     1      39.548 -13.612   2.476  1.00  0.00     0.135 C 
BRANCH  16  17
HETATM   17  C   UNL     1      40.207 -14.974   2.565  1.00  0.00     0.224 C 
HETATM   18  N   UNL     1      41.308 -14.965   3.399  1.00  0.00    -0.327 N 
HETATM   19  H   UNL     1      41.539 -14.094   3.864  1.00  0.00     0.169 HD
HETATM   20  O   UNL     1      39.775 -15.916   1.909  1.00  0.00    -0.273 OA
BRANCH  18  21
HETATM   21  C   UNL     1      42.162 -16.047   3.713  1.00  0.00     0.037 A 
HETATM   22  C   UNL     1      42.659 -16.954   2.770  1.00  0.00     0.066 A 
HETATM   23  C   UNL     1      43.498 -18.001   3.169  1.00  0.00     0.070 A 
HETATM   24  C   UNL     1      43.830 -18.142   4.517  1.00  0.00     0.037 A 
HETATM   25  C   UNL     1      43.344 -17.243   5.462  1.00  0.00     0.005 A 
HETATM   26  C   UNL     1      42.514 -16.198   5.060  1.00  0.00     0.029 A 
BRANCH  23  27
HETATM   27  O   UNL     1      44.049 -18.947   2.350  1.00  0.00    -0.356 OA
HETATM   28  C   UNL     1      43.301 -20.136   2.133  1.00  0.00     0.210 C 
ENDBRANCH  23  27
ENDBRANCH  18  21
ENDBRANCH  16  17
ENDBRANCH   2  16
TORSDOF 6
ENDMDL
