MODEL 1
REMARK VINA RESULT:      -8.0      0.000      0.000
REMARK  6 active torsions:
REMARK  status: ('A' for Active; 'I' for Inactive)
REMARK    1  A    between atoms: C_2  and  C_3 
REMARK    2  A    between atoms: C_2  and  C_9 
REMARK    3  A    between atoms: C_9  and  N_10 
REMARK       I    between atoms: N_10  and  C_11 
REMARK       I    between atoms: C_11  and  N_12 
REMARK    4  A    between atoms: N_12  and  C_13 
REMARK    5  A    between atoms: C_16  and  N_17 
REMARK       I    between atoms: N_17  and  C_18 
REMARK    6  A    between atoms: C_18  and  C_19 
ROOT
HETATM    1  N   UNL     1      42.566 -14.088   4.246  1.00  0.00    -0.342 N 
HETATM    2  C   UNL     1      42.263 -13.411   5.410  1.00  0.00     0.320 C 
HETATM    3  N   UNL     1      43.096 -12.329   5.584  1.00  0.00    -0.309 N 
HETATM    4  O   UNL     1      41.349 -13.755   6.147  1.00  0.00    -0.247 OA
HETATM    5  H   UNL     1      43.505 -13.992   3.888  1.00  0.00     0.164 HD
HETATM    6  H   UNL     1      43.576 -12.016   4.754  1.00  0.00     0.170 HD
ENDROOT
BRANCH   3   7
HETATM    7  C   UNL     1      43.153 -11.483   6.710  1.00  0.00     0.036 A 
HETATM    8  C   UNL     1      44.149 -11.563   7.684  1.00  0.00     0.032 A 
HETATM    9  C   UNL     1      44.153 -10.690   8.781  1.00  0.00     0.032 A 
HETATM   10  C   UNL     1      43.160  -9.725   8.924  1.00  0.00     0.035 A 
HETATM   11  C   UNL     1      42.168  -9.634   7.942  1.00  0.00     0.032 A 
HETATM   12  C   UNL     1      42.169 -10.499   6.840  1.00  0.00     0.032 A 
BRANCH  10  13
HETATM   13  N   UNL     1      43.080  -8.833  10.010  1.00  0.00    -0.321 N 
HETATM   14  C   UNL     1      42.776  -9.115  11.330  1.00  0.00     0.279 C 
HETATM   15  O   UNL     1      42.573 -10.232  11.794  1.00  0.00    -0.265 OA
HETATM   16  H   UNL     1      43.255  -7.852   9.819  1.00  0.00     0.169 HD
BRANCH  14  17
HETATM   17  C   UNL     1      42.722  -7.923  12.159  1.00  0.00     0.142 A 
HETATM   18  O   UNL     1      42.216  -6.758  11.639  1.00  0.00    -0.317 OA
HETATM   19  C   UNL     1      42.270  -5.825  12.624  1.00  0.00     0.143 A 
HETATM   20  C   UNL     1      42.807  -6.361  13.770  1.00  0.00     0.027 A 
HETATM   21  C   UNL     1      43.099  -7.713  13.472  1.00  0.00     0.045 A 
ENDBRANCH  14  17
ENDBRANCH  10  13
ENDBRANCH   3   7
BRANCH   1  22
HETATM   22  C   UNL     1      41.829 -15.280   3.851  1.00  0.00     0.138 C 
BRANCH  22  23
HETATM   23  C   UNL     1      42.380 -15.985   2.573  1.00  0.00    -0.004 C 
HETATM   24  C   UNL     1      43.477 -15.077   1.961  1.00  0.00     0.021 C 
HETATM   25  C   UNL     1      41.261 -16.084   1.510  1.00  0.00     0.021 C 
BRANCH  23  26
HETATM   26  C   UNL     1      43.003 -17.347   2.940  1.00  0.00    -0.046 A 
HETATM   27  C   UNL     1      43.701 -17.509   4.148  1.00  0.00     0.027 A 
HETATM   28  C   UNL     1      44.249 -18.745   4.464  1.00  0.00     0.116 A 
HETATM   29  N   UNL     1      44.151 -19.832   3.676  1.00  0.00    -0.273 NA
HETATM   30  C   UNL     1      43.486 -19.669   2.516  1.00  0.00     0.116 A 
HETATM   31  C   UNL     1      42.905 -18.473   2.113  1.00  0.00     0.027 A 
ENDBRANCH  23  26
ENDBRANCH  22  23
ENDBRANCH   1  22
TORSDOF 6
ENDMDL
MODEL 2
REMARK VINA RESULT:      -8.0      6.012     13.613
REMARK  6 active torsions:
REMARK  status: ('A' for Active; 'I' for Inactive)
REMARK    1  A    between atoms: C_2  and  C_3 
REMARK    2  A    between atoms: C_2  and  C_9 
REMARK    3  A    between atoms: C_9  and  N_10 
REMARK       I    between atoms: N_10  and  C_11 
REMARK       I    between atoms: C_11  and  N_12 
REMARK    4  A    between atoms: N_12  and  C_13 
REMARK    5  A    between atoms: C_16  and  N_17 
REMARK       I    between atoms: N_17  and  C_18 
REMARK    6  A    between atoms: C_18  and  C_19 
ROOT
HETATM    1  N   UNL     1      40.350  -7.370  18.019  1.00  0.00    -0.342 N 
HETATM    2  C   UNL     1      41.328  -7.363  17.045  1.00  0.00     0.320 C 
HETATM    3  N   UNL     1      40.860  -7.908  15.870  1.00  0.00    -0.309 N 
HETATM    4  O   UNL     1      42.443  -6.899  17.241  1.00  0.00    -0.247 OA
HETATM    5  H   UNL     1      39.615  -8.056  17.929  1.00  0.00     0.164 HD
HETATM    6  H   UNL     1      39.856  -7.955  15.786  1.00  0.00     0.170 HD
ENDROOT
BRANCH   3   7
HETATM    7  C   UNL     1      41.610  -8.168  14.705  1.00  0.00     0.036 A 
HETATM    8  C   UNL     1      42.779  -7.484  14.374  1.00  0.00     0.032 A 
HETATM    9  C   UNL     1      43.483  -7.791  13.201  1.00  0.00     0.032 A 
HETATM   10  C   UNL     1      43.029  -8.786  12.339  1.00  0.00     0.035 A 
HETATM   11  C   UNL     1      41.863  -9.483  12.676  1.00  0.00     0.032 A 
HETATM   12  C   UNL     1      41.165  -9.183  13.854  1.00  0.00     0.032 A 
BRANCH  10  13
HETATM   13  N   UNL     1      43.663  -9.131  11.131  1.00  0.00    -0.321 N 
HETATM   14  C   UNL     1      44.303 -10.315  10.808  1.00  0.00     0.279 C 
HETATM   15  O   UNL     1      44.377 -11.307  11.525  1.00  0.00    -0.265 OA
HETATM   16  H   UNL     1      43.671  -8.433  10.395  1.00  0.00     0.169 HD
BRANCH  14  17
HETATM   17  C   UNL     1      44.902 -10.283   9.484  1.00  0.00     0.142 A 
HETATM   18  O   UNL     1      44.540 -11.224   8.553  1.00  0.00    -0.317 OA
HETATM   19  C   UNL     1      45.234 -10.949   7.418  1.00  0.00     0.143 A 
HETATM   20  C   UNL     1      46.042  -9.852   7.598  1.00  0.00     0.027 A 
HETATM   21  C   UNL     1      45.829  -9.421   8.929  1.00  0.00     0.045 A 
ENDBRANCH  14  17
ENDBRANCH  10  13
ENDBRANCH   3   7
BRANCH   1  22
HETATM   22  C   UNL     1      40.612  -6.856  19.355  1.00  0.00     0.138 C 
BRANCH  22  23
HETATM   23  C   UNL     1      40.225  -7.833  20.509  1.00  0.00    -0.004 C 
HETATM   24  C   UNL     1      39.033  -8.697  20.025  1.00  0.00     0.021 C 
HETATM   25  C   UNL     1      39.706  -7.025  21.722  1.00  0.00     0.021 C 
BRANCH  23  26
HETATM   26  C   UNL     1      41.411  -8.758  20.847  1.00  0.00    -0.046 A 
HETATM   27  C   UNL     1      41.276 -10.153  20.758  1.00  0.00     0.027 A 
HETATM   28  C   UNL     1      42.357 -10.969  21.060  1.00  0.00     0.116 A 
HETATM   29  N   UNL     1      43.564 -10.506  21.437  1.00  0.00    -0.273 NA
HETATM   30  C   UNL     1      43.686  -9.167  21.528  1.00  0.00     0.116 A 
HETATM   31  C   UNL     1      42.662  -8.271  21.247  1.00  0.00     0.027 A 
ENDBRANCH  23  26
ENDBRANCH  22  23
ENDBRANCH   1  22
TORSDOF 6
ENDMDL
MODEL 3
REMARK VINA RESULT:      -7.9      2.609     10.611
REMARK  6 active torsions:
REMARK  status: ('A' for Active; 'I' for Inactive)
REMARK    1  A    between atoms: C_2  and  C_3 
REMARK    2  A    between atoms: C_2  and  C_9 
REMARK    3  A    between atoms: C_9  and  N_10 
REMARK       I    between atoms: N_10  and  C_11 
REMARK       I    between atoms: C_11  and  N_12 
REMARK    4  A    between atoms: N_12  and  C_13 
REMARK    5  A    between atoms: C_16  and  N_17 
REMARK       I    between atoms: N_17  and  C_18 
REMARK    6  A    between atoms: C_18  and  C_19 
ROOT
HETATM    1  N   UNL     1      42.414  -9.395   7.164  1.00  0.00    -0.342 N 
HETATM    2  C   UNL     1      42.930 -10.612   6.768  1.00  0.00     0.320 C 
HETATM    3  N   UNL     1      41.985 -11.355   6.095  1.00  0.00    -0.309 N 
HETATM    4  O   UNL     1      44.090 -10.933   6.988  1.00  0.00    -0.247 OA
HETATM    5  H   UNL     1      41.412  -9.334   7.279  1.00  0.00     0.164 HD
HETATM    6  H   UNL     1      41.200 -10.833   5.738  1.00  0.00     0.170 HD
ENDROOT
BRANCH   3   7
HETATM    7  C   UNL     1      42.122 -12.685   5.649  1.00  0.00     0.036 A 
HETATM    8  C   UNL     1      41.713 -13.792   6.391  1.00  0.00     0.032 A 
HETATM    9  C   UNL     1      41.873 -15.092   5.891  1.00  0.00     0.032 A 
HETATM   10  C   UNL     1      42.448 -15.306   4.640  1.00  0.00     0.035 A 
HETATM   11  C   UNL     1      42.846 -14.196   3.888  1.00  0.00     0.032 A 
HETATM   12  C   UNL     1      42.677 -12.896   4.383  1.00  0.00     0.032 A 
BRANCH  10  13
HETATM   13  N   UNL     1      42.668 -16.579   4.083  1.00  0.00    -0.321 N 
HETATM   14  C   UNL     1      43.704 -17.460   4.339  1.00  0.00     0.279 C 
HETATM   15  O   UNL     1      44.599 -17.290   5.161  1.00  0.00    -0.265 OA
HETATM   16  H   UNL     1      41.997 -16.907   3.396  1.00  0.00     0.169 HD
BRANCH  14  17
HETATM   17  C   UNL     1      43.635 -18.658   3.521  1.00  0.00     0.142 A 
HETATM   18  O   UNL     1      44.066 -19.856   4.034  1.00  0.00    -0.317 OA
HETATM   19  C   UNL     1      43.874 -20.795   3.071  1.00  0.00     0.143 A 
HETATM   20  C   UNL     1      43.333 -20.227   1.943  1.00  0.00     0.027 A 
HETATM   21  C   UNL     1      43.179 -18.850   2.231  1.00  0.00     0.045 A 
ENDBRANCH  14  17
ENDBRANCH  10  13
ENDBRANCH   3   7
BRANCH   1  22
HETATM   22  C   UNL     1      43.221  -8.438   7.907  1.00  0.00     0.138 C 
BRANCH  22  23
HETATM   23  C   UNL     1      42.556  -7.915   9.219  1.00  0.00    -0.004 C 
HETATM   24  C   UNL     1      41.041  -7.738   8.950  1.00  0.00     0.021 C 
HETATM   25  C   UNL     1      43.102  -6.507   9.552  1.00  0.00     0.021 C 
BRANCH  23  26
HETATM   26  C   UNL     1      42.748  -8.936  10.358  1.00  0.00    -0.046 A 
HETATM   27  C   UNL     1      41.830  -8.999  11.421  1.00  0.00     0.027 A 
HETATM   28  C   UNL     1      42.016  -9.928  12.435  1.00  0.00     0.116 A 
HETATM   29  N   UNL     1      43.038 -10.804  12.471  1.00  0.00    -0.273 NA
HETATM   30  C   UNL     1      43.918 -10.736  11.453  1.00  0.00     0.116 A 
HETATM   31  C   UNL     1      43.817  -9.840  10.396  1.00  0.00     0.027 A 
ENDBRANCH  23  26
ENDBRANCH  22  23
ENDBRANCH   1  22
TORSDOF 6
ENDMDL
MODEL 4
REMARK VINA RESULT:      -7.8      1.290      1.872
REMARK  6 active torsions:
REMARK  status: ('A' for Active; 'I' for Inactive)
REMARK    1  A    between atoms: C_2  and  C_3 
REMARK    2  A    between atoms: C_2  and  C_9 
REMARK    3  A    between atoms: C_9  and  N_10 
REMARK       I    between atoms: N_10  and  C_11 
REMARK       I    between atoms: C_11  and  N_12 
REMARK    4  A    between atoms: N_12  and  C_13 
REMARK    5  A    between atoms: C_16  and  N_17 
REMARK       I    between atoms: N_17  and  C_18 
REMARK    6  A    between atoms: C_18  and  C_19 
ROOT
HETATM    1  N   UNL     1      43.086 -14.765   4.605  1.00  0.00    -0.342 N 
HETATM    2  C   UNL     1      42.738 -14.005   5.703  1.00  0.00     0.320 C 
HETATM    3  N   UNL     1      43.171 -12.706   5.563  1.00  0.00    -0.309 N 
HETATM    4  O   UNL     1      42.106 -14.468   6.643  1.00  0.00    -0.247 OA
HETATM    5  H   UNL     1      43.879 -14.453   4.061  1.00  0.00     0.164 HD
HETATM    6  H   UNL     1      43.395 -12.425   4.621  1.00  0.00     0.170 HD
ENDROOT
BRANCH   3   7
HETATM    7  C   UNL     1      43.094 -11.684   6.532  1.00  0.00     0.036 A 
HETATM    8  C   UNL     1      44.058 -11.487   7.520  1.00  0.00     0.032 A 
HETATM    9  C   UNL     1      43.927 -10.450   8.455  1.00  0.00     0.032 A 
HETATM   10  C   UNL     1      42.828  -9.595   8.418  1.00  0.00     0.035 A 
HETATM   11  C   UNL     1      41.867  -9.783   7.419  1.00  0.00     0.032 A 
HETATM   12  C   UNL     1      42.003 -10.812   6.478  1.00  0.00     0.032 A 
BRANCH  10  13
HETATM   13  N   UNL     1      42.612  -8.551   9.336  1.00  0.00    -0.321 N 
HETATM   14  C   UNL     1      43.052  -7.241   9.264  1.00  0.00     0.279 C 
HETATM   15  O   UNL     1      43.676  -6.747   8.331  1.00  0.00    -0.265 OA
HETATM   16  H   UNL     1      42.075  -8.770  10.169  1.00  0.00     0.169 HD
BRANCH  14  17
HETATM   17  C   UNL     1      42.690  -6.463  10.437  1.00  0.00     0.142 A 
HETATM   18  O   UNL     1      42.412  -7.107  11.617  1.00  0.00    -0.317 OA
HETATM   19  C   UNL     1      42.124  -6.148  12.535  1.00  0.00     0.143 A 
HETATM   20  C   UNL     1      42.204  -4.897  11.971  1.00  0.00     0.027 A 
HETATM   21  C   UNL     1      42.568  -5.099  10.619  1.00  0.00     0.045 A 
ENDBRANCH  14  17
ENDBRANCH  10  13
ENDBRANCH   3   7
BRANCH   1  22
HETATM   22  C   UNL     1      42.750 -16.179   4.526  1.00  0.00     0.138 C 
BRANCH  22  23
HETATM   23  C   UNL     1      42.693 -16.749   3.074  1.00  0.00    -0.004 C 
HETATM   24  C   UNL     1      43.668 -15.923   2.198  1.00  0.00     0.021 C 
HETATM   25  C   UNL     1      41.283 -16.521   2.481  1.00  0.00     0.021 C 
BRANCH  23  26
HETATM   26  C   UNL     1      43.134 -18.226   3.062  1.00  0.00    -0.046 A 
HETATM   27  C   UNL     1      42.878 -19.038   1.944  1.00  0.00     0.027 A 
HETATM   28  C   UNL     1      43.289 -20.364   1.950  1.00  0.00     0.116 A 
HETATM   29  N   UNL     1      43.941 -20.943   2.976  1.00  0.00    -0.273 NA
HETATM   30  C   UNL     1      44.178 -20.161   4.047  1.00  0.00     0.116 A 
HETATM   31  C   UNL     1      43.805 -18.826   4.135  1.00  0.00     0.027 A 
ENDBRANCH  23  26
ENDBRANCH  22  23
ENDBRANCH   1  22
TORSDOF 6
ENDMDL
MODEL 5
REMARK VINA RESULT:      -7.6      2.304      2.527
REMARK  6 active torsions:
REMARK  status: ('A' for Active; 'I' for Inactive)
REMARK    1  A    between atoms: C_2  and  C_3 
REMARK    2  A    between atoms: C_2  and  C_9 
REMARK    3  A    between atoms: C_9  and  N_10 
REMARK       I    between atoms: N_10  and  C_11 
REMARK       I    between atoms: C_11  and  N_12 
REMARK    4  A    between atoms: N_12  and  C_13 
REMARK    5  A    between atoms: C_16  and  N_17 
REMARK       I    between atoms: N_17  and  C_18 
REMARK    6  A    between atoms: C_18  and  C_19 
ROOT
HETATM    1  N   UNL     1      42.336 -14.260   4.019  1.00  0.00    -0.342 N 
HETATM    2  C   UNL     1      42.057 -13.620   5.209  1.00  0.00     0.320 C 
HETATM    3  N   UNL     1      41.373 -12.445   4.991  1.00  0.00    -0.309 N 
HETATM    4  O   UNL     1      42.378 -14.088   6.294  1.00  0.00    -0.247 OA
HETATM    5  H   UNL     1      42.378 -13.689   3.187  1.00  0.00     0.164 HD
HETATM    6  H   UNL     1      40.930 -12.366   4.089  1.00  0.00     0.170 HD
ENDROOT
BRANCH   3   7
HETATM    7  C   UNL     1      41.027 -11.480   5.959  1.00  0.00     0.036 A 
HETATM    8  C   UNL     1      41.929 -10.551   6.478  1.00  0.00     0.032 A 
HETATM    9  C   UNL     1      41.522  -9.614   7.438  1.00  0.00     0.032 A 
HETATM   10  C   UNL     1      40.207  -9.592   7.897  1.00  0.00     0.035 A 
HETATM   11  C   UNL     1      39.298 -10.514   7.368  1.00  0.00     0.032 A 
HETATM   12  C   UNL     1      39.701 -11.444   6.401  1.00  0.00     0.032 A 
BRANCH  10  13
HETATM   13  N   UNL     1      39.731  -8.702   8.877  1.00  0.00    -0.321 N 
HETATM   14  C   UNL     1      39.823  -8.814  10.254  1.00  0.00     0.279 C 
HETATM   15  O   UNL     1      40.400  -9.709  10.861  1.00  0.00    -0.265 OA
HETATM   16  H   UNL     1      39.249  -7.870   8.554  1.00  0.00     0.169 HD
BRANCH  14  17
HETATM   17  C   UNL     1      39.153  -7.728  10.949  1.00  0.00     0.142 A 
HETATM   18  O   UNL     1      38.898  -6.553  10.287  1.00  0.00    -0.317 OA
HETATM   19  C   UNL     1      38.258  -5.733  11.161  1.00  0.00     0.143 A 
HETATM   20  C   UNL     1      38.099  -6.352  12.377  1.00  0.00     0.027 A 
HETATM   21  C   UNL     1      38.676  -7.637  12.243  1.00  0.00     0.045 A 
ENDBRANCH  14  17
ENDBRANCH  10  13
ENDBRANCH   3   7
BRANCH   1  22
HETATM   22  C   UNL     1      43.067 -15.519   3.991  1.00  0.00     0.138 C 
BRANCH  22  23
HETATM   23  C   UNL     1      42.700 -16.451   2.794  1.00  0.00    -0.004 C 
HETATM   24  C   UNL     1      43.425 -15.917   1.533  1.00  0.00     0.021 C 
HETATM   25  C   UNL     1      41.186 -16.345   2.498  1.00  0.00     0.021 C 
BRANCH  23  26
HETATM   26  C   UNL     1      43.174 -17.891   3.073  1.00  0.00    -0.046 A 
HETATM   27  C   UNL     1      43.776 -18.219   4.300  1.00  0.00     0.027 A 
HETATM   28  C   UNL     1      44.190 -19.523   4.535  1.00  0.00     0.116 A 
HETATM   29  N   UNL     1      44.047 -20.526   3.649  1.00  0.00    -0.273 NA
HETATM   30  C   UNL     1      43.475 -20.205   2.472  1.00  0.00     0.116 A 
HETATM   31  C   UNL     1      43.030 -18.930   2.145  1.00  0.00     0.027 A 
ENDBRANCH  23  26
ENDBRANCH  22  23
ENDBRANCH   1  22
TORSDOF 6
ENDMDL
MODEL 6
REMARK VINA RESULT:      -7.6      3.481      6.101
REMARK  6 active torsions:
REMARK  status: ('A' for Active; 'I' for Inactive)
REMARK    1  A    between atoms: C_2  and  C_3 
REMARK    2  A    between atoms: C_2  and  C_9 
REMARK    3  A    between atoms: C_9  and  N_10 
REMARK       I    between atoms: N_10  and  C_11 
REMARK       I    between atoms: C_11  and  N_12 
REMARK    4  A    between atoms: N_12  and  C_13 
REMARK    5  A    between atoms: C_16  and  N_17 
REMARK       I    between atoms: N_17  and  C_18 
REMARK    6  A    between atoms: C_18  and  C_19 
ROOT
HETATM    1  N   UNL     1      43.328 -10.370   8.718  1.00  0.00    -0.342 N 
HETATM    2  C   UNL     1      43.290 -10.399  10.097  1.00  0.00     0.320 C 
HETATM    3  N   UNL     1      42.426  -9.446  10.589  1.00  0.00    -0.309 N 
HETATM    4  O   UNL     1      43.940 -11.203  10.752  1.00  0.00    -0.247 OA
HETATM    5  H   UNL     1      43.077  -9.501   8.268  1.00  0.00     0.164 HD
HETATM    6  H   UNL     1      41.756  -9.088   9.925  1.00  0.00     0.170 HD
ENDROOT
BRANCH   3   7
HETATM    7  C   UNL     1      42.223  -9.113  11.943  1.00  0.00     0.036 A 
HETATM    8  C   UNL     1      43.067  -8.268  12.664  1.00  0.00     0.032 A 
HETATM    9  C   UNL     1      42.810  -7.972  14.010  1.00  0.00     0.032 A 
HETATM   10  C   UNL     1      41.704  -8.518  14.658  1.00  0.00     0.035 A 
HETATM   11  C   UNL     1      40.848  -9.354  13.933  1.00  0.00     0.032 A 
HETATM   12  C   UNL     1      41.100  -9.642  12.586  1.00  0.00     0.032 A 
BRANCH  10  13
HETATM   13  N   UNL     1      41.395  -8.291  16.012  1.00  0.00    -0.321 N 
HETATM   14  C   UNL     1      40.559  -7.328  16.551  1.00  0.00     0.279 C 
HETATM   15  O   UNL     1      39.888  -6.526  15.911  1.00  0.00    -0.265 OA
HETATM   16  H   UNL     1      41.839  -8.894  16.696  1.00  0.00     0.169 HD
BRANCH  14  17
HETATM   17  C   UNL     1      40.538  -7.356  18.004  1.00  0.00     0.142 A 
HETATM   18  O   UNL     1      41.449  -6.611  18.709  1.00  0.00    -0.317 OA
HETATM   19  C   UNL     1      41.192  -6.811  20.028  1.00  0.00     0.143 A 
HETATM   20  C   UNL     1      40.136  -7.675  20.190  1.00  0.00     0.027 A 
HETATM   21  C   UNL     1      39.713  -8.027  18.886  1.00  0.00     0.045 A 
ENDBRANCH  14  17
ENDBRANCH  10  13
ENDBRANCH   3   7
BRANCH   1  22
HETATM   22  C   UNL     1      44.183 -11.278   7.967  1.00  0.00     0.138 C 
BRANCH  22  23
HETATM   23  C   UNL     1      43.707 -11.550   6.505  1.00  0.00    -0.004 C 
HETATM   24  C   UNL     1      44.942 -11.450   5.574  1.00  0.00     0.021 C 
HETATM   25  C   UNL     1      42.739 -10.430   6.057  1.00  0.00     0.021 C 
BRANCH  23  26
HETATM   26  C   UNL     1      43.106 -12.965   6.393  1.00  0.00    -0.046 A 
HETATM   27  C   UNL     1      43.885 -14.096   6.690  1.00  0.00     0.027 A 
HETATM   28  C   UNL     1      43.324 -15.362   6.589  1.00  0.00     0.116 A 
HETATM   29  N   UNL     1      42.049 -15.590   6.223  1.00  0.00    -0.273 NA
HETATM   30  C   UNL     1      41.308 -14.502   5.933  1.00  0.00     0.116 A 
HETATM   31  C   UNL     1      41.781 -13.198   6.004  1.00  0.00     0.027 A 
ENDBRANCH  23  26
ENDBRANCH  22  23
ENDBRANCH   1  22
TORSDOF 6
ENDMDL
MODEL 7
REMARK VINA RESULT:      -7.3      7.101     11.054
REMARK  6 active torsions:
REMARK  status: ('A' for Active; 'I' for Inactive)
REMARK    1  A    between atoms: C_2  and  C_3 
REMARK    2  A    between atoms: C_2  and  C_9 
REMARK    3  A    between atoms: C_9  and  N_10 
REMARK       I    between atoms: N_10  and  C_11 
REMARK       I    between atoms: C_11  and  N_12 
REMARK    4  A    between atoms: N_12  and  C_13 
REMARK    5  A    between atoms: C_16  and  N_17 
REMARK       I    between atoms: N_17  and  C_18 
REMARK    6  A    between atoms: C_18  and  C_19 
ROOT
HETATM    1  N   UNL     1      40.899 -15.896   1.300  1.00  0.00    -0.342 N 
HETATM    2  C   UNL     1      40.209 -14.761   0.926  1.00  0.00     0.320 C 
HETATM    3  N   UNL     1      40.001 -14.734  -0.435  1.00  0.00    -0.309 N 
HETATM    4  O   UNL     1      39.832 -13.927   1.739  1.00  0.00    -0.247 OA
HETATM    5  H   UNL     1      41.475 -16.338   0.598  1.00  0.00     0.164 HD
HETATM    6  H   UNL     1      40.099 -15.621  -0.904  1.00  0.00     0.170 HD
ENDROOT
BRANCH   3   7
HETATM    7  C   UNL     1      39.436 -13.678  -1.179  1.00  0.00     0.036 A 
HETATM    8  C   UNL     1      39.912 -12.368  -1.140  1.00  0.00     0.032 A 
HETATM    9  C   UNL     1      39.308 -11.361  -1.907  1.00  0.00     0.032 A 
HETATM   10  C   UNL     1      38.217 -11.648  -2.724  1.00  0.00     0.035 A 
HETATM   11  C   UNL     1      37.747 -12.965  -2.775  1.00  0.00     0.032 A 
HETATM   12  C   UNL     1      38.356 -13.973  -2.017  1.00  0.00     0.032 A 
BRANCH  10  13
HETATM   13  N   UNL     1      37.542 -10.689  -3.500  1.00  0.00    -0.321 N 
HETATM   14  C   UNL     1      36.457  -9.907  -3.143  1.00  0.00     0.279 C 
HETATM   15  O   UNL     1      35.925  -9.884  -2.038  1.00  0.00    -0.265 OA
HETATM   16  H   UNL     1      37.871 -10.544  -4.448  1.00  0.00     0.169 HD
BRANCH  14  17
HETATM   17  C   UNL     1      35.984  -9.073  -4.235  1.00  0.00     0.142 A 
HETATM   18  O   UNL     1      34.675  -8.662  -4.257  1.00  0.00    -0.317 OA
HETATM   19  C   UNL     1      34.518  -7.893  -5.366  1.00  0.00     0.143 A 
HETATM   20  C   UNL     1      35.698  -7.804  -6.065  1.00  0.00     0.027 A 
HETATM   21  C   UNL     1      36.644  -8.563  -5.338  1.00  0.00     0.045 A 
ENDBRANCH  14  17
ENDBRANCH  10  13
ENDBRANCH   3   7
BRANCH   1  22
HETATM   22  C   UNL     1      41.251 -16.143   2.691  1.00  0.00     0.138 C 
BRANCH  22  23
HETATM   23  C   UNL     1      42.785 -16.241   2.960  1.00  0.00    -0.004 C 
HETATM   24  C   UNL     1      43.094 -15.455   4.259  1.00  0.00     0.021 C 
HETATM   25  C   UNL     1      43.558 -15.524   1.829  1.00  0.00     0.021 C 
BRANCH  23  26
HETATM   26  C   UNL     1      43.201 -17.713   3.153  1.00  0.00    -0.046 A 
HETATM   27  C   UNL     1      43.803 -18.133   4.351  1.00  0.00     0.027 A 
HETATM   28  C   UNL     1      44.165 -19.464   4.508  1.00  0.00     0.116 A 
HETATM   29  N   UNL     1      43.968 -20.410   3.570  1.00  0.00    -0.273 NA
HETATM   30  C   UNL     1      43.397 -20.001   2.421  1.00  0.00     0.116 A 
HETATM   31  C   UNL     1      43.002 -18.692   2.171  1.00  0.00     0.027 A 
ENDBRANCH  23  26
ENDBRANCH  22  23
ENDBRANCH   1  22
TORSDOF 6
ENDMDL
MODEL 8
REMARK VINA RESULT:      -7.3      7.237     11.544
REMARK  6 active torsions:
REMARK  status: ('A' for Active; 'I' for Inactive)
REMARK    1  A    between atoms: C_2  and  C_3 
REMARK    2  A    between atoms: C_2  and  C_9 
REMARK    3  A    between atoms: C_9  and  N_10 
REMARK       I    between atoms: N_10  and  C_11 
REMARK       I    between atoms: C_11  and  N_12 
REMARK    4  A    between atoms: N_12  and  C_13 
REMARK    5  A    between atoms: C_16  and  N_17 
REMARK       I    between atoms: N_17  and  C_18 
REMARK    6  A    between atoms: C_18  and  C_19 
ROOT
HETATM    1  N   UNL     1      41.764 -14.387   0.918  1.00  0.00    -0.342 N 
HETATM    2  C   UNL     1      40.579 -14.200   0.237  1.00  0.00     0.320 C 
HETATM    3  N   UNL     1      40.455 -12.897  -0.193  1.00  0.00    -0.309 N 
HETATM    4  O   UNL     1      39.783 -15.110   0.046  1.00  0.00    -0.247 OA
HETATM    5  H   UNL     1      42.184 -13.573   1.345  1.00  0.00     0.164 HD
HETATM    6  H   UNL     1      41.314 -12.370  -0.222  1.00  0.00     0.170 HD
ENDROOT
BRANCH   3   7
HETATM    7  C   UNL     1      39.330 -12.320  -0.817  1.00  0.00     0.036 A 
HETATM    8  C   UNL     1      38.230 -11.825  -0.116  1.00  0.00     0.032 A 
HETATM    9  C   UNL     1      37.142 -11.259  -0.794  1.00  0.00     0.032 A 
HETATM   10  C   UNL     1      37.134 -11.181  -2.185  1.00  0.00     0.035 A 
HETATM   11  C   UNL     1      38.242 -11.664  -2.889  1.00  0.00     0.032 A 
HETATM   12  C   UNL     1      39.335 -12.220  -2.211  1.00  0.00     0.032 A 
BRANCH  10  13
HETATM   13  N   UNL     1      36.068 -10.653  -2.937  1.00  0.00    -0.321 N 
HETATM   14  C   UNL     1      35.159 -11.333  -3.729  1.00  0.00     0.279 C 
HETATM   15  O   UNL     1      35.099 -12.550  -3.865  1.00  0.00    -0.265 OA
HETATM   16  H   UNL     1      35.939  -9.647  -2.916  1.00  0.00     0.169 HD
BRANCH  14  17
HETATM   17  C   UNL     1      34.235 -10.442  -4.410  1.00  0.00     0.142 A 
HETATM   18  O   UNL     1      32.930 -10.827  -4.591  1.00  0.00    -0.317 OA
HETATM   19  C   UNL     1      32.300  -9.809  -5.233  1.00  0.00     0.143 A 
HETATM   20  C   UNL     1      33.173  -8.776  -5.477  1.00  0.00     0.027 A 
HETATM   21  C   UNL     1      34.420  -9.182  -4.947  1.00  0.00     0.045 A 
ENDBRANCH  14  17
ENDBRANCH  10  13
ENDBRANCH   3   7
BRANCH   1  22
HETATM   22  C   UNL     1      42.114 -15.682   1.483  1.00  0.00     0.138 C 
BRANCH  22  23
HETATM   23  C   UNL     1      42.176 -15.710   3.043  1.00  0.00    -0.004 C 
HETATM   24  C   UNL     1      40.723 -15.785   3.577  1.00  0.00     0.021 C 
HETATM   25  C   UNL     1      42.757 -14.375   3.564  1.00  0.00     0.021 C 
BRANCH  23  26
HETATM   26  C   UNL     1      42.953 -16.950   3.525  1.00  0.00    -0.046 A 
HETATM   27  C   UNL     1      43.355 -17.940   2.612  1.00  0.00     0.027 A 
HETATM   28  C   UNL     1      44.060 -19.047   3.065  1.00  0.00     0.116 A 
HETATM   29  N   UNL     1      44.401 -19.243   4.352  1.00  0.00    -0.273 NA
HETATM   30  C   UNL     1      44.008 -18.295   5.225  1.00  0.00     0.116 A 
HETATM   31  C   UNL     1      43.299 -17.154   4.867  1.00  0.00     0.027 A 
ENDBRANCH  23  26
ENDBRANCH  22  23
ENDBRANCH   1  22
TORSDOF 6
ENDMDL
MODEL 9
REMARK VINA RESULT:      -7.1      1.601      2.043
REMARK  6 active torsions:
REMARK  status: ('A' for Active; 'I' for Inactive)
REMARK    1  A    between atoms: C_2  and  C_3 
REMARK    2  A    between atoms: C_2  and  C_9 
REMARK    3  A    between atoms: C_9  and  N_10 
REMARK       I    between atoms: N_10  and  C_11 
REMARK       I    between atoms: C_11  and  N_12 
REMARK    4  A    between atoms: N_12  and  C_13 
REMARK    5  A    between atoms: C_16  and  N_17 
REMARK       I    between atoms: N_17  and  C_18 
REMARK    6  A    between atoms: C_18  and  C_19 
ROOT
HETATM    1  N   UNL     1      42.880 -11.736   3.886  1.00  0.00    -0.342 N 
HETATM    2  C   UNL     1      43.034 -11.662   5.256  1.00  0.00     0.320 C 
HETATM    3  N   UNL     1      42.544 -10.471   5.745  1.00  0.00    -0.309 N 
HETATM    4  O   UNL     1      43.526 -12.572   5.909  1.00  0.00    -0.247 OA
HETATM    5  H   UNL     1      42.815 -10.864   3.382  1.00  0.00     0.164 HD
HETATM    6  H   UNL     1      41.910  -9.982   5.132  1.00  0.00     0.170 HD
ENDROOT
BRANCH   3   7
HETATM    7  C   UNL     1      42.637 -10.005   7.072  1.00  0.00     0.036 A 
HETATM    8  C   UNL     1      43.845  -9.858   7.754  1.00  0.00     0.032 A 
HETATM    9  C   UNL     1      43.871  -9.386   9.074  1.00  0.00     0.032 A 
HETATM   10  C   UNL     1      42.690  -9.055   9.734  1.00  0.00     0.035 A 
HETATM   11  C   UNL     1      41.479  -9.189   9.047  1.00  0.00     0.032 A 
HETATM   12  C   UNL     1      41.453  -9.651   7.725  1.00  0.00     0.032 A 
BRANCH  10  13
HETATM   13  N   UNL     1      42.633  -8.602  11.065  1.00  0.00    -0.321 N 
HETATM   14  C   UNL     1      42.792  -9.336  12.228  1.00  0.00     0.279 C 
HETATM   15  O   UNL     1      43.071 -10.529  12.288  1.00  0.00    -0.265 OA
HETATM   16  H   UNL     1      42.444  -7.616  11.212  1.00  0.00     0.169 HD
BRANCH  14  17
HETATM   17  C   UNL     1      42.599  -8.536  13.425  1.00  0.00     0.142 A 
HETATM   18  O   UNL     1      41.691  -8.940  14.372  1.00  0.00    -0.317 OA
HETATM   19  C   UNL     1      41.728  -8.026  15.376  1.00  0.00     0.143 A 
HETATM   20  C   UNL     1      42.637  -7.035  15.095  1.00  0.00     0.027 A 
HETATM   21  C   UNL     1      43.199  -7.361  13.838  1.00  0.00     0.045 A 
ENDBRANCH  14  17
ENDBRANCH  10  13
ENDBRANCH   3   7
BRANCH   1  22
HETATM   22  C   UNL     1      43.336 -12.898   3.137  1.00  0.00     0.138 C 
BRANCH  22  23
HETATM   23  C   UNL     1      42.212 -13.924   2.791  1.00  0.00    -0.004 C 
HETATM   24  C   UNL     1      41.832 -13.734   1.301  1.00  0.00     0.021 C 
HETATM   25  C   UNL     1      40.939 -13.594   3.606  1.00  0.00     0.021 C 
BRANCH  23  26
HETATM   26  C   UNL     1      42.720 -15.364   3.000  1.00  0.00    -0.046 A 
HETATM   27  C   UNL     1      42.954 -15.858   4.295  1.00  0.00     0.027 A 
HETATM   28  C   UNL     1      43.406 -17.160   4.462  1.00  0.00     0.116 A 
HETATM   29  N   UNL     1      43.637 -18.010   3.445  1.00  0.00    -0.273 NA
HETATM   30  C   UNL     1      43.418 -17.530   2.205  1.00  0.00     0.116 A 
HETATM   31  C   UNL     1      42.967 -16.243   1.937  1.00  0.00     0.027 A 
ENDBRANCH  23  26
ENDBRANCH  22  23
ENDBRANCH   1  22
TORSDOF 6
ENDMDL
MODEL 10
REMARK VINA RESULT:      -7.1     18.500     20.568
REMARK  6 active torsions:
REMARK  status: ('A' for Active; 'I' for Inactive)
REMARK    1  A    between atoms: C_2  and  C_3 
REMARK    2  A    between atoms: C_2  and  C_9 
REMARK    3  A    between atoms: C_9  and  N_10 
REMARK       I    between atoms: N_10  and  C_11 
REMARK       I    between atoms: C_11  and  N_12 
REMARK    4  A    between atoms: N_12  and  C_13 
REMARK    5  A    between atoms: C_16  and  N_17 
REMARK       I    between atoms: N_17  and  C_18 
REMARK    6  A    between atoms: C_18  and  C_19 
ROOT
HETATM    1  N   UNL     1      45.098 -28.732   0.753  1.00  0.00    -0.342 N 
HETATM    2  C   UNL     1      44.455 -29.672   1.532  1.00  0.00     0.320 C 
HETATM    3  N   UNL     1      43.089 -29.496   1.494  1.00  0.00    -0.309 N 
HETATM    4  O   UNL     1      45.062 -30.543   2.142  1.00  0.00    -0.247 OA
HETATM    5  H   UNL     1      44.611 -27.864   0.582  1.00  0.00     0.164 HD
HETATM    6  H   UNL     1      42.747 -28.945   0.722  1.00  0.00     0.170 HD
ENDROOT
BRANCH   3   7
HETATM    7  C   UNL     1      42.129 -30.194   2.254  1.00  0.00     0.036 A 
HETATM    8  C   UNL     1      41.921 -29.980   3.616  1.00  0.00     0.032 A 
HETATM    9  C   UNL     1      40.947 -30.705   4.317  1.00  0.00     0.032 A 
HETATM   10  C   UNL     1      40.166 -31.659   3.667  1.00  0.00     0.035 A 
HETATM   11  C   UNL     1      40.364 -31.865   2.298  1.00  0.00     0.032 A 
HETATM   12  C   UNL     1      41.330 -31.134   1.595  1.00  0.00     0.032 A 
BRANCH  10  13
HETATM   13  N   UNL     1      39.190 -32.445   4.307  1.00  0.00    -0.321 N 
HETATM   14  C   UNL     1      39.378 -33.509   5.171  1.00  0.00     0.279 C 
HETATM   15  O   UNL     1      40.461 -33.919   5.575  1.00  0.00    -0.265 OA
HETATM   16  H   UNL     1      38.219 -32.224   4.116  1.00  0.00     0.169 HD
BRANCH  14  17
HETATM   17  C   UNL     1      38.127 -34.123   5.583  1.00  0.00     0.142 A 
HETATM   18  O   UNL     1      37.139 -33.346   6.134  1.00  0.00    -0.317 OA
HETATM   19  C   UNL     1      36.092 -34.167   6.406  1.00  0.00     0.143 A 
HETATM   20  C   UNL     1      36.385 -35.461   6.047  1.00  0.00     0.027 A 
HETATM   21  C   UNL     1      37.696 -35.435   5.517  1.00  0.00     0.045 A 
ENDBRANCH  14  17
ENDBRANCH  10  13
ENDBRANCH   3   7
BRANCH   1  22
HETATM   22  C   UNL     1      46.549 -28.705   0.646  1.00  0.00     0.138 C 
BRANCH  22  23
HETATM   23  C   UNL     1      47.099 -29.089  -0.764  1.00  0.00    -0.004 C 
HETATM   24  C   UNL     1      47.120 -27.807  -1.634  1.00  0.00     0.021 C 
HETATM   25  C   UNL     1      46.118 -30.063  -1.457  1.00  0.00     0.021 C 
BRANCH  23  26
HETATM   26  C   UNL     1      48.534 -29.640  -0.646  1.00  0.00    -0.046 A 
HETATM   27  C   UNL     1      49.297 -29.896  -1.798  1.00  0.00     0.027 A 
HETATM   28  C   UNL     1      50.589 -30.386  -1.672  1.00  0.00     0.116 A 
HETATM   29  N   UNL     1      51.185 -30.635  -0.490  1.00  0.00    -0.273 NA
HETATM   30  C   UNL     1      50.447 -30.394   0.611  1.00  0.00     0.116 A 
HETATM   31  C   UNL     1      49.146 -29.905   0.585  1.00  0.00     0.027 A 
ENDBRANCH  23  26
ENDBRANCH  22  23
ENDBRANCH   1  22
TORSDOF 6
ENDMDL
