MODEL 1
REMARK VINA RESULT:      -8.5      0.000      0.000
REMARK  7 active torsions:
REMARK  status: ('A' for Active; 'I' for Inactive)
REMARK    1  A    between atoms: C_7  and  C_8 
REMARK    2  A    between atoms: C_8  and  C_9 
REMARK    3  A    between atoms: C_9  and  C_10 
REMARK    4  A    between atoms: C_10  and  O_11 
REMARK    5  A    between atoms: C_13  and  C_14 
REMARK    6  A    between atoms: C_21  and  C_22 
REMARK       I    between atoms: C_22  and  N_23 
REMARK    7  A    between atoms: N_23  and  C_24 
ROOT
HETATM    1  C   UNL     1      38.760 -11.816   4.123  1.00  0.00     0.070 C 
HETATM    2  C   UNL     1      40.244 -12.079   4.053  1.00  0.00     0.037 A 
HETATM    3  N   UNL     1      40.999 -11.546   5.092  1.00  0.00    -0.192 N 
HETATM    4  C   UNL     1      42.341 -11.630   5.153  1.00  0.00     0.726 A 
HETATM    5  N   UNL     1      43.011 -12.317   4.180  1.00  0.00    -0.083 N 
HETATM    6  N   UNL     1      44.348 -12.185   4.318  1.00  0.00    -0.140 NA
HETATM    7  C   UNL     1      44.411 -11.505   5.473  1.00  0.00     0.166 A 
HETATM    8  N   UNL     1      43.199 -11.129   6.003  1.00  0.00    -0.046 NA
HETATM    9  C   UNL     1      42.361 -13.004   3.058  1.00  0.00     0.202 A 
HETATM   10  C   UNL     1      40.856 -12.767   3.056  1.00  0.00     0.062 A 
HETATM   11  H   UNL     1      40.509 -11.032   5.819  1.00  0.00     0.184 HD
ENDROOT
BRANCH  10  12
HETATM   12  C   UNL     1      40.048 -13.404   1.978  1.00  0.00     0.256 C 
HETATM   13  N   UNL     1      40.168 -12.779   0.754  1.00  0.00    -0.323 N 
HETATM   14  H   UNL     1      40.789 -11.987   0.676  1.00  0.00     0.169 HD
HETATM   15  O   UNL     1      39.371 -14.390   2.240  1.00  0.00    -0.267 OA
BRANCH  13  16
HETATM   16  C   UNL     1      39.490 -13.116  -0.439  1.00  0.00     0.035 A 
HETATM   17  C   UNL     1      39.755 -14.262  -1.192  1.00  0.00     0.029 A 
HETATM   18  C   UNL     1      39.020 -14.535  -2.351  1.00  0.00     0.002 A 
HETATM   19  C   UNL     1      38.022 -13.660  -2.772  1.00  0.00     0.000 A 
HETATM   20  C   UNL     1      37.752 -12.513  -2.032  1.00  0.00     0.002 A 
HETATM   21  C   UNL     1      38.478 -12.246  -0.868  1.00  0.00     0.029 A 
ENDBRANCH  13  16
ENDBRANCH  10  12
BRANCH   9  22
HETATM   22  C   UNL     1      42.773 -14.474   3.051  1.00  0.00    -0.028 A 
HETATM   23  C   UNL     1      43.181 -15.126   1.874  1.00  0.00     0.011 A 
HETATM   24  C   UNL     1      43.519 -16.482   1.892  1.00  0.00     0.019 A 
HETATM   25  C   UNL     1      43.439 -17.201   3.082  1.00  0.00     0.011 A 
HETATM   26 BR   UNL     1      43.885 -19.038   3.102  1.00  0.00    -0.051 Br
HETATM   27  C   UNL     1      43.024 -16.578   4.256  1.00  0.00     0.019 A 
HETATM   28  C   UNL     1      42.693 -15.223   4.240  1.00  0.00     0.011 A 
ENDBRANCH   9  22
BRANCH   7  29
HETATM   29  C   UNL     1      45.699 -11.191   6.139  1.00  0.00     0.085 C 
BRANCH  29  30
HETATM   30  C   UNL     1      45.548 -10.912   7.633  1.00  0.00     0.034 C 
BRANCH  30  31
HETATM   31  C   UNL     1      45.760  -9.445   7.994  1.00  0.00     0.164 C 
BRANCH  31  32
HETATM   32  O   UNL     1      47.015  -9.006   7.482  1.00  0.00    -0.401 OA
HETATM   33  H   UNL     1      47.133  -8.080   7.751  1.00  0.00     0.209 HD
ENDBRANCH  31  32
ENDBRANCH  30  31
ENDBRANCH  29  30
ENDBRANCH   7  29
TORSDOF 7
ENDMDL
MODEL 2
REMARK VINA RESULT:      -7.8      3.523      6.676
REMARK  7 active torsions:
REMARK  status: ('A' for Active; 'I' for Inactive)
REMARK    1  A    between atoms: C_7  and  C_8 
REMARK    2  A    between atoms: C_8  and  C_9 
REMARK    3  A    between atoms: C_9  and  C_10 
REMARK    4  A    between atoms: C_10  and  O_11 
REMARK    5  A    between atoms: C_13  and  C_14 
REMARK    6  A    between atoms: C_21  and  C_22 
REMARK       I    between atoms: C_22  and  N_23 
REMARK    7  A    between atoms: N_23  and  C_24 
ROOT
HETATM    1  C   UNL     1      39.880 -15.989   1.089  1.00  0.00     0.070 C 
HETATM    2  C   UNL     1      40.393 -14.585   1.295  1.00  0.00     0.037 A 
HETATM    3  N   UNL     1      39.485 -13.568   1.026  1.00  0.00    -0.192 N 
HETATM    4  C   UNL     1      39.793 -12.260   1.095  1.00  0.00     0.726 A 
HETATM    5  N   UNL     1      41.045 -11.891   1.502  1.00  0.00    -0.083 N 
HETATM    6  N   UNL     1      41.227 -10.558   1.381  1.00  0.00    -0.140 NA
HETATM    7  C   UNL     1      39.996 -10.173   1.013  1.00  0.00     0.166 A 
HETATM    8  N   UNL     1      39.096 -11.192   0.807  1.00  0.00    -0.046 NA
HETATM    9  C   UNL     1      42.096 -12.835   1.897  1.00  0.00     0.202 A 
HETATM   10  C   UNL     1      41.653 -14.279   1.698  1.00  0.00     0.062 A 
HETATM   11  H   UNL     1      38.552 -13.833   0.722  1.00  0.00     0.184 HD
ENDROOT
BRANCH  10  12
HETATM   12  C   UNL     1      42.610 -15.362   2.059  1.00  0.00     0.256 C 
HETATM   13  N   UNL     1      42.168 -16.172   3.083  1.00  0.00    -0.323 N 
HETATM   14  H   UNL     1      41.255 -15.996   3.477  1.00  0.00     0.169 HD
HETATM   15  O   UNL     1      43.667 -15.454   1.448  1.00  0.00    -0.267 OA
BRANCH  13  16
HETATM   16  C   UNL     1      42.870 -17.245   3.678  1.00  0.00     0.035 A 
HETATM   17  C   UNL     1      43.174 -17.323   5.038  1.00  0.00     0.029 A 
HETATM   18  C   UNL     1      43.853 -18.432   5.552  1.00  0.00     0.002 A 
HETATM   19  C   UNL     1      44.244 -19.469   4.708  1.00  0.00     0.000 A 
HETATM   20  C   UNL     1      43.950 -19.401   3.349  1.00  0.00     0.002 A 
HETATM   21  C   UNL     1      43.262 -18.297   2.838  1.00  0.00     0.029 A 
ENDBRANCH  13  16
ENDBRANCH  10  12
BRANCH   9  22
HETATM   22  C   UNL     1      42.574 -12.506   3.309  1.00  0.00    -0.028 A 
HETATM   23  C   UNL     1      41.791 -12.788   4.442  1.00  0.00     0.011 A 
HETATM   24  C   UNL     1      42.240 -12.444   5.720  1.00  0.00     0.019 A 
HETATM   25  C   UNL     1      43.466 -11.803   5.876  1.00  0.00     0.011 A 
HETATM   26 BR   UNL     1      44.066 -11.326   7.605  1.00  0.00    -0.051 Br
HETATM   27  C   UNL     1      44.250 -11.501   4.766  1.00  0.00     0.019 A 
HETATM   28  C   UNL     1      43.806 -11.851   3.490  1.00  0.00     0.011 A 
ENDBRANCH   9  22
BRANCH   7  29
HETATM   29  C   UNL     1      39.627  -8.745   0.850  1.00  0.00     0.085 C 
BRANCH  29  30
HETATM   30  C   UNL     1      40.178  -8.127  -0.434  1.00  0.00     0.034 C 
BRANCH  30  31
HETATM   31  C   UNL     1      41.487  -7.373  -0.223  1.00  0.00     0.164 C 
BRANCH  31  32
HETATM   32  O   UNL     1      42.577  -8.287  -0.284  1.00  0.00    -0.401 OA
HETATM   33  H   UNL     1      42.848  -8.359  -1.214  1.00  0.00     0.209 HD
ENDBRANCH  31  32
ENDBRANCH  30  31
ENDBRANCH  29  30
ENDBRANCH   7  29
TORSDOF 7
ENDMDL
MODEL 3
REMARK VINA RESULT:      -7.7      3.163      5.714
REMARK  7 active torsions:
REMARK  status: ('A' for Active; 'I' for Inactive)
REMARK    1  A    between atoms: C_7  and  C_8 
REMARK    2  A    between atoms: C_8  and  C_9 
REMARK    3  A    between atoms: C_9  and  C_10 
REMARK    4  A    between atoms: C_10  and  O_11 
REMARK    5  A    between atoms: C_13  and  C_14 
REMARK    6  A    between atoms: C_21  and  C_22 
REMARK       I    between atoms: C_22  and  N_23 
REMARK    7  A    between atoms: N_23  and  C_24 
ROOT
HETATM    1  C   UNL     1      44.841 -15.609   6.819  1.00  0.00     0.070 C 
HETATM    2  C   UNL     1      43.781 -14.612   6.419  1.00  0.00     0.037 A 
HETATM    3  N   UNL     1      44.016 -13.297   6.803  1.00  0.00    -0.192 N 
HETATM    4  C   UNL     1      43.146 -12.294   6.586  1.00  0.00     0.726 A 
HETATM    5  N   UNL     1      41.989 -12.550   5.906  1.00  0.00    -0.083 N 
HETATM    6  N   UNL     1      41.175 -11.473   5.898  1.00  0.00    -0.140 NA
HETATM    7  C   UNL     1      41.965 -10.562   6.487  1.00  0.00     0.166 A 
HETATM    8  N   UNL     1      43.173 -11.036   6.941  1.00  0.00    -0.046 NA
HETATM    9  C   UNL     1      41.623 -13.865   5.365  1.00  0.00     0.202 A 
HETATM   10  C   UNL     1      42.645 -14.928   5.746  1.00  0.00     0.062 A 
HETATM   11  H   UNL     1      44.874 -13.097   7.310  1.00  0.00     0.184 HD
ENDROOT
BRANCH  10  12
HETATM   12  C   UNL     1      42.419 -16.321   5.267  1.00  0.00     0.256 C 
HETATM   13  N   UNL     1      43.507 -16.866   4.618  1.00  0.00    -0.323 N 
HETATM   14  H   UNL     1      44.350 -16.315   4.543  1.00  0.00     0.169 HD
HETATM   15  O   UNL     1      41.339 -16.857   5.476  1.00  0.00    -0.267 OA
BRANCH  13  16
HETATM   16  C   UNL     1      43.579 -18.141   4.011  1.00  0.00     0.035 A 
HETATM   17  C   UNL     1      44.011 -19.296   4.667  1.00  0.00     0.029 A 
HETATM   18  C   UNL     1      44.030 -20.525   4.000  1.00  0.00     0.002 A 
HETATM   19  C   UNL     1      43.629 -20.608   2.669  1.00  0.00     0.000 A 
HETATM   20  C   UNL     1      43.201 -19.463   2.004  1.00  0.00     0.002 A 
HETATM   21  C   UNL     1      43.171 -18.237   2.674  1.00  0.00     0.029 A 
ENDBRANCH  13  16
ENDBRANCH  10  12
BRANCH   9  22
HETATM   22  C   UNL     1      41.360 -13.745   3.866  1.00  0.00    -0.028 A 
HETATM   23  C   UNL     1      42.366 -13.359   2.963  1.00  0.00     0.011 A 
HETATM   24  C   UNL     1      42.087 -13.224   1.601  1.00  0.00     0.019 A 
HETATM   25  C   UNL     1      40.797 -13.459   1.130  1.00  0.00     0.011 A 
HETATM   26 BR   UNL     1      40.417 -13.264  -0.711  1.00  0.00    -0.051 Br
HETATM   27  C   UNL     1      39.783 -13.828   2.009  1.00  0.00     0.019 A 
HETATM   28  C   UNL     1      40.062 -13.970   3.369  1.00  0.00     0.011 A 
ENDBRANCH   9  22
BRANCH   7  29
HETATM   29  C   UNL     1      41.567  -9.140   6.628  1.00  0.00     0.085 C 
BRANCH  29  30
HETATM   30  C   UNL     1      42.135  -8.480   7.883  1.00  0.00     0.034 C 
BRANCH  30  31
HETATM   31  C   UNL     1      41.413  -8.898   9.160  1.00  0.00     0.164 C 
BRANCH  31  32
HETATM   32  O   UNL     1      42.168  -9.906   9.825  1.00  0.00    -0.401 OA
HETATM   33  H   UNL     1      41.568 -10.368  10.434  1.00  0.00     0.209 HD
ENDBRANCH  31  32
ENDBRANCH  30  31
ENDBRANCH  29  30
ENDBRANCH   7  29
TORSDOF 7
ENDMDL
MODEL 4
REMARK VINA RESULT:      -7.7      3.499      6.148
REMARK  7 active torsions:
REMARK  status: ('A' for Active; 'I' for Inactive)
REMARK    1  A    between atoms: C_7  and  C_8 
REMARK    2  A    between atoms: C_8  and  C_9 
REMARK    3  A    between atoms: C_9  and  C_10 
REMARK    4  A    between atoms: C_10  and  O_11 
REMARK    5  A    between atoms: C_13  and  C_14 
REMARK    6  A    between atoms: C_21  and  C_22 
REMARK       I    between atoms: C_22  and  N_23 
REMARK    7  A    between atoms: N_23  and  C_24 
ROOT
HETATM    1  C   UNL     1      43.417 -14.205   6.971  1.00  0.00     0.070 C 
HETATM    2  C   UNL     1      42.282 -13.544   6.229  1.00  0.00     0.037 A 
HETATM    3  N   UNL     1      42.140 -12.177   6.441  1.00  0.00    -0.192 N 
HETATM    4  C   UNL     1      41.145 -11.443   5.910  1.00  0.00     0.726 A 
HETATM    5  N   UNL     1      40.248 -12.043   5.073  1.00  0.00    -0.083 N 
HETATM    6  N   UNL     1      39.244 -11.202   4.744  1.00  0.00    -0.140 NA
HETATM    7  C   UNL     1      39.672 -10.069   5.323  1.00  0.00     0.166 A 
HETATM    8  N   UNL     1      40.823 -10.185   6.065  1.00  0.00    -0.046 NA
HETATM    9  C   UNL     1      40.300 -13.457   4.683  1.00  0.00     0.202 A 
HETATM   10  C   UNL     1      41.417 -14.195   5.410  1.00  0.00     0.062 A 
HETATM   11  H   UNL     1      42.803 -11.723   7.064  1.00  0.00     0.184 HD
ENDROOT
BRANCH  10  12
HETATM   12  C   UNL     1      41.605 -15.643   5.119  1.00  0.00     0.256 C 
HETATM   13  N   UNL     1      42.726 -15.915   4.363  1.00  0.00    -0.323 N 
HETATM   14  H   UNL     1      43.326 -15.148   4.097  1.00  0.00     0.169 HD
HETATM   15  O   UNL     1      40.794 -16.452   5.553  1.00  0.00    -0.267 OA
BRANCH  13  16
HETATM   16  C   UNL     1      43.140 -17.180   3.886  1.00  0.00     0.035 A 
HETATM   17  C   UNL     1      43.968 -18.051   4.596  1.00  0.00     0.029 A 
HETATM   18  C   UNL     1      44.312 -19.297   4.062  1.00  0.00     0.002 A 
HETATM   19  C   UNL     1      43.840 -19.678   2.809  1.00  0.00     0.000 A 
HETATM   20  C   UNL     1      43.018 -18.817   2.090  1.00  0.00     0.002 A 
HETATM   21  C   UNL     1      42.665 -17.576   2.629  1.00  0.00     0.029 A 
ENDBRANCH  13  16
ENDBRANCH  10  12
BRANCH   9  22
HETATM   22  C   UNL     1      40.353 -13.565   3.161  1.00  0.00    -0.028 A 
HETATM   23  C   UNL     1      40.884 -12.539   2.361  1.00  0.00     0.011 A 
HETATM   24  C   UNL     1      40.888 -12.651   0.968  1.00  0.00     0.019 A 
HETATM   25  C   UNL     1      40.348 -13.783   0.362  1.00  0.00     0.011 A 
HETATM   26 BR   UNL     1      40.341 -13.928  -1.523  1.00  0.00    -0.051 Br
HETATM   27  C   UNL     1      39.804 -14.805   1.135  1.00  0.00     0.019 A 
HETATM   28  C   UNL     1      39.806 -14.696   2.526  1.00  0.00     0.011 A 
ENDBRANCH   9  22
BRANCH   7  29
HETATM   29  C   UNL     1      38.957  -8.778   5.164  1.00  0.00     0.085 C 
BRANCH  29  30
HETATM   30  C   UNL     1      39.052  -8.212   3.748  1.00  0.00     0.034 C 
BRANCH  30  31
HETATM   31  C   UNL     1      37.750  -8.339   2.963  1.00  0.00     0.164 C 
BRANCH  31  32
HETATM   32  O   UNL     1      37.546  -9.700   2.598  1.00  0.00    -0.401 OA
HETATM   33  H   UNL     1      36.943  -9.712   1.836  1.00  0.00     0.209 HD
ENDBRANCH  31  32
ENDBRANCH  30  31
ENDBRANCH  29  30
ENDBRANCH   7  29
TORSDOF 7
ENDMDL
MODEL 5
REMARK VINA RESULT:      -7.6      3.875      6.861
REMARK  7 active torsions:
REMARK  status: ('A' for Active; 'I' for Inactive)
REMARK    1  A    between atoms: C_7  and  C_8 
REMARK    2  A    between atoms: C_8  and  C_9 
REMARK    3  A    between atoms: C_9  and  C_10 
REMARK    4  A    between atoms: C_10  and  O_11 
REMARK    5  A    between atoms: C_13  and  C_14 
REMARK    6  A    between atoms: C_21  and  C_22 
REMARK       I    between atoms: C_22  and  N_23 
REMARK    7  A    between atoms: N_23  and  C_24 
ROOT
HETATM    1  C   UNL     1      39.812 -14.792  -0.638  1.00  0.00     0.070 C 
HETATM    2  C   UNL     1      40.428 -13.518  -0.115  1.00  0.00     0.037 A 
HETATM    3  N   UNL     1      40.255 -12.393  -0.915  1.00  0.00    -0.192 N 
HETATM    4  C   UNL     1      40.792 -11.192  -0.633  1.00  0.00     0.726 A 
HETATM    5  N   UNL     1      41.504 -11.035   0.523  1.00  0.00    -0.083 N 
HETATM    6  N   UNL     1      42.084  -9.817   0.580  1.00  0.00    -0.140 NA
HETATM    7  C   UNL     1      41.573  -9.247  -0.522  1.00  0.00     0.166 A 
HETATM    8  N   UNL     1      40.793 -10.068  -1.301  1.00  0.00    -0.046 NA
HETATM    9  C   UNL     1      41.716 -12.097   1.513  1.00  0.00     0.202 A 
HETATM   10  C   UNL     1      41.131 -13.423   1.042  1.00  0.00     0.062 A 
HETATM   11  H   UNL     1      39.727 -12.502  -1.777  1.00  0.00     0.184 HD
ENDROOT
BRANCH  10  12
HETATM   12  C   UNL     1      41.260 -14.604   1.940  1.00  0.00     0.256 C 
HETATM   13  N   UNL     1      42.543 -15.104   2.017  1.00  0.00    -0.323 N 
HETATM   14  H   UNL     1      43.275 -14.635   1.502  1.00  0.00     0.169 HD
HETATM   15  O   UNL     1      40.268 -15.026   2.521  1.00  0.00    -0.267 OA
BRANCH  13  16
HETATM   16  C   UNL     1      42.968 -16.241   2.741  1.00  0.00     0.035 A 
HETATM   17  C   UNL     1      43.108 -17.515   2.185  1.00  0.00     0.029 A 
HETATM   18  C   UNL     1      43.557 -18.584   2.966  1.00  0.00     0.002 A 
HETATM   19  C   UNL     1      43.860 -18.393   4.312  1.00  0.00     0.000 A 
HETATM   20  C   UNL     1      43.720 -17.129   4.878  1.00  0.00     0.002 A 
HETATM   21  C   UNL     1      43.282 -16.058   4.094  1.00  0.00     0.029 A 
ENDBRANCH  13  16
ENDBRANCH  10  12
BRANCH   9  22
HETATM   22  C   UNL     1      41.214 -11.631   2.878  1.00  0.00    -0.028 A 
HETATM   23  C   UNL     1      42.060 -11.568   3.998  1.00  0.00     0.011 A 
HETATM   24  C   UNL     1      41.565 -11.170   5.243  1.00  0.00     0.019 A 
HETATM   25  C   UNL     1      40.218 -10.846   5.382  1.00  0.00     0.011 A 
HETATM   26 BR   UNL     1      39.546 -10.320   7.069  1.00  0.00    -0.051 Br
HETATM   27  C   UNL     1      39.360 -10.915   4.288  1.00  0.00     0.019 A 
HETATM   28  C   UNL     1      39.855 -11.305   3.043  1.00  0.00     0.011 A 
ENDBRANCH   9  22
BRANCH   7  29
HETATM   29  C   UNL     1      41.822  -7.826  -0.868  1.00  0.00     0.085 C 
BRANCH  29  30
HETATM   30  C   UNL     1      43.191  -7.597  -1.506  1.00  0.00     0.034 C 
BRANCH  30  31
HETATM   31  C   UNL     1      43.358  -6.195  -2.081  1.00  0.00     0.164 C 
BRANCH  31  32
HETATM   32  O   UNL     1      44.702  -5.763  -1.898  1.00  0.00    -0.401 OA
HETATM   33  H   UNL     1      44.959  -5.981  -0.987  1.00  0.00     0.209 HD
ENDBRANCH  31  32
ENDBRANCH  30  31
ENDBRANCH  29  30
ENDBRANCH   7  29
TORSDOF 7
ENDMDL
MODEL 6
REMARK VINA RESULT:      -7.5      3.583      6.133
REMARK  7 active torsions:
REMARK  status: ('A' for Active; 'I' for Inactive)
REMARK    1  A    between atoms: C_7  and  C_8 
REMARK    2  A    between atoms: C_8  and  C_9 
REMARK    3  A    between atoms: C_9  and  C_10 
REMARK    4  A    between atoms: C_10  and  O_11 
REMARK    5  A    between atoms: C_13  and  C_14 
REMARK    6  A    between atoms: C_21  and  C_22 
REMARK       I    between atoms: C_22  and  N_23 
REMARK    7  A    between atoms: N_23  and  C_24 
ROOT
HETATM    1  C   UNL     1      40.060 -12.909   6.017  1.00  0.00     0.070 C 
HETATM    2  C   UNL     1      40.820 -13.591   4.907  1.00  0.00     0.037 A 
HETATM    3  N   UNL     1      41.213 -14.900   5.163  1.00  0.00    -0.192 N 
HETATM    4  C   UNL     1      41.953 -15.634   4.311  1.00  0.00     0.726 A 
HETATM    5  N   UNL     1      42.300 -15.101   3.102  1.00  0.00    -0.083 N 
HETATM    6  N   UNL     1      43.151 -15.910   2.435  1.00  0.00    -0.140 NA
HETATM    7  C   UNL     1      43.172 -16.974   3.253  1.00  0.00     0.166 A 
HETATM    8  N   UNL     1      42.465 -16.831   4.423  1.00  0.00    -0.046 NA
HETATM    9  C   UNL     1      41.903 -13.765   2.643  1.00  0.00     0.202 A 
HETATM   10  C   UNL     1      41.142 -13.007   3.725  1.00  0.00     0.062 A 
HETATM   11  H   UNL     1      40.959 -15.304   6.061  1.00  0.00     0.184 HD
ENDROOT
BRANCH  10  12
HETATM   12  C   UNL     1      40.663 -11.632   3.412  1.00  0.00     0.256 C 
HETATM   13  N   UNL     1      39.307 -11.558   3.176  1.00  0.00    -0.323 N 
HETATM   14  H   UNL     1      38.757 -12.401   3.257  1.00  0.00     0.169 HD
HETATM   15  O   UNL     1      41.468 -10.709   3.390  1.00  0.00    -0.267 OA
BRANCH  13  16
HETATM   16  C   UNL     1      38.573 -10.408   2.807  1.00  0.00     0.035 A 
HETATM   17  C   UNL     1      38.313  -9.337   3.664  1.00  0.00     0.029 A 
HETATM   18  C   UNL     1      37.598  -8.224   3.212  1.00  0.00     0.002 A 
HETATM   19  C   UNL     1      37.126  -8.176   1.903  1.00  0.00     0.000 A 
HETATM   20  C   UNL     1      37.374  -9.239   1.041  1.00  0.00     0.002 A 
HETATM   21  C   UNL     1      38.099 -10.347   1.489  1.00  0.00     0.029 A 
ENDBRANCH  13  16
ENDBRANCH  10  12
BRANCH   9  22
HETATM   22  C   UNL     1      41.167 -13.880   1.311  1.00  0.00    -0.028 A 
HETATM   23  C   UNL     1      41.216 -12.862   0.344  1.00  0.00     0.011 A 
HETATM   24  C   UNL     1      40.504 -12.980  -0.853  1.00  0.00     0.019 A 
HETATM   25  C   UNL     1      39.724 -14.110  -1.087  1.00  0.00     0.011 A 
HETATM   26 BR   UNL     1      38.750 -14.264  -2.700  1.00  0.00    -0.051 Br
HETATM   27  C   UNL     1      39.650 -15.124  -0.136  1.00  0.00     0.019 A 
HETATM   28  C   UNL     1      40.367 -15.010   1.056  1.00  0.00     0.011 A 
ENDBRANCH   9  22
BRANCH   7  29
HETATM   29  C   UNL     1      43.897 -18.223   2.912  1.00  0.00     0.085 C 
BRANCH  29  30
HETATM   30  C   UNL     1      43.018 -19.251   2.203  1.00  0.00     0.034 C 
BRANCH  30  31
HETATM   31  C   UNL     1      43.761 -20.536   1.851  1.00  0.00     0.164 C 
BRANCH  31  32
HETATM   32  O   UNL     1      43.948 -21.315   3.029  1.00  0.00    -0.401 OA
HETATM   33  H   UNL     1      44.050 -22.241   2.754  1.00  0.00     0.209 HD
ENDBRANCH  31  32
ENDBRANCH  30  31
ENDBRANCH  29  30
ENDBRANCH   7  29
TORSDOF 7
ENDMDL
MODEL 7
REMARK VINA RESULT:      -7.4      3.173      8.714
REMARK  7 active torsions:
REMARK  status: ('A' for Active; 'I' for Inactive)
REMARK    1  A    between atoms: C_7  and  C_8 
REMARK    2  A    between atoms: C_8  and  C_9 
REMARK    3  A    between atoms: C_9  and  C_10 
REMARK    4  A    between atoms: C_10  and  O_11 
REMARK    5  A    between atoms: C_13  and  C_14 
REMARK    6  A    between atoms: C_21  and  C_22 
REMARK       I    between atoms: C_22  and  N_23 
REMARK    7  A    between atoms: N_23  and  C_24 
ROOT
HETATM    1  C   UNL     1      43.185 -14.885   3.467  1.00  0.00     0.070 C 
HETATM    2  C   UNL     1      42.342 -13.949   2.637  1.00  0.00     0.037 A 
HETATM    3  N   UNL     1      41.461 -14.559   1.750  1.00  0.00    -0.192 N 
HETATM    4  C   UNL     1      40.683 -13.876   0.890  1.00  0.00     0.726 A 
HETATM    5  N   UNL     1      40.704 -12.511   0.911  1.00  0.00    -0.083 N 
HETATM    6  N   UNL     1      39.976 -11.992  -0.101  1.00  0.00    -0.140 NA
HETATM    7  C   UNL     1      39.441 -13.109  -0.618  1.00  0.00     0.166 A 
HETATM    8  N   UNL     1      39.869 -14.285  -0.048  1.00  0.00    -0.046 NA
HETATM    9  C   UNL     1      41.517 -11.712   1.836  1.00  0.00     0.202 A 
HETATM   10  C   UNL     1      42.410 -12.595   2.698  1.00  0.00     0.062 A 
HETATM   11  H   UNL     1      41.440 -15.575   1.727  1.00  0.00     0.184 HD
ENDROOT
BRANCH  10  12
HETATM   12  C   UNL     1      43.297 -11.933   3.696  1.00  0.00     0.256 C 
HETATM   13  N   UNL     1      42.782 -11.925   4.975  1.00  0.00    -0.323 N 
HETATM   14  H   UNL     1      41.892 -12.374   5.139  1.00  0.00     0.169 HD
HETATM   15  O   UNL     1      44.369 -11.468   3.329  1.00  0.00    -0.267 OA
BRANCH  13  16
HETATM   16  C   UNL     1      43.361 -11.330   6.118  1.00  0.00     0.035 A 
HETATM   17  C   UNL     1      42.749 -10.327   6.873  1.00  0.00     0.029 A 
HETATM   18  C   UNL     1      43.382  -9.807   8.007  1.00  0.00     0.002 A 
HETATM   19  C   UNL     1      44.636 -10.276   8.390  1.00  0.00     0.000 A 
HETATM   20  C   UNL     1      45.257 -11.272   7.642  1.00  0.00     0.002 A 
HETATM   21  C   UNL     1      44.620 -11.800   6.516  1.00  0.00     0.029 A 
ENDBRANCH  13  16
ENDBRANCH  10  12
BRANCH   9  22
HETATM   22  C   UNL     1      40.614 -10.763   2.620  1.00  0.00    -0.028 A 
HETATM   23  C   UNL     1      39.558 -11.234   3.419  1.00  0.00     0.011 A 
HETATM   24  C   UNL     1      38.726 -10.340   4.099  1.00  0.00     0.019 A 
HETATM   25  C   UNL     1      38.932  -8.969   3.975  1.00  0.00     0.011 A 
HETATM   26 BR   UNL     1      37.799  -7.759   4.884  1.00  0.00    -0.051 Br
HETATM   27  C   UNL     1      39.964  -8.481   3.177  1.00  0.00     0.019 A 
HETATM   28  C   UNL     1      40.799  -9.373   2.503  1.00  0.00     0.011 A 
ENDBRANCH   9  22
BRANCH   7  29
HETATM   29  C   UNL     1      38.447 -13.077  -1.719  1.00  0.00     0.085 C 
BRANCH  29  30
HETATM   30  C   UNL     1      38.971 -13.689  -3.016  1.00  0.00     0.034 C 
BRANCH  30  31
HETATM   31  C   UNL     1      38.207 -14.938  -3.442  1.00  0.00     0.164 C 
BRANCH  31  32
HETATM   32  O   UNL     1      38.404 -15.967  -2.477  1.00  0.00    -0.401 OA
HETATM   33  H   UNL     1      37.528 -16.236  -2.154  1.00  0.00     0.209 HD
ENDBRANCH  31  32
ENDBRANCH  30  31
ENDBRANCH  29  30
ENDBRANCH   7  29
TORSDOF 7
ENDMDL
MODEL 8
REMARK VINA RESULT:      -7.2      3.538      6.290
REMARK  7 active torsions:
REMARK  status: ('A' for Active; 'I' for Inactive)
REMARK    1  A    between atoms: C_7  and  C_8 
REMARK    2  A    between atoms: C_8  and  C_9 
REMARK    3  A    between atoms: C_9  and  C_10 
REMARK    4  A    between atoms: C_10  and  O_11 
REMARK    5  A    between atoms: C_13  and  C_14 
REMARK    6  A    between atoms: C_21  and  C_22 
REMARK       I    between atoms: C_22  and  N_23 
REMARK    7  A    between atoms: N_23  and  C_24 
ROOT
HETATM    1  C   UNL     1      45.033 -11.670   5.779  1.00  0.00     0.070 C 
HETATM    2  C   UNL     1      43.550 -11.458   5.963  1.00  0.00     0.037 A 
HETATM    3  N   UNL     1      43.191 -10.378   6.761  1.00  0.00    -0.192 N 
HETATM    4  C   UNL     1      41.918 -10.082   7.082  1.00  0.00     0.726 A 
HETATM    5  N   UNL     1      40.907 -10.840   6.561  1.00  0.00    -0.083 N 
HETATM    6  N   UNL     1      39.713 -10.496   7.091  1.00  0.00    -0.140 NA
HETATM    7  C   UNL     1      40.068  -9.436   7.833  1.00  0.00     0.166 A 
HETATM    8  N   UNL     1      41.416  -9.166   7.868  1.00  0.00    -0.046 NA
HETATM    9  C   UNL     1      41.107 -11.966   5.642  1.00  0.00     0.202 A 
HETATM   10  C   UNL     1      42.589 -12.249   5.422  1.00  0.00     0.062 A 
HETATM   11  H   UNL     1      43.937  -9.809   7.153  1.00  0.00     0.184 HD
ENDROOT
BRANCH  10  12
HETATM   12  C   UNL     1      42.961 -13.364   4.507  1.00  0.00     0.256 C 
HETATM   13  N   UNL     1      42.791 -14.615   5.062  1.00  0.00    -0.323 N 
HETATM   14  H   UNL     1      42.417 -14.681   5.997  1.00  0.00     0.169 HD
HETATM   15  O   UNL     1      43.367 -13.104   3.382  1.00  0.00    -0.267 OA
BRANCH  13  16
HETATM   16  C   UNL     1      43.105 -15.856   4.463  1.00  0.00     0.035 A 
HETATM   17  C   UNL     1      42.635 -16.262   3.212  1.00  0.00     0.029 A 
HETATM   18  C   UNL     1      43.013 -17.499   2.680  1.00  0.00     0.002 A 
HETATM   19  C   UNL     1      43.853 -18.346   3.397  1.00  0.00     0.000 A 
HETATM   20  C   UNL     1      44.324 -17.954   4.647  1.00  0.00     0.002 A 
HETATM   21  C   UNL     1      43.956 -16.713   5.174  1.00  0.00     0.029 A 
ENDBRANCH  13  16
ENDBRANCH  10  12
BRANCH   9  22
HETATM   22  C   UNL     1      40.310 -11.729   4.362  1.00  0.00    -0.028 A 
HETATM   23  C   UNL     1      39.449 -12.705   3.831  1.00  0.00     0.011 A 
HETATM   24  C   UNL     1      38.758 -12.473   2.639  1.00  0.00     0.019 A 
HETATM   25  C   UNL     1      38.931 -11.270   1.959  1.00  0.00     0.011 A 
HETATM   26 BR   UNL     1      38.006 -10.962   0.340  1.00  0.00    -0.051 Br
HETATM   27  C   UNL     1      39.790 -10.295   2.460  1.00  0.00     0.019 A 
HETATM   28  C   UNL     1      40.475 -10.523   3.654  1.00  0.00     0.011 A 
ENDBRANCH   9  22
BRANCH   7  29
HETATM   29  C   UNL     1      39.074  -8.605   8.556  1.00  0.00     0.085 C 
BRANCH  29  30
HETATM   30  C   UNL     1      39.366  -8.488  10.051  1.00  0.00     0.034 C 
BRANCH  30  31
HETATM   31  C   UNL     1      39.544  -9.840  10.735  1.00  0.00     0.164 C 
BRANCH  31  32
HETATM   32  O   UNL     1      40.930 -10.080  10.959  1.00  0.00    -0.401 OA
HETATM   33  H   UNL     1      41.027 -10.408  11.868  1.00  0.00     0.209 HD
ENDBRANCH  31  32
ENDBRANCH  30  31
ENDBRANCH  29  30
ENDBRANCH   7  29
TORSDOF 7
ENDMDL
MODEL 9
REMARK VINA RESULT:      -7.2      3.643      6.341
REMARK  7 active torsions:
REMARK  status: ('A' for Active; 'I' for Inactive)
REMARK    1  A    between atoms: C_7  and  C_8 
REMARK    2  A    between atoms: C_8  and  C_9 
REMARK    3  A    between atoms: C_9  and  C_10 
REMARK    4  A    between atoms: C_10  and  O_11 
REMARK    5  A    between atoms: C_13  and  C_14 
REMARK    6  A    between atoms: C_21  and  C_22 
REMARK       I    between atoms: C_22  and  N_23 
REMARK    7  A    between atoms: N_23  and  C_24 
ROOT
HETATM    1  C   UNL     1      39.496 -12.793   6.093  1.00  0.00     0.070 C 
HETATM    2  C   UNL     1      40.382 -13.469   5.075  1.00  0.00     0.037 A 
HETATM    3  N   UNL     1      40.835 -14.737   5.421  1.00  0.00    -0.192 N 
HETATM    4  C   UNL     1      41.684 -15.455   4.662  1.00  0.00     0.726 A 
HETATM    5  N   UNL     1      42.090 -14.951   3.459  1.00  0.00    -0.083 N 
HETATM    6  N   UNL     1      43.040 -15.729   2.896  1.00  0.00    -0.140 NA
HETATM    7  C   UNL     1      43.064 -16.754   3.762  1.00  0.00     0.166 A 
HETATM    8  N   UNL     1      42.260 -16.610   4.868  1.00  0.00    -0.046 NA
HETATM    9  C   UNL     1      41.646 -13.664   2.910  1.00  0.00     0.202 A 
HETATM   10  C   UNL     1      40.757 -12.915   3.895  1.00  0.00     0.062 A 
HETATM   11  H   UNL     1      40.538 -15.119   6.315  1.00  0.00     0.184 HD
ENDROOT
BRANCH  10  12
HETATM   12  C   UNL     1      40.218 -11.588   3.483  1.00  0.00     0.256 C 
HETATM   13  N   UNL     1      41.166 -10.586   3.468  1.00  0.00    -0.323 N 
HETATM   14  H   UNL     1      42.120 -10.822   3.700  1.00  0.00     0.169 HD
HETATM   15  O   UNL     1      39.032 -11.486   3.198  1.00  0.00    -0.267 OA
BRANCH  13  16
HETATM   16  C   UNL     1      40.951  -9.222   3.172  1.00  0.00     0.035 A 
HETATM   17  C   UNL     1      40.583  -8.742   1.913  1.00  0.00     0.029 A 
HETATM   18  C   UNL     1      40.366  -7.376   1.710  1.00  0.00     0.002 A 
HETATM   19  C   UNL     1      40.524  -6.475   2.760  1.00  0.00     0.000 A 
HETATM   20  C   UNL     1      40.895  -6.940   4.018  1.00  0.00     0.002 A 
HETATM   21  C   UNL     1      41.101  -8.308   4.224  1.00  0.00     0.029 A 
ENDBRANCH  13  16
ENDBRANCH  10  12
BRANCH   9  22
HETATM   22  C   UNL     1      41.024 -13.884   1.533  1.00  0.00    -0.028 A 
HETATM   23  C   UNL     1      41.147 -12.936   0.502  1.00  0.00     0.011 A 
HETATM   24  C   UNL     1      40.538 -13.149  -0.737  1.00  0.00     0.019 A 
HETATM   25  C   UNL     1      39.789 -14.303  -0.953  1.00  0.00     0.011 A 
HETATM   26 BR   UNL     1      38.954 -14.584  -2.626  1.00  0.00    -0.051 Br
HETATM   27  C   UNL     1      39.643 -15.248   0.059  1.00  0.00     0.019 A 
HETATM   28  C   UNL     1      40.257 -15.039   1.294  1.00  0.00     0.011 A 
ENDBRANCH   9  22
BRANCH   7  29
HETATM   29  C   UNL     1      43.891 -17.965   3.535  1.00  0.00     0.085 C 
BRANCH  29  30
HETATM   30  C   UNL     1      43.372 -18.839   2.394  1.00  0.00     0.034 C 
BRANCH  30  31
HETATM   31  C   UNL     1      43.531 -20.332   2.663  1.00  0.00     0.164 C 
BRANCH  31  32
HETATM   32  O   UNL     1      43.754 -21.015   1.433  1.00  0.00    -0.401 OA
HETATM   33  H   UNL     1      42.931 -21.476   1.201  1.00  0.00     0.209 HD
ENDBRANCH  31  32
ENDBRANCH  30  31
ENDBRANCH  29  30
ENDBRANCH   7  29
TORSDOF 7
ENDMDL
MODEL 10
REMARK VINA RESULT:      -7.1     16.627     19.297
REMARK  7 active torsions:
REMARK  status: ('A' for Active; 'I' for Inactive)
REMARK    1  A    between atoms: C_7  and  C_8 
REMARK    2  A    between atoms: C_8  and  C_9 
REMARK    3  A    between atoms: C_9  and  C_10 
REMARK    4  A    between atoms: C_10  and  O_11 
REMARK    5  A    between atoms: C_13  and  C_14 
REMARK    6  A    between atoms: C_21  and  C_22 
REMARK       I    between atoms: C_22  and  N_23 
REMARK    7  A    between atoms: N_23  and  C_24 
ROOT
HETATM    1  C   UNL     1      50.304 -30.437   1.291  1.00  0.00     0.070 C 
HETATM    2  C   UNL     1      48.966 -29.883   0.868  1.00  0.00     0.037 A 
HETATM    3  N   UNL     1      48.793 -29.707  -0.500  1.00  0.00    -0.192 N 
HETATM    4  C   UNL     1      47.689 -29.165  -1.046  1.00  0.00     0.726 A 
HETATM    5  N   UNL     1      46.649 -28.813  -0.233  1.00  0.00    -0.083 N 
HETATM    6  N   UNL     1      45.686 -28.162  -0.922  1.00  0.00    -0.140 NA
HETATM    7  C   UNL     1      46.161 -28.272  -2.172  1.00  0.00     0.166 A 
HETATM    8  N   UNL     1      47.397 -28.862  -2.284  1.00  0.00    -0.046 NA
HETATM    9  C   UNL     1      46.637 -29.002   1.222  1.00  0.00     0.202 A 
HETATM   10  C   UNL     1      47.969 -29.545   1.725  1.00  0.00     0.062 A 
HETATM   11  H   UNL     1      49.563 -29.967  -1.112  1.00  0.00     0.184 HD
ENDROOT
BRANCH  10  12
HETATM   12  C   UNL     1      48.116 -29.798   3.185  1.00  0.00     0.256 C 
HETATM   13  N   UNL     1      47.832 -31.096   3.554  1.00  0.00    -0.323 N 
HETATM   14  H   UNL     1      47.583 -31.758   2.834  1.00  0.00     0.169 HD
HETATM   15  O   UNL     1      48.465 -28.881   3.919  1.00  0.00    -0.267 OA
BRANCH  13  16
HETATM   16  C   UNL     1      47.833 -31.623   4.865  1.00  0.00     0.035 A 
HETATM   17  C   UNL     1      48.918 -32.287   5.441  1.00  0.00     0.029 A 
HETATM   18  C   UNL     1      48.845 -32.759   6.756  1.00  0.00     0.002 A 
HETATM   19  C   UNL     1      47.684 -32.580   7.503  1.00  0.00     0.000 A 
HETATM   20  C   UNL     1      46.594 -31.923   6.939  1.00  0.00     0.002 A 
HETATM   21  C   UNL     1      46.671 -31.442   5.628  1.00  0.00     0.029 A 
ENDBRANCH  13  16
ENDBRANCH  10  12
BRANCH   9  22
HETATM   22  C   UNL     1      45.421 -29.835   1.619  1.00  0.00    -0.028 A 
HETATM   23  C   UNL     1      45.205 -31.126   1.105  1.00  0.00     0.011 A 
HETATM   24  C   UNL     1      44.064 -31.852   1.460  1.00  0.00     0.019 A 
HETATM   25  C   UNL     1      43.123 -31.290   2.318  1.00  0.00     0.011 A 
HETATM   26 BR   UNL     1      41.574 -32.267   2.787  1.00  0.00    -0.051 Br
HETATM   27  C   UNL     1      43.310 -30.007   2.827  1.00  0.00     0.019 A 
HETATM   28  C   UNL     1      44.452 -29.284   2.479  1.00  0.00     0.011 A 
ENDBRANCH   9  22
BRANCH   7  29
HETATM   29  C   UNL     1      45.398 -27.799  -3.354  1.00  0.00     0.085 C 
BRANCH  29  30
HETATM   30  C   UNL     1      44.326 -28.787  -3.809  1.00  0.00     0.034 C 
BRANCH  30  31
HETATM   31  C   UNL     1      44.889 -29.957  -4.608  1.00  0.00     0.164 C 
BRANCH  31  32
HETATM   32  O   UNL     1      44.324 -29.955  -5.916  1.00  0.00    -0.401 OA
HETATM   33  H   UNL     1      44.183 -30.880  -6.176  1.00  0.00     0.209 HD
ENDBRANCH  31  32
ENDBRANCH  30  31
ENDBRANCH  29  30
ENDBRANCH   7  29
TORSDOF 7
ENDMDL
