MODEL 1
REMARK VINA RESULT:      -8.3      0.000      0.000
REMARK  3 active torsions:
REMARK  status: ('A' for Active; 'I' for Inactive)
REMARK    1  A    between atoms: C_9  and  C_10 
REMARK    2  A    between atoms: C_16  and  C_17 
REMARK       I    between atoms: C_17  and  N_18 
REMARK    3  A    between atoms: N_18  and  C_19 
ROOT
HETATM    1  C   UNL     1      42.949 -15.628   8.023  1.00  0.00     0.070 C 
HETATM    2  C   UNL     1      43.006 -14.592   6.927  1.00  0.00     0.037 C 
HETATM    3  N   UNL     1      43.355 -13.306   7.334  1.00  0.00    -0.191 N 
HETATM    4  C   UNL     1      43.701 -12.334   6.466  1.00  0.00     0.735 A 
HETATM    5  N   UNL     1      43.551 -12.553   5.126  1.00  0.00    -0.092 N 
HETATM    6  N   UNL     1      44.007 -11.502   4.428  1.00  0.00     0.012 NA
HETATM    7  N   UNL     1      44.398 -10.633   5.356  1.00  0.00     0.033 NA
HETATM    8  N   UNL     1      44.213 -11.139   6.629  1.00  0.00     0.030 NA
HETATM    9  C   UNL     1      43.001 -13.772   4.540  1.00  0.00     0.199 C 
HETATM   10  C   UNL     1      42.816 -14.848   5.608  1.00  0.00     0.062 C 
HETATM   11  H   UNL     1      43.576 -13.170   8.320  1.00  0.00     0.184 HD
ENDROOT
BRANCH  10  12
HETATM   12  C   UNL     1      42.539 -16.200   5.056  1.00  0.00     0.256 C 
HETATM   13  N   UNL     1      43.670 -16.901   4.706  1.00  0.00    -0.322 N 
HETATM   14  H   UNL     1      44.567 -16.471   4.895  1.00  0.00     0.169 HD
HETATM   15  O   UNL     1      41.381 -16.592   5.013  1.00  0.00    -0.267 OA
BRANCH  13  16
HETATM   16  C   UNL     1      43.708 -18.173   4.093  1.00  0.00     0.052 A 
HETATM   17  C   UNL     1      44.086 -19.357   4.723  1.00  0.00     0.145 A 
HETATM   18  N   UNL     1      44.090 -20.573   4.119  1.00  0.00    -0.271 NA
HETATM   19  C   UNL     1      43.698 -20.617   2.830  1.00  0.00     0.116 A 
HETATM   20  C   UNL     1      43.304 -19.501   2.114  1.00  0.00     0.021 A 
HETATM   21  C   UNL     1      43.312 -18.264   2.757  1.00  0.00     0.032 A 
ENDBRANCH  13  16
ENDBRANCH  10  12
BRANCH   9  22
HETATM   22  C   UNL     1      41.702 -13.483   3.806  1.00  0.00    -0.011 A 
HETATM   23  C   UNL     1      41.573 -13.638   2.426  1.00  0.00     0.125 A 
HETATM   24  N   UNL     1      40.453 -13.342   1.730  1.00  0.00    -0.272 NA
HETATM   25  C   UNL     1      39.397 -12.885   2.435  1.00  0.00     0.116 A 
HETATM   26  C   UNL     1      39.418 -12.687   3.805  1.00  0.00     0.020 A 
HETATM   27  C   UNL     1      40.590 -12.984   4.496  1.00  0.00     0.012 A 
ENDBRANCH   9  22
TORSDOF 3
ENDMDL
MODEL 2
REMARK VINA RESULT:      -7.9      1.946      4.368
REMARK  3 active torsions:
REMARK  status: ('A' for Active; 'I' for Inactive)
REMARK    1  A    between atoms: C_9  and  C_10 
REMARK    2  A    between atoms: C_16  and  C_17 
REMARK       I    between atoms: C_17  and  N_18 
REMARK    3  A    between atoms: N_18  and  C_19 
ROOT
HETATM    1  C   UNL     1      39.906 -15.443   0.792  1.00  0.00     0.070 C 
HETATM    2  C   UNL     1      39.939 -14.301   1.778  1.00  0.00     0.037 C 
HETATM    3  N   UNL     1      39.336 -13.121   1.349  1.00  0.00    -0.191 N 
HETATM    4  C   UNL     1      39.050 -12.101   2.185  1.00  0.00     0.735 A 
HETATM    5  N   UNL     1      39.509 -12.145   3.471  1.00  0.00    -0.092 N 
HETATM    6  N   UNL     1      39.069 -11.080   4.159  1.00  0.00     0.012 NA
HETATM    7  N   UNL     1      38.374 -10.377   3.271  1.00  0.00     0.033 NA
HETATM    8  N   UNL     1      38.353 -11.001   2.038  1.00  0.00     0.030 NA
HETATM    9  C   UNL     1      40.335 -13.215   4.021  1.00  0.00     0.199 C 
HETATM   10  C   UNL     1      40.439 -14.379   3.037  1.00  0.00     0.062 C 
HETATM   11  H   UNL     1      38.895 -13.126   0.431  1.00  0.00     0.184 HD
ENDROOT
BRANCH  10  12
HETATM   12  C   UNL     1      41.011 -15.616   3.628  1.00  0.00     0.256 C 
HETATM   13  N   UNL     1      42.250 -15.950   3.132  1.00  0.00    -0.322 N 
HETATM   14  H   UNL     1      42.675 -15.318   2.463  1.00  0.00     0.169 HD
HETATM   15  O   UNL     1      40.391 -16.185   4.516  1.00  0.00    -0.267 OA
BRANCH  13  16
HETATM   16  C   UNL     1      42.996 -17.105   3.454  1.00  0.00     0.052 A 
HETATM   17  C   UNL     1      43.633 -17.335   4.671  1.00  0.00     0.145 A 
HETATM   18  N   UNL     1      44.324 -18.465   4.968  1.00  0.00    -0.271 NA
HETATM   19  C   UNL     1      44.384 -19.414   4.012  1.00  0.00     0.116 A 
HETATM   20  C   UNL     1      43.787 -19.284   2.770  1.00  0.00     0.021 A 
HETATM   21  C   UNL     1      43.086 -18.112   2.491  1.00  0.00     0.032 A 
ENDBRANCH  13  16
ENDBRANCH  10  12
BRANCH   9  22
HETATM   22  C   UNL     1      41.707 -12.693   4.416  1.00  0.00    -0.011 A 
HETATM   23  C   UNL     1      42.135 -12.646   5.743  1.00  0.00     0.125 A 
HETATM   24  N   UNL     1      43.325 -12.141   6.139  1.00  0.00    -0.272 NA
HETATM   25  C   UNL     1      44.144 -11.675   5.173  1.00  0.00     0.116 A 
HETATM   26  C   UNL     1      43.817 -11.667   3.828  1.00  0.00     0.020 A 
HETATM   27  C   UNL     1      42.578 -12.178   3.448  1.00  0.00     0.012 A 
ENDBRANCH   9  22
TORSDOF 3
ENDMDL
MODEL 3
REMARK VINA RESULT:      -7.5      2.930      6.115
REMARK  3 active torsions:
REMARK  status: ('A' for Active; 'I' for Inactive)
REMARK    1  A    between atoms: C_9  and  C_10 
REMARK    2  A    between atoms: C_16  and  C_17 
REMARK       I    between atoms: C_17  and  N_18 
REMARK    3  A    between atoms: N_18  and  C_19 
ROOT
HETATM    1  C   UNL     1      41.628 -10.104   1.283  1.00  0.00     0.070 C 
HETATM    2  C   UNL     1      41.945 -11.179   2.295  1.00  0.00     0.037 C 
HETATM    3  N   UNL     1      42.971 -10.879   3.187  1.00  0.00    -0.191 N 
HETATM    4  C   UNL     1      43.206 -11.604   4.300  1.00  0.00     0.735 A 
HETATM    5  N   UNL     1      42.527 -12.774   4.489  1.00  0.00    -0.092 N 
HETATM    6  N   UNL     1      42.847 -13.312   5.675  1.00  0.00     0.012 NA
HETATM    7  N   UNL     1      43.751 -12.480   6.183  1.00  0.00     0.033 NA
HETATM    8  N   UNL     1      43.983 -11.412   5.337  1.00  0.00     0.030 NA
HETATM    9  C   UNL     1      41.566 -13.338   3.545  1.00  0.00     0.199 C 
HETATM   10  C   UNL     1      41.264 -12.345   2.424  1.00  0.00     0.062 C 
HETATM   11  H   UNL     1      43.402  -9.958   3.115  1.00  0.00     0.184 HD
ENDROOT
BRANCH  10  12
HETATM   12  C   UNL     1      40.091 -12.719   1.592  1.00  0.00     0.256 C 
HETATM   13  N   UNL     1      40.392 -12.930   0.266  1.00  0.00    -0.322 N 
HETATM   14  H   UNL     1      41.364 -12.863  -0.012  1.00  0.00     0.169 HD
HETATM   15  O   UNL     1      39.006 -12.864   2.137  1.00  0.00    -0.267 OA
BRANCH  13  16
HETATM   16  C   UNL     1      39.472 -13.223  -0.763  1.00  0.00     0.052 A 
HETATM   17  C   UNL     1      38.430 -12.392  -1.171  1.00  0.00     0.145 A 
HETATM   18  N   UNL     1      37.573 -12.686  -2.182  1.00  0.00    -0.271 NA
HETATM   19  C   UNL     1      37.758 -13.859  -2.820  1.00  0.00     0.116 A 
HETATM   20  C   UNL     1      38.760 -14.755  -2.493  1.00  0.00     0.021 A 
HETATM   21  C   UNL     1      39.625 -14.430  -1.449  1.00  0.00     0.032 A 
ENDBRANCH  13  16
ENDBRANCH  10  12
BRANCH   9  22
HETATM   22  C   UNL     1      42.061 -14.666   2.997  1.00  0.00    -0.011 A 
HETATM   23  C   UNL     1      41.571 -15.891   3.452  1.00  0.00     0.125 A 
HETATM   24  N   UNL     1      42.022 -17.093   3.028  1.00  0.00    -0.272 NA
HETATM   25  C   UNL     1      42.995 -17.087   2.093  1.00  0.00     0.116 A 
HETATM   26  C   UNL     1      43.556 -15.931   1.578  1.00  0.00     0.020 A 
HETATM   27  C   UNL     1      43.086 -14.706   2.044  1.00  0.00     0.012 A 
ENDBRANCH   9  22
TORSDOF 3
ENDMDL
MODEL 4
REMARK VINA RESULT:      -7.3      2.245      5.809
REMARK  3 active torsions:
REMARK  status: ('A' for Active; 'I' for Inactive)
REMARK    1  A    between atoms: C_9  and  C_10 
REMARK    2  A    between atoms: C_16  and  C_17 
REMARK       I    between atoms: C_17  and  N_18 
REMARK    3  A    between atoms: N_18  and  C_19 
ROOT
HETATM    1  C   UNL     1      43.644 -11.963   3.673  1.00  0.00     0.070 C 
HETATM    2  C   UNL     1      43.240 -13.288   4.272  1.00  0.00     0.037 C 
HETATM    3  N   UNL     1      43.521 -13.445   5.627  1.00  0.00    -0.191 N 
HETATM    4  C   UNL     1      43.003 -14.445   6.369  1.00  0.00     0.735 A 
HETATM    5  N   UNL     1      42.307 -15.444   5.749  1.00  0.00    -0.092 N 
HETATM    6  N   UNL     1      41.819 -16.304   6.656  1.00  0.00     0.012 NA
HETATM    7  N   UNL     1      42.257 -15.839   7.822  1.00  0.00     0.033 NA
HETATM    8  N   UNL     1      42.995 -14.682   7.658  1.00  0.00     0.030 NA
HETATM    9  C   UNL     1      42.100 -15.539   4.307  1.00  0.00     0.199 C 
HETATM   10  C   UNL     1      42.579 -14.269   3.607  1.00  0.00     0.062 C 
HETATM   11  H   UNL     1      43.941 -12.654   6.114  1.00  0.00     0.184 HD
ENDROOT
BRANCH  10  12
HETATM   12  C   UNL     1      42.142 -14.164   2.191  1.00  0.00     0.256 C 
HETATM   13  N   UNL     1      40.826 -13.794   2.038  1.00  0.00    -0.322 N 
HETATM   14  H   UNL     1      40.297 -13.582   2.876  1.00  0.00     0.169 HD
HETATM   15  O   UNL     1      42.967 -14.349   1.306  1.00  0.00    -0.267 OA
BRANCH  13  16
HETATM   16  C   UNL     1      40.124 -13.686   0.818  1.00  0.00     0.052 A 
HETATM   17  C   UNL     1      39.954 -14.716  -0.104  1.00  0.00     0.145 A 
HETATM   18  N   UNL     1      39.252 -14.595  -1.260  1.00  0.00    -0.271 NA
HETATM   19  C   UNL     1      38.692 -13.396  -1.513  1.00  0.00     0.116 A 
HETATM   20  C   UNL     1      38.802 -12.309  -0.665  1.00  0.00     0.021 A 
HETATM   21  C   UNL     1      39.530 -12.459   0.515  1.00  0.00     0.032 A 
ENDBRANCH  13  16
ENDBRANCH  10  12
BRANCH   9  22
HETATM   22  C   UNL     1      42.777 -16.778   3.743  1.00  0.00    -0.011 A 
HETATM   23  C   UNL     1      42.273 -17.468   2.641  1.00  0.00     0.125 A 
HETATM   24  N   UNL     1      42.815 -18.601   2.142  1.00  0.00    -0.272 NA
HETATM   25  C   UNL     1      43.924 -19.069   2.752  1.00  0.00     0.116 A 
HETATM   26  C   UNL     1      44.503 -18.467   3.856  1.00  0.00     0.020 A 
HETATM   27  C   UNL     1      43.916 -17.310   4.360  1.00  0.00     0.012 A 
ENDBRANCH   9  22
TORSDOF 3
ENDMDL
MODEL 5
REMARK VINA RESULT:      -7.1      2.689      5.475
REMARK  3 active torsions:
REMARK  status: ('A' for Active; 'I' for Inactive)
REMARK    1  A    between atoms: C_9  and  C_10 
REMARK    2  A    between atoms: C_16  and  C_17 
REMARK       I    between atoms: C_17  and  N_18 
REMARK    3  A    between atoms: N_18  and  C_19 
ROOT
HETATM    1  C   UNL     1      42.371 -17.694   2.299  1.00  0.00     0.070 C 
HETATM    2  C   UNL     1      42.577 -16.901   3.567  1.00  0.00     0.037 C 
HETATM    3  N   UNL     1      42.748 -17.655   4.725  1.00  0.00    -0.191 N 
HETATM    4  C   UNL     1      43.195 -17.123   5.882  1.00  0.00     0.735 A 
HETATM    5  N   UNL     1      43.332 -15.768   5.984  1.00  0.00    -0.092 N 
HETATM    6  N   UNL     1      43.847 -15.441   7.179  1.00  0.00     0.012 NA
HETATM    7  N   UNL     1      43.983 -16.603   7.811  1.00  0.00     0.033 NA
HETATM    8  N   UNL     1      43.581 -17.659   7.014  1.00  0.00     0.030 NA
HETATM    9  C   UNL     1      42.996 -14.818   4.928  1.00  0.00     0.199 C 
HETATM   10  C   UNL     1      42.673 -15.549   3.627  1.00  0.00     0.062 C 
HETATM   11  H   UNL     1      42.756 -18.669   4.629  1.00  0.00     0.184 HD
ENDROOT
BRANCH  10  12
HETATM   12  C   UNL     1      42.606 -14.658   2.439  1.00  0.00     0.256 C 
HETATM   13  N   UNL     1      41.326 -14.408   2.000  1.00  0.00    -0.322 N 
HETATM   14  H   UNL     1      40.560 -14.799   2.537  1.00  0.00     0.169 HD
HETATM   15  O   UNL     1      43.645 -14.187   1.998  1.00  0.00    -0.267 OA
BRANCH  13  16
HETATM   16  C   UNL     1      40.965 -13.660   0.858  1.00  0.00     0.052 A 
HETATM   17  C   UNL     1      41.185 -12.295   0.689  1.00  0.00     0.145 A 
HETATM   18  N   UNL     1      40.851 -11.602  -0.430  1.00  0.00    -0.271 NA
HETATM   19  C   UNL     1      40.274 -12.297  -1.430  1.00  0.00     0.116 A 
HETATM   20  C   UNL     1      40.012 -13.654  -1.363  1.00  0.00     0.021 A 
HETATM   21  C   UNL     1      40.361 -14.341  -0.201  1.00  0.00     0.032 A 
ENDBRANCH  13  16
ENDBRANCH  10  12
BRANCH   9  22
HETATM   22  C   UNL     1      41.854 -13.911   5.358  1.00  0.00    -0.011 A 
HETATM   23  C   UNL     1      40.640 -14.412   5.829  1.00  0.00     0.125 A 
HETATM   24  N   UNL     1      39.583 -13.641   6.171  1.00  0.00    -0.272 NA
HETATM   25  C   UNL     1      39.737 -12.306   6.060  1.00  0.00     0.116 A 
HETATM   26  C   UNL     1      40.895 -11.704   5.599  1.00  0.00     0.020 A 
HETATM   27  C   UNL     1      41.964 -12.521   5.237  1.00  0.00     0.012 A 
ENDBRANCH   9  22
TORSDOF 3
ENDMDL
MODEL 6
REMARK VINA RESULT:      -7.1      2.815      6.974
REMARK  3 active torsions:
REMARK  status: ('A' for Active; 'I' for Inactive)
REMARK    1  A    between atoms: C_9  and  C_10 
REMARK    2  A    between atoms: C_16  and  C_17 
REMARK       I    between atoms: C_17  and  N_18 
REMARK    3  A    between atoms: N_18  and  C_19 
ROOT
HETATM    1  C   UNL     1      40.192 -11.119   4.205  1.00  0.00     0.070 C 
HETATM    2  C   UNL     1      40.709 -12.524   4.010  1.00  0.00     0.037 C 
HETATM    3  N   UNL     1      39.818 -13.416   3.420  1.00  0.00    -0.191 N 
HETATM    4  C   UNL     1      40.197 -14.619   2.944  1.00  0.00     0.735 A 
HETATM    5  N   UNL     1      41.466 -15.064   3.188  1.00  0.00    -0.092 N 
HETATM    6  N   UNL     1      41.671 -16.242   2.581  1.00  0.00     0.012 NA
HETATM    7  N   UNL     1      40.508 -16.524   2.002  1.00  0.00     0.033 NA
HETATM    8  N   UNL     1      39.581 -15.522   2.219  1.00  0.00     0.030 NA
HETATM    9  C   UNL     1      42.462 -14.339   3.971  1.00  0.00     0.199 C 
HETATM   10  C   UNL     1      41.971 -12.931   4.300  1.00  0.00     0.062 C 
HETATM   11  H   UNL     1      38.909 -13.053   3.137  1.00  0.00     0.184 HD
ENDROOT
BRANCH  10  12
HETATM   12  C   UNL     1      43.030 -12.037   4.837  1.00  0.00     0.256 C 
HETATM   13  N   UNL     1      42.982 -11.872   6.202  1.00  0.00    -0.322 N 
HETATM   14  H   UNL     1      42.283 -12.397   6.715  1.00  0.00     0.169 HD
HETATM   15  O   UNL     1      43.863 -11.583   4.066  1.00  0.00    -0.267 OA
BRANCH  13  16
HETATM   16  C   UNL     1      43.811 -11.028   6.972  1.00  0.00     0.052 A 
HETATM   17  C   UNL     1      43.416  -9.825   7.553  1.00  0.00     0.145 A 
HETATM   18  N   UNL     1      44.226  -9.043   8.311  1.00  0.00    -0.271 NA
HETATM   19  C   UNL     1      45.488  -9.474   8.503  1.00  0.00     0.116 A 
HETATM   20  C   UNL     1      45.981 -10.652   7.970  1.00  0.00     0.021 A 
HETATM   21  C   UNL     1      45.129 -11.436   7.193  1.00  0.00     0.032 A 
ENDBRANCH  13  16
ENDBRANCH  10  12
BRANCH   9  22
HETATM   22  C   UNL     1      42.829 -15.111   5.228  1.00  0.00    -0.011 A 
HETATM   23  C   UNL     1      41.940 -15.274   6.291  1.00  0.00     0.125 A 
HETATM   24  N   UNL     1      42.246 -15.907   7.446  1.00  0.00    -0.272 NA
HETATM   25  C   UNL     1      43.488 -16.423   7.551  1.00  0.00     0.116 A 
HETATM   26  C   UNL     1      44.449 -16.314   6.561  1.00  0.00     0.020 A 
HETATM   27  C   UNL     1      44.115 -15.642   5.388  1.00  0.00     0.012 A 
ENDBRANCH   9  22
TORSDOF 3
ENDMDL
MODEL 7
REMARK VINA RESULT:      -7.1      2.826      6.878
REMARK  3 active torsions:
REMARK  status: ('A' for Active; 'I' for Inactive)
REMARK    1  A    between atoms: C_9  and  C_10 
REMARK    2  A    between atoms: C_16  and  C_17 
REMARK       I    between atoms: C_17  and  N_18 
REMARK    3  A    between atoms: N_18  and  C_19 
ROOT
HETATM    1  C   UNL     1      39.088 -10.544   2.854  1.00  0.00     0.070 C 
HETATM    2  C   UNL     1      39.567 -11.636   1.929  1.00  0.00     0.037 C 
HETATM    3  N   UNL     1      38.665 -12.027   0.943  1.00  0.00    -0.191 N 
HETATM    4  C   UNL     1      39.020 -12.792  -0.109  1.00  0.00     0.735 A 
HETATM    5  N   UNL     1      40.267 -13.348  -0.139  1.00  0.00    -0.092 N 
HETATM    6  N   UNL     1      40.453 -14.015  -1.288  1.00  0.00     0.012 NA
HETATM    7  N   UNL     1      39.298 -13.889  -1.934  1.00  0.00     0.033 NA
HETATM    8  N   UNL     1      38.397 -13.130  -1.211  1.00  0.00     0.030 NA
HETATM    9  C   UNL     1      41.264 -13.207   0.919  1.00  0.00     0.199 C 
HETATM   10  C   UNL     1      40.808 -12.185   1.959  1.00  0.00     0.062 C 
HETATM   11  H   UNL     1      37.776 -11.532   0.898  1.00  0.00     0.184 HD
ENDROOT
BRANCH  10  12
HETATM   12  C   UNL     1      41.878 -11.771   2.902  1.00  0.00     0.256 C 
HETATM   13  N   UNL     1      41.725 -12.270   4.175  1.00  0.00    -0.322 N 
HETATM   14  H   UNL     1      40.949 -12.899   4.343  1.00  0.00     0.169 HD
HETATM   15  O   UNL     1      42.806 -11.095   2.478  1.00  0.00    -0.267 OA
BRANCH  13  16
HETATM   16  C   UNL     1      42.545 -11.985   5.288  1.00  0.00     0.052 A 
HETATM   17  C   UNL     1      42.453 -10.844   6.082  1.00  0.00     0.145 A 
HETATM   18  N   UNL     1      43.237 -10.604   7.165  1.00  0.00    -0.271 NA
HETATM   19  C   UNL     1      44.154 -11.541   7.476  1.00  0.00     0.116 A 
HETATM   20  C   UNL     1      44.327 -12.709   6.753  1.00  0.00     0.021 A 
HETATM   21  C   UNL     1      43.511 -12.929   5.644  1.00  0.00     0.032 A 
ENDBRANCH  13  16
ENDBRANCH  10  12
BRANCH   9  22
HETATM   22  C   UNL     1      41.574 -14.552   1.555  1.00  0.00    -0.011 A 
HETATM   23  C   UNL     1      40.614 -15.287   2.251  1.00  0.00     0.125 A 
HETATM   24  N   UNL     1      40.863 -16.461   2.876  1.00  0.00    -0.272 NA
HETATM   25  C   UNL     1      42.120 -16.944   2.793  1.00  0.00     0.116 A 
HETATM   26  C   UNL     1      43.149 -16.293   2.134  1.00  0.00     0.020 A 
HETATM   27  C   UNL     1      42.870 -15.078   1.514  1.00  0.00     0.012 A 
ENDBRANCH   9  22
TORSDOF 3
ENDMDL
MODEL 8
REMARK VINA RESULT:      -6.9      3.776      6.075
REMARK  3 active torsions:
REMARK  status: ('A' for Active; 'I' for Inactive)
REMARK    1  A    between atoms: C_9  and  C_10 
REMARK    2  A    between atoms: C_16  and  C_17 
REMARK       I    between atoms: C_17  and  N_18 
REMARK    3  A    between atoms: N_18  and  C_19 
ROOT
HETATM    1  C   UNL     1      39.736 -10.818   3.045  1.00  0.00     0.070 C 
HETATM    2  C   UNL     1      40.010 -10.848   1.561  1.00  0.00     0.037 C 
HETATM    3  N   UNL     1      39.909  -9.622   0.908  1.00  0.00    -0.191 N 
HETATM    4  C   UNL     1      40.366  -9.423  -0.346  1.00  0.00     0.735 A 
HETATM    5  N   UNL     1      40.799 -10.493  -1.075  1.00  0.00    -0.092 N 
HETATM    6  N   UNL     1      41.273 -10.087  -2.263  1.00  0.00     0.012 NA
HETATM    7  N   UNL     1      41.088  -8.770  -2.260  1.00  0.00     0.033 NA
HETATM    8  N   UNL     1      40.524  -8.343  -1.072  1.00  0.00     0.030 NA
HETATM    9  C   UNL     1      40.776 -11.877  -0.612  1.00  0.00     0.199 C 
HETATM   10  C   UNL     1      40.406 -11.946   0.868  1.00  0.00     0.062 C 
HETATM   11  H   UNL     1      39.694  -8.804   1.475  1.00  0.00     0.184 HD
ENDROOT
BRANCH  10  12
HETATM   12  C   UNL     1      40.642 -13.276   1.485  1.00  0.00     0.256 C 
HETATM   13  N   UNL     1      41.957 -13.515   1.811  1.00  0.00    -0.322 N 
HETATM   14  H   UNL     1      42.624 -12.768   1.654  1.00  0.00     0.169 HD
HETATM   15  O   UNL     1      39.682 -14.003   1.703  1.00  0.00    -0.267 OA
BRANCH  13  16
HETATM   16  C   UNL     1      42.483 -14.714   2.340  1.00  0.00     0.052 A 
HETATM   17  C   UNL     1      42.654 -14.987   3.695  1.00  0.00     0.145 A 
HETATM   18  N   UNL     1      43.138 -16.159   4.181  1.00  0.00    -0.271 NA
HETATM   19  C   UNL     1      43.468 -17.105   3.280  1.00  0.00     0.116 A 
HETATM   20  C   UNL     1      43.338 -16.935   1.913  1.00  0.00     0.021 A 
HETATM   21  C   UNL     1      42.840 -15.721   1.440  1.00  0.00     0.032 A 
ENDBRANCH  13  16
ENDBRANCH  10  12
BRANCH   9  22
HETATM   22  C   UNL     1      39.839 -12.719  -1.462  1.00  0.00    -0.011 A 
HETATM   23  C   UNL     1      40.305 -13.644  -2.396  1.00  0.00     0.125 A 
HETATM   24  N   UNL     1      39.506 -14.372  -3.207  1.00  0.00    -0.272 NA
HETATM   25  C   UNL     1      38.175 -14.192  -3.078  1.00  0.00     0.116 A 
HETATM   26  C   UNL     1      37.606 -13.296  -2.189  1.00  0.00     0.020 A 
HETATM   27  C   UNL     1      38.452 -12.546  -1.377  1.00  0.00     0.012 A 
ENDBRANCH   9  22
TORSDOF 3
ENDMDL
MODEL 9
REMARK VINA RESULT:      -6.7     14.703     16.865
REMARK  3 active torsions:
REMARK  status: ('A' for Active; 'I' for Inactive)
REMARK    1  A    between atoms: C_9  and  C_10 
REMARK    2  A    between atoms: C_16  and  C_17 
REMARK       I    between atoms: C_17  and  N_18 
REMARK    3  A    between atoms: N_18  and  C_19 
ROOT
HETATM    1  C   UNL     1      43.541 -33.115  -1.816  1.00  0.00     0.070 C 
HETATM    2  C   UNL     1      44.102 -31.716  -1.753  1.00  0.00     0.037 C 
HETATM    3  N   UNL     1      44.526 -31.184  -2.968  1.00  0.00    -0.191 N 
HETATM    4  C   UNL     1      44.807 -29.875  -3.134  1.00  0.00     0.735 A 
HETATM    5  N   UNL     1      44.840 -29.056  -2.040  1.00  0.00    -0.092 N 
HETATM    6  N   UNL     1      45.070 -27.789  -2.414  1.00  0.00     0.012 NA
HETATM    7  N   UNL     1      45.213 -27.853  -3.734  1.00  0.00     0.033 NA
HETATM    8  N   UNL     1      45.052 -29.147  -4.195  1.00  0.00     0.030 NA
HETATM    9  C   UNL     1      44.623 -29.499  -0.666  1.00  0.00     0.199 C 
HETATM   10  C   UNL     1      44.146 -30.949  -0.634  1.00  0.00     0.062 C 
HETATM   11  H   UNL     1      44.398 -31.755  -3.801  1.00  0.00     0.184 HD
ENDROOT
BRANCH  10  12
HETATM   12  C   UNL     1      43.628 -31.381   0.690  1.00  0.00     0.256 C 
HETATM   13  N   UNL     1      42.413 -30.827   1.022  1.00  0.00    -0.322 N 
HETATM   14  H   UNL     1      41.966 -30.229   0.337  1.00  0.00     0.169 HD
HETATM   15  O   UNL     1      44.264 -32.208   1.329  1.00  0.00    -0.267 OA
BRANCH  13  16
HETATM   16  C   UNL     1      41.721 -30.999   2.241  1.00  0.00     0.052 A 
HETATM   17  C   UNL     1      41.958 -30.276   3.408  1.00  0.00     0.145 A 
HETATM   18  N   UNL     1      41.261 -30.443   4.561  1.00  0.00    -0.271 NA
HETATM   19  C   UNL     1      40.282 -31.368   4.556  1.00  0.00     0.116 A 
HETATM   20  C   UNL     1      39.966 -32.139   3.451  1.00  0.00     0.021 A 
HETATM   21  C   UNL     1      40.700 -31.950   2.280  1.00  0.00     0.032 A 
ENDBRANCH  13  16
ENDBRANCH  10  12
BRANCH   9  22
HETATM   22  C   UNL     1      45.877 -29.303   0.171  1.00  0.00    -0.011 A 
HETATM   23  C   UNL     1      45.913 -28.452   1.275  1.00  0.00     0.125 A 
HETATM   24  N   UNL     1      47.020 -28.211   2.012  1.00  0.00    -0.272 NA
HETATM   25  C   UNL     1      48.148 -28.858   1.652  1.00  0.00     0.116 A 
HETATM   26  C   UNL     1      48.225 -29.720   0.571  1.00  0.00     0.020 A 
HETATM   27  C   UNL     1      47.074 -29.938  -0.182  1.00  0.00     0.012 A 
ENDBRANCH   9  22
TORSDOF 3
ENDMDL
MODEL 10
REMARK VINA RESULT:      -6.6      4.674      8.092
REMARK  3 active torsions:
REMARK  status: ('A' for Active; 'I' for Inactive)
REMARK    1  A    between atoms: C_9  and  C_10 
REMARK    2  A    between atoms: C_16  and  C_17 
REMARK       I    between atoms: C_17  and  N_18 
REMARK    3  A    between atoms: N_18  and  C_19 
ROOT
HETATM    1  C   UNL     1      38.884 -14.930  -2.481  1.00  0.00     0.070 C 
HETATM    2  C   UNL     1      38.521 -13.501  -2.159  1.00  0.00     0.037 C 
HETATM    3  N   UNL     1      37.558 -12.926  -2.984  1.00  0.00    -0.191 N 
HETATM    4  C   UNL     1      36.938 -11.766  -2.685  1.00  0.00     0.735 A 
HETATM    5  N   UNL     1      37.376 -11.032  -1.619  1.00  0.00    -0.092 N 
HETATM    6  N   UNL     1      36.598  -9.953  -1.444  1.00  0.00     0.012 NA
HETATM    7  N   UNL     1      35.711 -10.021  -2.433  1.00  0.00     0.033 NA
HETATM    8  N   UNL     1      35.912 -11.145  -3.213  1.00  0.00     0.030 NA
HETATM    9  C   UNL     1      38.511 -11.391  -0.774  1.00  0.00     0.199 C 
HETATM   10  C   UNL     1      39.009 -12.797  -1.106  1.00  0.00     0.062 C 
HETATM   11  H   UNL     1      37.151 -13.513  -3.711  1.00  0.00     0.184 HD
ENDROOT
BRANCH  10  12
HETATM   12  C   UNL     1      39.962 -13.347  -0.108  1.00  0.00     0.256 C 
HETATM   13  N   UNL     1      39.355 -13.977   0.954  1.00  0.00    -0.322 N 
HETATM   14  H   UNL     1      38.345 -14.054   0.941  1.00  0.00     0.169 HD
HETATM   15  O   UNL     1      41.162 -13.256  -0.327  1.00  0.00    -0.267 OA
BRANCH  13  16
HETATM   16  C   UNL     1      40.004 -14.527   2.081  1.00  0.00     0.052 A 
HETATM   17  C   UNL     1      40.129 -13.903   3.320  1.00  0.00     0.145 A 
HETATM   18  N   UNL     1      40.736 -14.463   4.397  1.00  0.00    -0.271 NA
HETATM   19  C   UNL     1      41.242 -15.703   4.239  1.00  0.00     0.116 A 
HETATM   20  C   UNL     1      41.172 -16.409   3.051  1.00  0.00     0.021 A 
HETATM   21  C   UNL     1      40.546 -15.809   1.959  1.00  0.00     0.032 A 
ENDBRANCH  13  16
ENDBRANCH  10  12
BRANCH   9  22
HETATM   22  C   UNL     1      39.623 -10.362  -0.893  1.00  0.00    -0.011 A 
HETATM   23  C   UNL     1      39.988  -9.530   0.166  1.00  0.00     0.125 A 
HETATM   24  N   UNL     1      40.934  -8.568   0.084  1.00  0.00    -0.272 NA
HETATM   25  C   UNL     1      41.567  -8.430  -1.100  1.00  0.00     0.116 A 
HETATM   26  C   UNL     1      41.279  -9.197  -2.216  1.00  0.00     0.020 A 
HETATM   27  C   UNL     1      40.289 -10.170  -2.110  1.00  0.00     0.012 A 
ENDBRANCH   9  22
TORSDOF 3
ENDMDL
