MODEL 1
REMARK VINA RESULT:      -9.0      0.000      0.000
REMARK  8 active torsions:
REMARK  status: ('A' for Active; 'I' for Inactive)
REMARK    1  A    between atoms: C_4  and  C_5 
REMARK    2  A    between atoms: C_5  and  N_6 
REMARK       I    between atoms: N_6  and  C_7 
REMARK       I    between atoms: C_7  and  N_8 
REMARK       I    between atoms: N_8  and  C_9 
REMARK    3  A    between atoms: C_9  and  C_10 
REMARK    4  A    between atoms: C_10  and  S_11 
REMARK    5  A    between atoms: S_11  and  C_12 
REMARK    6  A    between atoms: N_13  and  C_14 
REMARK    7  A    between atoms: C_21  and  C_22 
REMARK    8  A    between atoms: C_22  and  N_23 
ROOT
HETATM    1  C   UNL     1      43.600 -12.680   6.590  1.00  0.00     0.196 A 
HETATM    2  N   UNL     1      42.769 -13.311   5.682  1.00  0.00    -0.274 N 
HETATM    3  C   UNL     1      42.574 -14.571   6.232  1.00  0.00     0.161 A 
HETATM    4  N   UNL     1      43.254 -14.679   7.357  1.00  0.00    -0.132 NA
HETATM    5  N   UNL     1      43.888 -13.490   7.584  1.00  0.00    -0.122 NA
ENDROOT
BRANCH   1   6
HETATM    6  S   UNL     1      43.993 -10.993   6.546  1.00  0.00    -0.080 SA
BRANCH   6   7
HETATM    7  C   UNL     1      45.392 -10.924   7.709  1.00  0.00     0.185 C 
BRANCH   7   8
HETATM    8  C   UNL     1      45.634  -9.513   8.236  1.00  0.00     0.235 C 
HETATM    9  N   UNL     1      45.093  -9.169   9.458  1.00  0.00    -0.279 N 
HETATM   10  C   UNL     1      44.289  -9.915  10.291  1.00  0.00     0.323 C 
HETATM   11  H   UNL     1      45.243  -8.205   9.707  1.00  0.00     0.173 HD
HETATM   12  N   UNL     1      43.838  -9.182  11.360  1.00  0.00    -0.339 N 
HETATM   13  O   UNL     1      43.985 -11.084  10.104  1.00  0.00    -0.247 OA
HETATM   14  H   UNL     1      44.409  -8.421  11.697  1.00  0.00     0.164 HD
HETATM   15  O   UNL     1      46.294  -8.658   7.637  1.00  0.00    -0.272 OA
BRANCH  12  16
HETATM   16  C   UNL     1      42.966  -9.796  12.340  1.00  0.00     0.162 C 
BRANCH  16  17
HETATM   17  C   UNL     1      42.574  -8.800  13.397  1.00  0.00    -0.040 A 
HETATM   18  C   UNL     1      41.426  -9.008  14.178  1.00  0.00     0.009 A 
HETATM   19  C   UNL     1      41.047  -8.074  15.143  1.00  0.00     0.001 A 
HETATM   20  C   UNL     1      41.807  -6.922  15.336  1.00  0.00     0.000 A 
HETATM   21  C   UNL     1      42.947  -6.703  14.563  1.00  0.00     0.001 A 
HETATM   22  C   UNL     1      43.328  -7.636  13.597  1.00  0.00     0.009 A 
ENDBRANCH  16  17
ENDBRANCH  12  16
ENDBRANCH   7   8
ENDBRANCH   6   7
ENDBRANCH   1   6
BRANCH   2  23
HETATM   23  C   UNL     1      42.264 -12.828   4.448  1.00  0.00     0.043 A 
HETATM   24  C   UNL     1      42.996 -13.026   3.270  1.00  0.00     0.032 A 
HETATM   25  C   UNL     1      42.495 -12.564   2.051  1.00  0.00     0.026 A 
HETATM   26  C   UNL     1      41.272 -11.899   2.008  1.00  0.00     0.034 A 
HETATM   27 CL   UNL     1      40.657 -11.330   0.509  1.00  0.00    -0.084 Cl
HETATM   28  C   UNL     1      40.546 -11.688   3.180  1.00  0.00     0.026 A 
HETATM   29  C   UNL     1      41.038 -12.151   4.403  1.00  0.00     0.032 A 
ENDBRANCH   2  23
BRANCH   3  30
HETATM   30  C   UNL     1      41.863 -15.710   5.593  1.00  0.00     0.315 C 
BRANCH  30  31
HETATM   31  N   UNL     1      42.755 -16.447   4.597  1.00  0.00    -0.064 N 
HETATM   32  H   UNL     1      43.548 -15.802   4.439  1.00  0.00     0.280 HD
HETATM   33  C   UNL     1      43.347 -17.709   5.185  1.00  0.00     0.235 C 
HETATM   34  C   UNL     1      44.328 -18.321   4.196  1.00  0.00     0.028 C 
HETATM   35  C   UNL     1      43.671 -18.584   2.846  1.00  0.00     0.003 C 
HETATM   36  C   UNL     1      43.035 -17.314   2.293  1.00  0.00     0.028 C 
HETATM   37  C   UNL     1      42.064 -16.688   3.284  1.00  0.00     0.235 C 
ENDBRANCH  30  31
ENDBRANCH   3  30
TORSDOF 8
ENDMDL
MODEL 2
REMARK VINA RESULT:      -8.8      3.134      4.925
REMARK  8 active torsions:
REMARK  status: ('A' for Active; 'I' for Inactive)
REMARK    1  A    between atoms: C_4  and  C_5 
REMARK    2  A    between atoms: C_5  and  N_6 
REMARK       I    between atoms: N_6  and  C_7 
REMARK       I    between atoms: C_7  and  N_8 
REMARK       I    between atoms: N_8  and  C_9 
REMARK    3  A    between atoms: C_9  and  C_10 
REMARK    4  A    between atoms: C_10  and  S_11 
REMARK    5  A    between atoms: S_11  and  C_12 
REMARK    6  A    between atoms: N_13  and  C_14 
REMARK    7  A    between atoms: C_21  and  C_22 
REMARK    8  A    between atoms: C_22  and  N_23 
ROOT
HETATM    1  C   UNL     1      42.449 -11.815   3.278  1.00  0.00     0.196 A 
HETATM    2  N   UNL     1      41.789 -12.855   2.651  1.00  0.00    -0.274 N 
HETATM    3  C   UNL     1      40.669 -12.251   2.095  1.00  0.00     0.161 A 
HETATM    4  N   UNL     1      40.660 -10.965   2.394  1.00  0.00    -0.132 NA
HETATM    5  N   UNL     1      41.781 -10.694   3.126  1.00  0.00    -0.122 NA
ENDROOT
BRANCH   1   6
HETATM    6  S   UNL     1      44.043 -11.931   3.946  1.00  0.00    -0.080 SA
BRANCH   6   7
HETATM    7  C   UNL     1      43.804 -11.155   5.575  1.00  0.00     0.185 C 
BRANCH   7   8
HETATM    8  C   UNL     1      43.435 -12.172   6.651  1.00  0.00     0.235 C 
HETATM    9  N   UNL     1      43.444 -11.763   7.968  1.00  0.00    -0.279 N 
HETATM   10  C   UNL     1      43.798 -10.541   8.495  1.00  0.00     0.323 C 
HETATM   11  H   UNL     1      43.252 -12.506   8.621  1.00  0.00     0.173 HD
HETATM   12  N   UNL     1      43.806 -10.556   9.867  1.00  0.00    -0.339 N 
HETATM   13  O   UNL     1      44.094  -9.556   7.834  1.00  0.00    -0.247 OA
HETATM   14  H   UNL     1      43.185 -11.193  10.345  1.00  0.00     0.164 HD
HETATM   15  O   UNL     1      43.121 -13.343   6.412  1.00  0.00    -0.272 OA
BRANCH  12  16
HETATM   16  C   UNL     1      44.169  -9.361  10.600  1.00  0.00     0.162 C 
BRANCH  16  17
HETATM   17  C   UNL     1      43.256  -9.166  11.780  1.00  0.00    -0.040 A 
HETATM   18  C   UNL     1      43.522  -8.165  12.726  1.00  0.00     0.009 A 
HETATM   19  C   UNL     1      42.690  -7.997  13.834  1.00  0.00     0.001 A 
HETATM   20  C   UNL     1      41.586  -8.830  14.010  1.00  0.00     0.000 A 
HETATM   21  C   UNL     1      41.314  -9.832  13.078  1.00  0.00     0.001 A 
HETATM   22  C   UNL     1      42.146 -10.001  11.970  1.00  0.00     0.009 A 
ENDBRANCH  16  17
ENDBRANCH  12  16
ENDBRANCH   7   8
ENDBRANCH   6   7
ENDBRANCH   1   6
BRANCH   2  23
HETATM   23  C   UNL     1      42.125 -14.232   2.612  1.00  0.00     0.043 A 
HETATM   24  C   UNL     1      42.924 -14.725   1.572  1.00  0.00     0.032 A 
HETATM   25  C   UNL     1      43.269 -16.079   1.539  1.00  0.00     0.026 A 
HETATM   26  C   UNL     1      42.811 -16.938   2.534  1.00  0.00     0.034 A 
HETATM   27 CL   UNL     1      43.234 -18.602   2.492  1.00  0.00    -0.084 Cl
HETATM   28  C   UNL     1      42.005 -16.455   3.564  1.00  0.00     0.026 A 
HETATM   29  C   UNL     1      41.660 -15.101   3.607  1.00  0.00     0.032 A 
ENDBRANCH   2  23
BRANCH   3  30
HETATM   30  C   UNL     1      39.541 -12.941   1.418  1.00  0.00     0.315 C 
BRANCH  30  31
HETATM   31  N   UNL     1      39.673 -12.882  -0.102  1.00  0.00    -0.064 N 
HETATM   32  H   UNL     1      40.551 -12.360  -0.263  1.00  0.00     0.280 HD
HETATM   33  C   UNL     1      39.877 -14.251  -0.713  1.00  0.00     0.235 C 
HETATM   34  C   UNL     1      40.136 -14.111  -2.206  1.00  0.00     0.028 C 
HETATM   35  C   UNL     1      39.014 -13.347  -2.899  1.00  0.00     0.003 C 
HETATM   36  C   UNL     1      38.786 -11.992  -2.239  1.00  0.00     0.028 C 
HETATM   37  C   UNL     1      38.542 -12.124  -0.742  1.00  0.00     0.235 C 
ENDBRANCH  30  31
ENDBRANCH   3  30
TORSDOF 8
ENDMDL
MODEL 3
REMARK VINA RESULT:      -8.6      3.804      5.889
REMARK  8 active torsions:
REMARK  status: ('A' for Active; 'I' for Inactive)
REMARK    1  A    between atoms: C_4  and  C_5 
REMARK    2  A    between atoms: C_5  and  N_6 
REMARK       I    between atoms: N_6  and  C_7 
REMARK       I    between atoms: C_7  and  N_8 
REMARK       I    between atoms: N_8  and  C_9 
REMARK    3  A    between atoms: C_9  and  C_10 
REMARK    4  A    between atoms: C_10  and  S_11 
REMARK    5  A    between atoms: S_11  and  C_12 
REMARK    6  A    between atoms: N_13  and  C_14 
REMARK    7  A    between atoms: C_21  and  C_22 
REMARK    8  A    between atoms: C_22  and  N_23 
ROOT
HETATM    1  C   UNL     1      39.484 -12.289   3.203  1.00  0.00     0.196 A 
HETATM    2  N   UNL     1      40.216 -12.902   2.202  1.00  0.00    -0.274 N 
HETATM    3  C   UNL     1      39.950 -12.131   1.077  1.00  0.00     0.161 A 
HETATM    4  N   UNL     1      39.111 -11.160   1.388  1.00  0.00    -0.132 NA
HETATM    5  N   UNL     1      38.829 -11.256   2.722  1.00  0.00    -0.122 NA
ENDROOT
BRANCH   1   6
HETATM    6  S   UNL     1      39.615 -12.678   4.886  1.00  0.00    -0.080 SA
BRANCH   6   7
HETATM    7  C   UNL     1      41.270 -12.028   5.273  1.00  0.00     0.185 C 
BRANCH   7   8
HETATM    8  C   UNL     1      42.129 -13.044   6.020  1.00  0.00     0.235 C 
HETATM    9  N   UNL     1      43.140 -12.575   6.834  1.00  0.00    -0.279 N 
HETATM   10  C   UNL     1      43.548 -11.277   7.048  1.00  0.00     0.323 C 
HETATM   11  H   UNL     1      43.700 -13.306   7.240  1.00  0.00     0.173 HD
HETATM   12  N   UNL     1      44.678 -11.216   7.824  1.00  0.00    -0.339 N 
HETATM   13  O   UNL     1      42.994 -10.287   6.592  1.00  0.00    -0.247 OA
HETATM   14  H   UNL     1      44.842 -11.954   8.494  1.00  0.00     0.164 HD
HETATM   15  O   UNL     1      41.970 -14.267   5.946  1.00  0.00    -0.272 OA
BRANCH  12  16
HETATM   16  C   UNL     1      45.265  -9.932   8.146  1.00  0.00     0.162 C 
BRANCH  16  17
HETATM   17  C   UNL     1      44.557  -9.305   9.316  1.00  0.00    -0.040 A 
HETATM   18  C   UNL     1      44.539  -9.949  10.563  1.00  0.00     0.009 A 
HETATM   19  C   UNL     1      43.863  -9.381  11.644  1.00  0.00     0.001 A 
HETATM   20  C   UNL     1      43.195  -8.168  11.489  1.00  0.00     0.000 A 
HETATM   21  C   UNL     1      43.202  -7.521  10.254  1.00  0.00     0.001 A 
HETATM   22  C   UNL     1      43.877  -8.087   9.172  1.00  0.00     0.009 A 
ENDBRANCH  16  17
ENDBRANCH  12  16
ENDBRANCH   7   8
ENDBRANCH   6   7
ENDBRANCH   1   6
BRANCH   2  23
HETATM   23  C   UNL     1      41.014 -14.071   2.267  1.00  0.00     0.043 A 
HETATM   24  C   UNL     1      42.410 -13.959   2.332  1.00  0.00     0.032 A 
HETATM   25  C   UNL     1      43.199 -15.110   2.410  1.00  0.00     0.026 A 
HETATM   26  C   UNL     1      42.600 -16.366   2.416  1.00  0.00     0.034 A 
HETATM   27 CL   UNL     1      43.570 -17.780   2.512  1.00  0.00    -0.084 Cl
HETATM   28  C   UNL     1      41.212 -16.483   2.339  1.00  0.00     0.026 A 
HETATM   29  C   UNL     1      40.415 -15.337   2.265  1.00  0.00     0.032 A 
ENDBRANCH   2  23
BRANCH   3  30
HETATM   30  C   UNL     1      40.380 -12.426  -0.314  1.00  0.00     0.315 C 
BRANCH  30  31
HETATM   31  N   UNL     1      39.319 -13.215  -1.078  1.00  0.00    -0.064 N 
HETATM   32  H   UNL     1      38.646 -13.510  -0.351  1.00  0.00     0.280 HD
HETATM   33  C   UNL     1      38.544 -12.346  -2.044  1.00  0.00     0.235 C 
HETATM   34  C   UNL     1      37.419 -13.157  -2.670  1.00  0.00     0.028 C 
HETATM   35  C   UNL     1      37.947 -14.417  -3.347  1.00  0.00     0.003 C 
HETATM   36  C   UNL     1      38.769 -15.255  -2.375  1.00  0.00     0.028 C 
HETATM   37  C   UNL     1      39.887 -14.445  -1.732  1.00  0.00     0.235 C 
ENDBRANCH  30  31
ENDBRANCH   3  30
TORSDOF 8
ENDMDL
MODEL 4
REMARK VINA RESULT:      -8.6      2.971      4.388
REMARK  8 active torsions:
REMARK  status: ('A' for Active; 'I' for Inactive)
REMARK    1  A    between atoms: C_4  and  C_5 
REMARK    2  A    between atoms: C_5  and  N_6 
REMARK       I    between atoms: N_6  and  C_7 
REMARK       I    between atoms: C_7  and  N_8 
REMARK       I    between atoms: N_8  and  C_9 
REMARK    3  A    between atoms: C_9  and  C_10 
REMARK    4  A    between atoms: C_10  and  S_11 
REMARK    5  A    between atoms: S_11  and  C_12 
REMARK    6  A    between atoms: N_13  and  C_14 
REMARK    7  A    between atoms: C_21  and  C_22 
REMARK    8  A    between atoms: C_22  and  N_23 
ROOT
HETATM    1  C   UNL     1      41.114 -13.896   4.882  1.00  0.00     0.196 A 
HETATM    2  N   UNL     1      41.561 -14.552   3.750  1.00  0.00    -0.274 N 
HETATM    3  C   UNL     1      42.629 -15.314   4.208  1.00  0.00     0.161 A 
HETATM    4  N   UNL     1      42.808 -15.102   5.498  1.00  0.00    -0.132 NA
HETATM    5  N   UNL     1      41.852 -14.221   5.919  1.00  0.00    -0.122 NA
ENDROOT
BRANCH   1   6
HETATM    6  S   UNL     1      39.646 -12.979   4.963  1.00  0.00    -0.080 SA
BRANCH   6   7
HETATM    7  C   UNL     1      40.270 -11.354   5.491  1.00  0.00     0.185 C 
BRANCH   7   8
HETATM    8  C   UNL     1      39.403 -10.728   6.581  1.00  0.00     0.235 C 
HETATM    9  N   UNL     1      39.912  -9.659   7.289  1.00  0.00    -0.279 N 
HETATM   10  C   UNL     1      41.155  -9.073   7.200  1.00  0.00     0.323 C 
HETATM   11  H   UNL     1      39.308  -9.344   8.030  1.00  0.00     0.173 HD
HETATM   12  N   UNL     1      41.342  -8.115   8.165  1.00  0.00    -0.339 N 
HETATM   13  O   UNL     1      42.011  -9.373   6.380  1.00  0.00    -0.247 OA
HETATM   14  H   UNL     1      40.533  -7.622   8.515  1.00  0.00     0.164 HD
HETATM   15  O   UNL     1      38.265 -11.118   6.863  1.00  0.00    -0.272 OA
BRANCH  12  16
HETATM   16  C   UNL     1      42.598  -7.398   8.238  1.00  0.00     0.162 C 
BRANCH  16  17
HETATM   17  C   UNL     1      43.608  -8.180   9.032  1.00  0.00    -0.040 A 
HETATM   18  C   UNL     1      44.827  -8.563   8.450  1.00  0.00     0.009 A 
HETATM   19  C   UNL     1      45.755  -9.309   9.177  1.00  0.00     0.001 A 
HETATM   20  C   UNL     1      45.475  -9.684  10.490  1.00  0.00     0.000 A 
HETATM   21  C   UNL     1      44.266  -9.313  11.077  1.00  0.00     0.001 A 
HETATM   22  C   UNL     1      43.336  -8.567  10.352  1.00  0.00     0.009 A 
ENDBRANCH  16  17
ENDBRANCH  12  16
ENDBRANCH   7   8
ENDBRANCH   6   7
ENDBRANCH   1   6
BRANCH   2  23
HETATM   23  C   UNL     1      41.094 -14.449   2.415  1.00  0.00     0.043 A 
HETATM   24  C   UNL     1      41.408 -13.317   1.652  1.00  0.00     0.032 A 
HETATM   25  C   UNL     1      40.961 -13.219   0.331  1.00  0.00     0.026 A 
HETATM   26  C   UNL     1      40.197 -14.243  -0.222  1.00  0.00     0.034 A 
HETATM   27 CL   UNL     1      39.647 -14.122  -1.845  1.00  0.00    -0.084 Cl
HETATM   28  C   UNL     1      39.871 -15.367   0.537  1.00  0.00     0.026 A 
HETATM   29  C   UNL     1      40.318 -15.474   1.857  1.00  0.00     0.032 A 
ENDBRANCH   2  23
BRANCH   3  30
HETATM   30  C   UNL     1      43.561 -16.115   3.372  1.00  0.00     0.315 C 
BRANCH  30  31
HETATM   31  N   UNL     1      43.343 -17.614   3.561  1.00  0.00    -0.064 N 
HETATM   32  H   UNL     1      42.395 -17.685   3.967  1.00  0.00     0.280 HD
HETATM   33  C   UNL     1      43.296 -18.356   2.244  1.00  0.00     0.235 C 
HETATM   34  C   UNL     1      42.942 -19.815   2.492  1.00  0.00     0.028 C 
HETATM   35  C   UNL     1      43.912 -20.467   3.470  1.00  0.00     0.003 C 
HETATM   36  C   UNL     1      43.986 -19.679   4.772  1.00  0.00     0.028 C 
HETATM   37  C   UNL     1      44.324 -18.214   4.530  1.00  0.00     0.235 C 
ENDBRANCH  30  31
ENDBRANCH   3  30
TORSDOF 8
ENDMDL
MODEL 5
REMARK VINA RESULT:      -8.6      6.085      9.382
REMARK  8 active torsions:
REMARK  status: ('A' for Active; 'I' for Inactive)
REMARK    1  A    between atoms: C_4  and  C_5 
REMARK    2  A    between atoms: C_5  and  N_6 
REMARK       I    between atoms: N_6  and  C_7 
REMARK       I    between atoms: C_7  and  N_8 
REMARK       I    between atoms: N_8  and  C_9 
REMARK    3  A    between atoms: C_9  and  C_10 
REMARK    4  A    between atoms: C_10  and  S_11 
REMARK    5  A    between atoms: S_11  and  C_12 
REMARK    6  A    between atoms: N_13  and  C_14 
REMARK    7  A    between atoms: C_21  and  C_22 
REMARK    8  A    between atoms: C_22  and  N_23 
ROOT
HETATM    1  C   UNL     1      40.054 -10.891   2.550  1.00  0.00     0.196 A 
HETATM    2  N   UNL     1      39.736 -10.505   1.261  1.00  0.00    -0.274 N 
HETATM    3  C   UNL     1      38.547 -11.175   0.997  1.00  0.00     0.161 A 
HETATM    4  N   UNL     1      38.210 -11.913   2.038  1.00  0.00    -0.132 NA
HETATM    5  N   UNL     1      39.150 -11.725   3.012  1.00  0.00    -0.122 NA
ENDROOT
BRANCH   1   6
HETATM    6  S   UNL     1      41.319 -10.182   3.497  1.00  0.00    -0.080 SA
BRANCH   6   7
HETATM    7  C   UNL     1      42.094 -11.662   4.220  1.00  0.00     0.185 C 
BRANCH   7   8
HETATM    8  C   UNL     1      43.424 -12.001   3.554  1.00  0.00     0.235 C 
HETATM    9  N   UNL     1      43.551 -13.224   2.929  1.00  0.00    -0.279 N 
HETATM   10  C   UNL     1      42.642 -14.257   2.851  1.00  0.00     0.323 C 
HETATM   11  H   UNL     1      44.475 -13.399   2.570  1.00  0.00     0.173 HD
HETATM   12  N   UNL     1      43.180 -15.371   2.258  1.00  0.00    -0.339 N 
HETATM   13  O   UNL     1      41.496 -14.210   3.275  1.00  0.00    -0.247 OA
HETATM   14  H   UNL     1      43.918 -15.245   1.580  1.00  0.00     0.164 HD
HETATM   15  O   UNL     1      44.398 -11.240   3.534  1.00  0.00    -0.272 OA
BRANCH  12  16
HETATM   16  C   UNL     1      42.376 -16.565   2.101  1.00  0.00     0.162 C 
BRANCH  16  17
HETATM   17  C   UNL     1      43.019 -17.731   2.801  1.00  0.00    -0.040 A 
HETATM   18  C   UNL     1      43.105 -18.980   2.166  1.00  0.00     0.009 A 
HETATM   19  C   UNL     1      43.679 -20.070   2.822  1.00  0.00     0.001 A 
HETATM   20  C   UNL     1      44.168 -19.925   4.119  1.00  0.00     0.000 A 
HETATM   21  C   UNL     1      44.084 -18.690   4.761  1.00  0.00     0.001 A 
HETATM   22  C   UNL     1      43.510 -17.599   4.107  1.00  0.00     0.009 A 
ENDBRANCH  16  17
ENDBRANCH  12  16
ENDBRANCH   7   8
ENDBRANCH   6   7
ENDBRANCH   1   6
BRANCH   2  23
HETATM   23  C   UNL     1      40.460  -9.668   0.375  1.00  0.00     0.043 A 
HETATM   24  C   UNL     1      41.518 -10.198  -0.376  1.00  0.00     0.032 A 
HETATM   25  C   UNL     1      42.225  -9.378  -1.260  1.00  0.00     0.026 A 
HETATM   26  C   UNL     1      41.882  -8.035  -1.389  1.00  0.00     0.034 A 
HETATM   27 CL   UNL     1      42.752  -7.028  -2.475  1.00  0.00    -0.084 Cl
HETATM   28  C   UNL     1      40.838  -7.500  -0.635  1.00  0.00     0.026 A 
HETATM   29  C   UNL     1      40.123  -8.314   0.249  1.00  0.00     0.032 A 
ENDBRANCH   2  23
BRANCH   3  30
HETATM   30  C   UNL     1      37.833 -11.221  -0.305  1.00  0.00     0.315 C 
BRANCH  30  31
HETATM   31  N   UNL     1      37.981 -12.581  -0.983  1.00  0.00    -0.064 N 
HETATM   32  H   UNL     1      37.305 -13.188  -0.491  1.00  0.00     0.280 HD
HETATM   33  C   UNL     1      37.545 -12.549  -2.432  1.00  0.00     0.235 C 
HETATM   34  C   UNL     1      37.589 -13.955  -3.009  1.00  0.00     0.028 C 
HETATM   35  C   UNL     1      38.969 -14.582  -2.852  1.00  0.00     0.003 C 
HETATM   36  C   UNL     1      39.415 -14.560  -1.395  1.00  0.00     0.028 C 
HETATM   37  C   UNL     1      39.359 -13.157  -0.806  1.00  0.00     0.235 C 
ENDBRANCH  30  31
ENDBRANCH   3  30
TORSDOF 8
ENDMDL
MODEL 6
REMARK VINA RESULT:      -8.4      4.524      9.294
REMARK  8 active torsions:
REMARK  status: ('A' for Active; 'I' for Inactive)
REMARK    1  A    between atoms: C_4  and  C_5 
REMARK    2  A    between atoms: C_5  and  N_6 
REMARK       I    between atoms: N_6  and  C_7 
REMARK       I    between atoms: C_7  and  N_8 
REMARK       I    between atoms: N_8  and  C_9 
REMARK    3  A    between atoms: C_9  and  C_10 
REMARK    4  A    between atoms: C_10  and  S_11 
REMARK    5  A    between atoms: S_11  and  C_12 
REMARK    6  A    between atoms: N_13  and  C_14 
REMARK    7  A    between atoms: C_21  and  C_22 
REMARK    8  A    between atoms: C_22  and  N_23 
ROOT
HETATM    1  C   UNL     1      41.930 -10.566   2.941  1.00  0.00     0.196 A 
HETATM    2  N   UNL     1      41.912 -10.394   4.313  1.00  0.00    -0.274 N 
HETATM    3  C   UNL     1      42.897 -11.261   4.769  1.00  0.00     0.161 A 
HETATM    4  N   UNL     1      43.432 -11.906   3.749  1.00  0.00    -0.132 NA
HETATM    5  N   UNL     1      42.830 -11.462   2.606  1.00  0.00    -0.122 NA
ENDROOT
BRANCH   1   6
HETATM    6  S   UNL     1      41.069  -9.564   1.820  1.00  0.00    -0.080 SA
BRANCH   6   7
HETATM    7  C   UNL     1      39.915 -10.764   1.085  1.00  0.00     0.185 C 
BRANCH   7   8
HETATM    8  C   UNL     1      38.936 -11.328   2.111  1.00  0.00     0.235 C 
HETATM    9  N   UNL     1      38.986 -12.678   2.391  1.00  0.00    -0.279 N 
HETATM   10  C   UNL     1      39.781 -13.651   1.828  1.00  0.00     0.323 C 
HETATM   11  H   UNL     1      38.269 -12.983   3.029  1.00  0.00     0.173 HD
HETATM   12  N   UNL     1      39.448 -14.906   2.272  1.00  0.00    -0.339 N 
HETATM   13  O   UNL     1      40.667 -13.443   1.011  1.00  0.00    -0.247 OA
HETATM   14  H   UNL     1      39.048 -14.999   3.194  1.00  0.00     0.164 HD
HETATM   15  O   UNL     1      38.103 -10.644   2.715  1.00  0.00    -0.272 OA
BRANCH  12  16
HETATM   16  C   UNL     1      40.167 -16.062   1.777  1.00  0.00     0.162 C 
BRANCH  16  17
HETATM   17  C   UNL     1      41.263 -16.451   2.732  1.00  0.00    -0.040 A 
HETATM   18  C   UNL     1      42.379 -17.169   2.277  1.00  0.00     0.009 A 
HETATM   19  C   UNL     1      43.386 -17.552   3.165  1.00  0.00     0.001 A 
HETATM   20  C   UNL     1      43.285 -17.226   4.516  1.00  0.00     0.000 A 
HETATM   21  C   UNL     1      42.178 -16.517   4.981  1.00  0.00     0.001 A 
HETATM   22  C   UNL     1      41.171 -16.133   4.094  1.00  0.00     0.009 A 
ENDBRANCH  16  17
ENDBRANCH  12  16
ENDBRANCH   7   8
ENDBRANCH   6   7
ENDBRANCH   1   6
BRANCH   2  23
HETATM   23  C   UNL     1      41.065  -9.573   5.100  1.00  0.00     0.043 A 
HETATM   24  C   UNL     1      41.401  -8.230   5.317  1.00  0.00     0.032 A 
HETATM   25  C   UNL     1      40.561  -7.415   6.080  1.00  0.00     0.026 A 
HETATM   26  C   UNL     1      39.395  -7.940   6.631  1.00  0.00     0.034 A 
HETATM   27 CL   UNL     1      38.363  -6.938   7.570  1.00  0.00    -0.084 Cl
HETATM   28  C   UNL     1      39.062  -9.279   6.428  1.00  0.00     0.026 A 
HETATM   29  C   UNL     1      39.895 -10.100   5.662  1.00  0.00     0.032 A 
ENDBRANCH   2  23
BRANCH   3  30
HETATM   30  C   UNL     1      43.207 -11.573   6.189  1.00  0.00     0.315 C 
BRANCH  30  31
HETATM   31  N   UNL     1      44.132 -10.529   6.809  1.00  0.00    -0.064 N 
HETATM   32  H   UNL     1      44.281  -9.838   6.054  1.00  0.00     0.280 HD
HETATM   33  C   UNL     1      43.469  -9.779   7.943  1.00  0.00     0.235 C 
HETATM   34  C   UNL     1      44.389  -8.667   8.426  1.00  0.00     0.028 C 
HETATM   35  C   UNL     1      45.755  -9.207   8.832  1.00  0.00     0.003 C 
HETATM   36  C   UNL     1      46.386 -10.004   7.696  1.00  0.00     0.028 C 
HETATM   37  C   UNL     1      45.464 -11.109   7.197  1.00  0.00     0.235 C 
ENDBRANCH  30  31
ENDBRANCH   3  30
TORSDOF 8
ENDMDL
MODEL 7
REMARK VINA RESULT:      -8.2      2.888      4.035
REMARK  8 active torsions:
REMARK  status: ('A' for Active; 'I' for Inactive)
REMARK    1  A    between atoms: C_4  and  C_5 
REMARK    2  A    between atoms: C_5  and  N_6 
REMARK       I    between atoms: N_6  and  C_7 
REMARK       I    between atoms: C_7  and  N_8 
REMARK       I    between atoms: N_8  and  C_9 
REMARK    3  A    between atoms: C_9  and  C_10 
REMARK    4  A    between atoms: C_10  and  S_11 
REMARK    5  A    between atoms: S_11  and  C_12 
REMARK    6  A    between atoms: N_13  and  C_14 
REMARK    7  A    between atoms: C_21  and  C_22 
REMARK    8  A    between atoms: C_22  and  N_23 
ROOT
HETATM    1  C   UNL     1      39.767 -11.681   5.139  1.00  0.00     0.196 A 
HETATM    2  N   UNL     1      40.234 -12.898   4.676  1.00  0.00    -0.274 N 
HETATM    3  C   UNL     1      39.700 -12.994   3.397  1.00  0.00     0.161 A 
HETATM    4  N   UNL     1      38.961 -11.931   3.141  1.00  0.00    -0.132 NA
HETATM    5  N   UNL     1      39.012 -11.107   4.229  1.00  0.00    -0.122 NA
ENDROOT
BRANCH   1   6
HETATM    6  S   UNL     1      40.305 -10.920   6.599  1.00  0.00    -0.080 SA
BRANCH   6   7
HETATM    7  C   UNL     1      41.796 -10.053   6.019  1.00  0.00     0.185 C 
BRANCH   7   8
HETATM    8  C   UNL     1      41.795  -8.578   6.411  1.00  0.00     0.235 C 
HETATM    9  N   UNL     1      42.431  -8.210   7.579  1.00  0.00    -0.279 N 
HETATM   10  C   UNL     1      43.050  -9.007   8.516  1.00  0.00     0.323 C 
HETATM   11  H   UNL     1      42.332  -7.233   7.800  1.00  0.00     0.173 HD
HETATM   12  N   UNL     1      43.451  -8.289   9.615  1.00  0.00    -0.339 N 
HETATM   13  O   UNL     1      43.212 -10.214   8.409  1.00  0.00    -0.247 OA
HETATM   14  H   UNL     1      43.683  -7.313   9.494  1.00  0.00     0.164 HD
HETATM   15  O   UNL     1      41.264  -7.687   5.739  1.00  0.00    -0.272 OA
BRANCH  12  16
HETATM   16  C   UNL     1      44.111  -8.961  10.715  1.00  0.00     0.162 C 
BRANCH  16  17
HETATM   17  C   UNL     1      43.270  -8.887  11.961  1.00  0.00    -0.040 A 
HETATM   18  C   UNL     1      43.489  -7.874  12.906  1.00  0.00     0.009 A 
HETATM   19  C   UNL     1      42.726  -7.817  14.073  1.00  0.00     0.001 A 
HETATM   20  C   UNL     1      41.741  -8.774  14.310  1.00  0.00     0.000 A 
HETATM   21  C   UNL     1      41.517  -9.789  13.380  1.00  0.00     0.001 A 
HETATM   22  C   UNL     1      42.279  -9.847  12.212  1.00  0.00     0.009 A 
ENDBRANCH  16  17
ENDBRANCH  12  16
ENDBRANCH   7   8
ENDBRANCH   6   7
ENDBRANCH   1   6
BRANCH   2  23
HETATM   23  C   UNL     1      41.028 -13.863   5.346  1.00  0.00     0.043 A 
HETATM   24  C   UNL     1      40.410 -14.878   6.089  1.00  0.00     0.032 A 
HETATM   25  C   UNL     1      41.189 -15.839   6.739  1.00  0.00     0.026 A 
HETATM   26  C   UNL     1      42.577 -15.783   6.655  1.00  0.00     0.034 A 
HETATM   27 CL   UNL     1      43.534 -16.964   7.455  1.00  0.00    -0.084 Cl
HETATM   28  C   UNL     1      43.197 -14.767   5.927  1.00  0.00     0.026 A 
HETATM   29  C   UNL     1      42.425 -13.805   5.270  1.00  0.00     0.032 A 
ENDBRANCH   2  23
BRANCH   3  30
HETATM   30  C   UNL     1      39.779 -14.173   2.496  1.00  0.00     0.315 C 
BRANCH  30  31
HETATM   31  N   UNL     1      41.130 -14.876   2.601  1.00  0.00    -0.064 N 
HETATM   32  H   UNL     1      41.503 -14.578   3.519  1.00  0.00     0.280 HD
HETATM   33  C   UNL     1      40.990 -16.380   2.671  1.00  0.00     0.235 C 
HETATM   34  C   UNL     1      42.354 -17.010   2.910  1.00  0.00     0.028 C 
HETATM   35  C   UNL     1      43.360 -16.588   1.846  1.00  0.00     0.003 C 
HETATM   36  C   UNL     1      43.451 -15.070   1.753  1.00  0.00     0.028 C 
HETATM   37  C   UNL     1      42.087 -14.431   1.529  1.00  0.00     0.235 C 
ENDBRANCH  30  31
ENDBRANCH   3  30
TORSDOF 8
ENDMDL
MODEL 8
REMARK VINA RESULT:      -8.2      3.191     10.623
REMARK  8 active torsions:
REMARK  status: ('A' for Active; 'I' for Inactive)
REMARK    1  A    between atoms: C_4  and  C_5 
REMARK    2  A    between atoms: C_5  and  N_6 
REMARK       I    between atoms: N_6  and  C_7 
REMARK       I    between atoms: C_7  and  N_8 
REMARK       I    between atoms: N_8  and  C_9 
REMARK    3  A    between atoms: C_9  and  C_10 
REMARK    4  A    between atoms: C_10  and  S_11 
REMARK    5  A    between atoms: S_11  and  C_12 
REMARK    6  A    between atoms: N_13  and  C_14 
REMARK    7  A    between atoms: C_21  and  C_22 
REMARK    8  A    between atoms: C_22  and  N_23 
ROOT
HETATM    1  C   UNL     1      42.936  -9.616  10.009  1.00  0.00     0.196 A 
HETATM    2  N   UNL     1      41.875  -9.026  10.671  1.00  0.00    -0.274 N 
HETATM    3  C   UNL     1      41.894  -9.622  11.926  1.00  0.00     0.161 A 
HETATM    4  N   UNL     1      42.872 -10.507  11.986  1.00  0.00    -0.132 NA
HETATM    5  N   UNL     1      43.528 -10.494  10.787  1.00  0.00    -0.122 NA
ENDROOT
BRANCH   1   6
HETATM    6  S   UNL     1      43.542  -9.091   8.473  1.00  0.00    -0.080 SA
BRANCH   6   7
HETATM    7  C   UNL     1      43.250 -10.569   7.452  1.00  0.00     0.185 C 
BRANCH   7   8
HETATM    8  C   UNL     1      44.436 -11.528   7.472  1.00  0.00     0.235 C 
HETATM    9  N   UNL     1      44.308 -12.741   6.828  1.00  0.00    -0.279 N 
HETATM   10  C   UNL     1      43.211 -13.269   6.183  1.00  0.00     0.323 C 
HETATM   11  H   UNL     1      45.108 -13.343   6.940  1.00  0.00     0.173 HD
HETATM   12  N   UNL     1      43.426 -14.563   5.779  1.00  0.00    -0.339 N 
HETATM   13  O   UNL     1      42.156 -12.677   6.003  1.00  0.00    -0.247 OA
HETATM   14  H   UNL     1      44.371 -14.849   5.566  1.00  0.00     0.164 HD
HETATM   15  O   UNL     1      45.512 -11.281   8.027  1.00  0.00    -0.272 OA
BRANCH  12  16
HETATM   16  C   UNL     1      42.377 -15.289   5.094  1.00  0.00     0.162 C 
BRANCH  16  17
HETATM   17  C   UNL     1      42.947 -16.467   4.352  1.00  0.00    -0.040 A 
HETATM   18  C   UNL     1      42.581 -16.711   3.019  1.00  0.00     0.009 A 
HETATM   19  C   UNL     1      43.090 -17.817   2.336  1.00  0.00     0.001 A 
HETATM   20  C   UNL     1      43.966 -18.691   2.977  1.00  0.00     0.000 A 
HETATM   21  C   UNL     1      44.334 -18.461   4.302  1.00  0.00     0.001 A 
HETATM   22  C   UNL     1      43.826 -17.356   4.988  1.00  0.00     0.009 A 
ENDBRANCH  16  17
ENDBRANCH  12  16
ENDBRANCH   7   8
ENDBRANCH   6   7
ENDBRANCH   1   6
BRANCH   2  23
HETATM   23  C   UNL     1      40.940  -8.075  10.191  1.00  0.00     0.043 A 
HETATM   24  C   UNL     1      41.182  -6.707  10.373  1.00  0.00     0.032 A 
HETATM   25  C   UNL     1      40.269  -5.766   9.889  1.00  0.00     0.026 A 
HETATM   26  C   UNL     1      39.116  -6.189   9.233  1.00  0.00     0.034 A 
HETATM   27 CL   UNL     1      37.994  -5.033   8.639  1.00  0.00    -0.084 Cl
HETATM   28  C   UNL     1      38.864  -7.550   9.060  1.00  0.00     0.026 A 
HETATM   29  C   UNL     1      39.774  -8.497   9.538  1.00  0.00     0.032 A 
ENDBRANCH   2  23
BRANCH   3  30
HETATM   30  C   UNL     1      40.881  -9.448  12.999  1.00  0.00     0.315 C 
BRANCH  30  31
HETATM   31  N   UNL     1      41.089  -8.145  13.768  1.00  0.00    -0.064 N 
HETATM   32  H   UNL     1      41.788  -7.627  13.209  1.00  0.00     0.280 HD
HETATM   33  C   UNL     1      39.843  -7.287  13.789  1.00  0.00     0.235 C 
HETATM   34  C   UNL     1      40.154  -5.952  14.449  1.00  0.00     0.028 C 
HETATM   35  C   UNL     1      40.731  -6.140  15.847  1.00  0.00     0.003 C 
HETATM   36  C   UNL     1      41.954  -7.048  15.815  1.00  0.00     0.028 C 
HETATM   37  C   UNL     1      41.654  -8.380  15.142  1.00  0.00     0.235 C 
ENDBRANCH  30  31
ENDBRANCH   3  30
TORSDOF 8
ENDMDL
MODEL 9
REMARK VINA RESULT:      -8.1      4.655     10.918
REMARK  8 active torsions:
REMARK  status: ('A' for Active; 'I' for Inactive)
REMARK    1  A    between atoms: C_4  and  C_5 
REMARK    2  A    between atoms: C_5  and  N_6 
REMARK       I    between atoms: N_6  and  C_7 
REMARK       I    between atoms: C_7  and  N_8 
REMARK       I    between atoms: N_8  and  C_9 
REMARK    3  A    between atoms: C_9  and  C_10 
REMARK    4  A    between atoms: C_10  and  S_11 
REMARK    5  A    between atoms: S_11  and  C_12 
REMARK    6  A    between atoms: N_13  and  C_14 
REMARK    7  A    between atoms: C_21  and  C_22 
REMARK    8  A    between atoms: C_22  and  N_23 
ROOT
HETATM    1  C   UNL     1      41.303 -12.586   4.842  1.00  0.00     0.196 A 
HETATM    2  N   UNL     1      42.279 -13.208   5.600  1.00  0.00    -0.274 N 
HETATM    3  C   UNL     1      42.963 -12.152   6.190  1.00  0.00     0.161 A 
HETATM    4  N   UNL     1      42.446 -11.006   5.792  1.00  0.00    -0.132 NA
HETATM    5  N   UNL     1      41.401 -11.281   4.955  1.00  0.00    -0.122 NA
ENDROOT
BRANCH   1   6
HETATM    6  S   UNL     1      39.996 -13.415   4.064  1.00  0.00    -0.080 SA
BRANCH   6   7
HETATM    7  C   UNL     1      40.743 -13.828   2.457  1.00  0.00     0.185 C 
BRANCH   7   8
HETATM    8  C   UNL     1      39.994 -14.950   1.744  1.00  0.00     0.235 C 
HETATM    9  N   UNL     1      39.851 -14.875   0.374  1.00  0.00    -0.279 N 
HETATM   10  C   UNL     1      40.250 -13.875  -0.486  1.00  0.00     0.323 C 
HETATM   11  H   UNL     1      39.293 -15.618  -0.014  1.00  0.00     0.173 HD
HETATM   12  N   UNL     1      39.812 -14.095  -1.767  1.00  0.00    -0.339 N 
HETATM   13  O   UNL     1      40.899 -12.892  -0.159  1.00  0.00    -0.247 OA
HETATM   14  H   UNL     1      39.672 -15.048  -2.071  1.00  0.00     0.164 HD
HETATM   15  O   UNL     1      39.513 -15.931   2.320  1.00  0.00    -0.272 OA
BRANCH  12  16
HETATM   16  C   UNL     1      40.124 -13.140  -2.811  1.00  0.00     0.162 C 
BRANCH  16  17
HETATM   17  C   UNL     1      39.045 -12.096  -2.912  1.00  0.00    -0.040 A 
HETATM   18  C   UNL     1      39.372 -10.765  -3.215  1.00  0.00     0.009 A 
HETATM   19  C   UNL     1      38.377  -9.790  -3.286  1.00  0.00     0.001 A 
HETATM   20  C   UNL     1      37.046 -10.132  -3.051  1.00  0.00     0.000 A 
HETATM   21  C   UNL     1      36.710 -11.450  -2.744  1.00  0.00     0.001 A 
HETATM   22  C   UNL     1      37.705 -12.428  -2.673  1.00  0.00     0.009 A 
ENDBRANCH  16  17
ENDBRANCH  12  16
ENDBRANCH   7   8
ENDBRANCH   6   7
ENDBRANCH   1   6
BRANCH   2  23
HETATM   23  C   UNL     1      42.569 -14.590   5.722  1.00  0.00     0.043 A 
HETATM   24  C   UNL     1      42.164 -15.288   6.868  1.00  0.00     0.032 A 
HETATM   25  C   UNL     1      42.436 -16.654   6.986  1.00  0.00     0.026 A 
HETATM   26  C   UNL     1      43.118 -17.317   5.969  1.00  0.00     0.034 A 
HETATM   27 CL   UNL     1      43.453 -18.996   6.115  1.00  0.00    -0.084 Cl
HETATM   28  C   UNL     1      43.534 -16.625   4.833  1.00  0.00     0.026 A 
HETATM   29  C   UNL     1      43.262 -15.259   4.705  1.00  0.00     0.032 A 
ENDBRANCH   2  23
BRANCH   3  30
HETATM   30  C   UNL     1      44.201 -12.252   7.007  1.00  0.00     0.315 C 
BRANCH  30  31
HETATM   31  N   UNL     1      44.585 -10.907   7.618  1.00  0.00    -0.064 N 
HETATM   32  H   UNL     1      44.110 -10.210   7.020  1.00  0.00     0.280 HD
HETATM   33  C   UNL     1      44.020 -10.728   9.009  1.00  0.00     0.235 C 
HETATM   34  C   UNL     1      44.323  -9.322   9.506  1.00  0.00     0.028 C 
HETATM   35  C   UNL     1      45.816  -9.022   9.463  1.00  0.00     0.003 C 
HETATM   36  C   UNL     1      46.380  -9.258   8.066  1.00  0.00     0.028 C 
HETATM   37  C   UNL     1      46.067 -10.658   7.557  1.00  0.00     0.235 C 
ENDBRANCH  30  31
ENDBRANCH   3  30
TORSDOF 8
ENDMDL
MODEL 10
REMARK VINA RESULT:      -8.0      2.302      3.227
REMARK  8 active torsions:
REMARK  status: ('A' for Active; 'I' for Inactive)
REMARK    1  A    between atoms: C_4  and  C_5 
REMARK    2  A    between atoms: C_5  and  N_6 
REMARK       I    between atoms: N_6  and  C_7 
REMARK       I    between atoms: C_7  and  N_8 
REMARK       I    between atoms: N_8  and  C_9 
REMARK    3  A    between atoms: C_9  and  C_10 
REMARK    4  A    between atoms: C_10  and  S_11 
REMARK    5  A    between atoms: S_11  and  C_12 
REMARK    6  A    between atoms: N_13  and  C_14 
REMARK    7  A    between atoms: C_21  and  C_22 
REMARK    8  A    between atoms: C_22  and  N_23 
ROOT
HETATM    1  C   UNL     1      41.781 -11.766   5.062  1.00  0.00     0.196 A 
HETATM    2  N   UNL     1      41.140 -12.750   4.331  1.00  0.00    -0.274 N 
HETATM    3  C   UNL     1      41.320 -13.899   5.091  1.00  0.00     0.161 A 
HETATM    4  N   UNL     1      42.029 -13.616   6.167  1.00  0.00    -0.132 NA
HETATM    5  N   UNL     1      42.307 -12.278   6.151  1.00  0.00    -0.122 NA
ENDROOT
BRANCH   1   6
HETATM    6  S   UNL     1      41.682 -10.072   4.716  1.00  0.00    -0.080 SA
BRANCH   6   7
HETATM    7  C   UNL     1      40.107  -9.636   5.516  1.00  0.00     0.185 C 
BRANCH   7   8
HETATM    8  C   UNL     1      39.733 -10.615   6.625  1.00  0.00     0.235 C 
HETATM    9  N   UNL     1      40.287 -10.432   7.875  1.00  0.00    -0.279 N 
HETATM   10  C   UNL     1      41.207  -9.492   8.286  1.00  0.00     0.323 C 
HETATM   11  H   UNL     1      40.042 -11.153   8.533  1.00  0.00     0.173 HD
HETATM   12  N   UNL     1      41.622  -9.710   9.575  1.00  0.00    -0.339 N 
HETATM   13  O   UNL     1      41.631  -8.580   7.591  1.00  0.00    -0.247 OA
HETATM   14  H   UNL     1      40.985 -10.162  10.215  1.00  0.00     0.164 HD
HETATM   15  O   UNL     1      38.954 -11.562   6.473  1.00  0.00    -0.272 OA
BRANCH  12  16
HETATM   16  C   UNL     1      42.601  -8.830  10.177  1.00  0.00     0.162 C 
BRANCH  16  17
HETATM   17  C   UNL     1      42.373  -8.720  11.661  1.00  0.00    -0.040 A 
HETATM   18  C   UNL     1      43.135  -7.829  12.432  1.00  0.00     0.009 A 
HETATM   19  C   UNL     1      42.942  -7.743  13.811  1.00  0.00     0.001 A 
HETATM   20  C   UNL     1      41.990  -8.547  14.434  1.00  0.00     0.000 A 
HETATM   21  C   UNL     1      41.230  -9.439  13.679  1.00  0.00     0.001 A 
HETATM   22  C   UNL     1      41.422  -9.528  12.299  1.00  0.00     0.009 A 
ENDBRANCH  16  17
ENDBRANCH  12  16
ENDBRANCH   7   8
ENDBRANCH   6   7
ENDBRANCH   1   6
BRANCH   2  23
HETATM   23  C   UNL     1      40.492 -12.649   3.074  1.00  0.00     0.043 A 
HETATM   24  C   UNL     1      39.142 -12.276   3.014  1.00  0.00     0.032 A 
HETATM   25  C   UNL     1      38.504 -12.162   1.777  1.00  0.00     0.026 A 
HETATM   26  C   UNL     1      39.206 -12.428   0.604  1.00  0.00     0.034 A 
HETATM   27 CL   UNL     1      38.421 -12.288  -0.917  1.00  0.00    -0.084 Cl
HETATM   28  C   UNL     1      40.546 -12.812   0.659  1.00  0.00     0.026 A 
HETATM   29  C   UNL     1      41.193 -12.924   1.893  1.00  0.00     0.032 A 
ENDBRANCH   2  23
BRANCH   3  30
HETATM   30  C   UNL     1      40.943 -15.282   4.698  1.00  0.00     0.315 C 
BRANCH  30  31
HETATM   31  N   UNL     1      42.134 -16.053   4.134  1.00  0.00    -0.064 N 
HETATM   32  H   UNL     1      42.854 -15.330   3.973  1.00  0.00     0.280 HD
HETATM   33  C   UNL     1      42.721 -17.017   5.142  1.00  0.00     0.235 C 
HETATM   34  C   UNL     1      43.980 -17.651   4.569  1.00  0.00     0.028 C 
HETATM   35  C   UNL     1      43.704 -18.333   3.234  1.00  0.00     0.003 C 
HETATM   36  C   UNL     1      43.065 -17.363   2.247  1.00  0.00     0.028 C 
HETATM   37  C   UNL     1      41.814 -16.712   2.821  1.00  0.00     0.235 C 
ENDBRANCH  30  31
ENDBRANCH   3  30
TORSDOF 8
ENDMDL
