MODEL 1
REMARK VINA RESULT:      -8.1      0.000      0.000
REMARK  3 active torsions:
REMARK  status: ('A' for Active; 'I' for Inactive)
REMARK    1  A    between atoms: C_2  and  C_3 
REMARK    2  A    between atoms: C_8  and  C_9 
REMARK    3  A    between atoms: C_9  and  N_10 
ROOT
HETATM    1  C   UNL     1      43.289 -17.947   2.980  1.00  0.00     0.096 A 
HETATM    2  N   UNL     1      43.136 -19.054   2.240  1.00  0.00    -0.174 NA
HETATM    3  N   UNL     1      43.678 -20.040   2.956  1.00  0.00    -0.288 N 
HETATM    4  H   UNL     1      43.623 -20.987   2.587  1.00  0.00     0.188 HD
HETATM    5  C   UNL     1      44.254 -19.605   4.113  1.00  0.00     0.120 A 
HETATM    6  C   UNL     1      44.042 -18.238   4.165  1.00  0.00     0.016 A 
ENDROOT
BRANCH   6   7
HETATM    7  C   UNL     1      44.479 -17.292   5.226  1.00  0.00     0.277 C 
BRANCH   7   8
HETATM    8  N   UNL     1      43.721 -17.436   6.528  1.00  0.00    -0.067 N 
HETATM    9  H   UNL     1      44.119 -18.288   6.940  1.00  0.00     0.280 HD
HETATM   10  C   UNL     1      43.975 -16.355   7.551  1.00  0.00     0.242 C 
HETATM   11  C   UNL     1      43.157 -15.079   7.323  1.00  0.00     0.041 C 
HETATM   12  C   UNL     1      41.699 -15.379   6.967  1.00  0.00     0.128 C 
HETATM   13  C   UNL     1      43.820 -14.046   6.395  1.00  0.00     0.011 C 
HETATM   14  O   UNL     1      41.011 -14.190   6.617  1.00  0.00    -0.385 OA
HETATM   15  C   UNL     1      41.502 -16.487   5.936  1.00  0.00     0.060 C 
HETATM   16  C   UNL     1      41.517 -13.436   5.520  1.00  0.00     0.168 C 
HETATM   17  C   UNL     1      42.982 -13.676   5.183  1.00  0.00     0.027 C 
HETATM   18  C   UNL     1      42.256 -17.734   6.346  1.00  0.00     0.237 C 
ENDBRANCH   7   8
ENDBRANCH   6   7
BRANCH   1  19
HETATM   19  C   UNL     1      42.749 -16.669   2.511  1.00  0.00    -0.002 A 
HETATM   20  C   UNL     1      43.606 -15.717   1.936  1.00  0.00     0.017 A 
HETATM   21  C   UNL     1      43.116 -14.480   1.508  1.00  0.00     0.040 A 
HETATM   22  C   UNL     1      41.764 -14.183   1.655  1.00  0.00     0.102 A 
HETATM   23  C   UNL     1      40.905 -15.119   2.235  1.00  0.00     0.103 A 
HETATM   24  O   UNL     1      41.347 -12.957   1.211  1.00  0.00    -0.346 OA
HETATM   25  C   UNL     1      41.386 -16.368   2.626  1.00  0.00     0.053 A 
HETATM   26  O   UNL     1      39.571 -14.882   2.456  1.00  0.00    -0.346 OA
HETATM   27  C   UNL     1      39.252 -13.490   2.307  1.00  0.00     0.202 C 
HETATM   28  C   UNL     1      39.921 -12.909   1.072  1.00  0.00     0.202 C 
ENDBRANCH   1  19
TORSDOF 3
ENDMDL
MODEL 2
REMARK VINA RESULT:      -7.8      3.954      6.836
REMARK  3 active torsions:
REMARK  status: ('A' for Active; 'I' for Inactive)
REMARK    1  A    between atoms: C_2  and  C_3 
REMARK    2  A    between atoms: C_8  and  C_9 
REMARK    3  A    between atoms: C_9  and  N_10 
ROOT
HETATM    1  C   UNL     1      42.681 -11.080   4.408  1.00  0.00     0.096 A 
HETATM    2  N   UNL     1      42.143  -9.983   3.858  1.00  0.00    -0.174 NA
HETATM    3  N   UNL     1      41.482 -10.410   2.781  1.00  0.00    -0.288 N 
HETATM    4  H   UNL     1      40.954  -9.729   2.240  1.00  0.00     0.188 HD
HETATM    5  C   UNL     1      41.633 -11.748   2.558  1.00  0.00     0.120 A 
HETATM    6  C   UNL     1      42.426 -12.228   3.586  1.00  0.00     0.016 A 
ENDROOT
BRANCH   6   7
HETATM    7  C   UNL     1      42.887 -13.625   3.799  1.00  0.00     0.277 C 
BRANCH   7   8
HETATM    8  N   UNL     1      42.277 -14.296   5.012  1.00  0.00    -0.067 N 
HETATM    9  H   UNL     1      41.808 -13.523   5.498  1.00  0.00     0.280 HD
HETATM   10  C   UNL     1      41.183 -15.295   4.722  1.00  0.00     0.242 C 
HETATM   11  C   UNL     1      41.698 -16.683   4.328  1.00  0.00     0.041 C 
HETATM   12  C   UNL     1      42.854 -17.149   5.216  1.00  0.00     0.128 C 
HETATM   13  C   UNL     1      41.960 -16.870   2.824  1.00  0.00     0.011 C 
HETATM   14  O   UNL     1      43.403 -18.363   4.735  1.00  0.00    -0.385 OA
HETATM   15  C   UNL     1      43.925 -16.095   5.484  1.00  0.00     0.060 C 
HETATM   16  C   UNL     1      43.924 -18.370   3.409  1.00  0.00     0.168 C 
HETATM   17  C   UNL     1      43.385 -17.281   2.491  1.00  0.00     0.027 C 
HETATM   18  C   UNL     1      43.296 -14.815   5.993  1.00  0.00     0.237 C 
ENDBRANCH   7   8
ENDBRANCH   6   7
BRANCH   1  19
HETATM   19  C   UNL     1      43.439 -10.981   5.657  1.00  0.00    -0.002 A 
HETATM   20  C   UNL     1      44.764 -11.442   5.709  1.00  0.00     0.017 A 
HETATM   21  C   UNL     1      45.496 -11.382   6.899  1.00  0.00     0.040 A 
HETATM   22  C   UNL     1      44.906 -10.863   8.048  1.00  0.00     0.102 A 
HETATM   23  C   UNL     1      43.586 -10.410   8.009  1.00  0.00     0.103 A 
HETATM   24  O   UNL     1      45.678 -10.827   9.178  1.00  0.00    -0.346 OA
HETATM   25  C   UNL     1      42.868 -10.434   6.814  1.00  0.00     0.053 A 
HETATM   26  O   UNL     1      42.921  -9.929   9.109  1.00  0.00    -0.346 OA
HETATM   27  C   UNL     1      43.627 -10.229  10.323  1.00  0.00     0.202 C 
HETATM   28  C   UNL     1      45.114  -9.957  10.168  1.00  0.00     0.202 C 
ENDBRANCH   1  19
TORSDOF 3
ENDMDL
MODEL 3
REMARK VINA RESULT:      -7.6      3.945      6.725
REMARK  3 active torsions:
REMARK  status: ('A' for Active; 'I' for Inactive)
REMARK    1  A    between atoms: C_2  and  C_3 
REMARK    2  A    between atoms: C_8  and  C_9 
REMARK    3  A    between atoms: C_9  and  N_10 
ROOT
HETATM    1  C   UNL     1      42.514 -10.804   4.324  1.00  0.00     0.096 A 
HETATM    2  N   UNL     1      42.079  -9.639   3.826  1.00  0.00    -0.174 NA
HETATM    3  N   UNL     1      41.409  -9.953   2.716  1.00  0.00    -0.288 N 
HETATM    4  H   UNL     1      40.951  -9.202   2.203  1.00  0.00     0.188 HD
HETATM    5  C   UNL     1      41.455 -11.284   2.423  1.00  0.00     0.120 A 
HETATM    6  C   UNL     1      42.184 -11.882   3.436  1.00  0.00     0.016 A 
ENDROOT
BRANCH   6   7
HETATM    7  C   UNL     1      42.525 -13.322   3.581  1.00  0.00     0.277 C 
BRANCH   7   8
HETATM    8  N   UNL     1      41.320 -14.229   3.714  1.00  0.00    -0.067 N 
HETATM    9  H   UNL     1      40.800 -14.059   2.845  1.00  0.00     0.280 HD
HETATM   10  C   UNL     1      41.616 -15.709   3.709  1.00  0.00     0.242 C 
HETATM   11  C   UNL     1      42.064 -16.258   5.068  1.00  0.00     0.041 C 
HETATM   12  C   UNL     1      41.217 -15.717   6.221  1.00  0.00     0.128 C 
HETATM   13  C   UNL     1      43.579 -16.183   5.325  1.00  0.00     0.011 C 
HETATM   14  O   UNL     1      41.748 -16.123   7.471  1.00  0.00    -0.385 OA
HETATM   15  C   UNL     1      40.941 -14.217   6.170  1.00  0.00     0.060 C 
HETATM   16  C   UNL     1      43.085 -15.737   7.775  1.00  0.00     0.168 C 
HETATM   17  C   UNL     1      43.956 -15.401   6.572  1.00  0.00     0.027 C 
HETATM   18  C   UNL     1      40.379 -13.826   4.819  1.00  0.00     0.237 C 
ENDBRANCH   7   8
ENDBRANCH   6   7
BRANCH   1  19
HETATM   19  C   UNL     1      43.250 -10.834   5.590  1.00  0.00    -0.002 A 
HETATM   20  C   UNL     1      44.483 -11.501   5.666  1.00  0.00     0.017 A 
HETATM   21  C   UNL     1      45.188 -11.565   6.871  1.00  0.00     0.040 A 
HETATM   22  C   UNL     1      44.664 -10.964   8.012  1.00  0.00     0.102 A 
HETATM   23  C   UNL     1      43.433 -10.307   7.950  1.00  0.00     0.103 A 
HETATM   24  O   UNL     1      45.405 -11.059   9.159  1.00  0.00    -0.346 OA
HETATM   25  C   UNL     1      42.748 -10.210   6.739  1.00  0.00     0.053 A 
HETATM   26  O   UNL     1      42.829  -9.733   9.039  1.00  0.00    -0.346 OA
HETATM   27  C   UNL     1      43.451 -10.148  10.265  1.00  0.00     0.202 C 
HETATM   28  C   UNL     1      44.966 -10.115  10.144  1.00  0.00     0.202 C 
ENDBRANCH   1  19
TORSDOF 3
ENDMDL
MODEL 4
REMARK VINA RESULT:      -7.5      2.815      6.271
REMARK  3 active torsions:
REMARK  status: ('A' for Active; 'I' for Inactive)
REMARK    1  A    between atoms: C_2  and  C_3 
REMARK    2  A    between atoms: C_8  and  C_9 
REMARK    3  A    between atoms: C_9  and  N_10 
ROOT
HETATM    1  C   UNL     1      43.145 -14.028   6.384  1.00  0.00     0.096 A 
HETATM    2  N   UNL     1      43.943 -13.429   7.277  1.00  0.00    -0.174 NA
HETATM    3  N   UNL     1      43.497 -12.176   7.372  1.00  0.00    -0.288 N 
HETATM    4  H   UNL     1      43.944 -11.556   8.044  1.00  0.00     0.188 HD
HETATM    5  C   UNL     1      42.476 -11.906   6.508  1.00  0.00     0.120 A 
HETATM    6  C   UNL     1      42.221 -13.083   5.825  1.00  0.00     0.016 A 
ENDROOT
BRANCH   6   7
HETATM    7  C   UNL     1      41.203 -13.316   4.767  1.00  0.00     0.277 C 
BRANCH   7   8
HETATM    8  N   UNL     1      41.115 -12.205   3.743  1.00  0.00    -0.067 N 
HETATM    9  H   UNL     1      41.395 -11.372   4.274  1.00  0.00     0.280 HD
HETATM   10  C   UNL     1      42.102 -12.291   2.604  1.00  0.00     0.242 C 
HETATM   11  C   UNL     1      41.670 -13.238   1.478  1.00  0.00     0.041 C 
HETATM   12  C   UNL     1      40.194 -13.074   1.114  1.00  0.00     0.128 C 
HETATM   13  C   UNL     1      42.102 -14.702   1.668  1.00  0.00     0.011 C 
HETATM   14  O   UNL     1      39.791 -14.061   0.180  1.00  0.00    -0.385 OA
HETATM   15  C   UNL     1      39.243 -12.982   2.305  1.00  0.00     0.060 C 
HETATM   16  C   UNL     1      39.933 -15.425   0.563  1.00  0.00     0.168 C 
HETATM   17  C   UNL     1      40.948 -15.691   1.667  1.00  0.00     0.027 C 
HETATM   18  C   UNL     1      39.711 -11.920   3.278  1.00  0.00     0.237 C 
ENDBRANCH   7   8
ENDBRANCH   6   7
BRANCH   1  19
HETATM   19  C   UNL     1      43.321 -15.450   6.077  1.00  0.00    -0.002 A 
HETATM   20  C   UNL     1      43.425 -16.382   7.121  1.00  0.00     0.017 A 
HETATM   21  C   UNL     1      43.622 -17.740   6.850  1.00  0.00     0.040 A 
HETATM   22  C   UNL     1      43.719 -18.175   5.531  1.00  0.00     0.102 A 
HETATM   23  C   UNL     1      43.627 -17.254   4.486  1.00  0.00     0.103 A 
HETATM   24  O   UNL     1      43.906 -19.516   5.334  1.00  0.00    -0.346 OA
HETATM   25  C   UNL     1      43.392 -15.905   4.754  1.00  0.00     0.053 A 
HETATM   26  O   UNL     1      43.759 -17.598   3.164  1.00  0.00    -0.346 OA
HETATM   27  C   UNL     1      44.294 -18.922   3.016  1.00  0.00     0.202 C 
HETATM   28  C   UNL     1      43.624 -19.889   3.979  1.00  0.00     0.202 C 
ENDBRANCH   1  19
TORSDOF 3
ENDMDL
MODEL 5
REMARK VINA RESULT:      -7.5      3.086      6.903
REMARK  3 active torsions:
REMARK  status: ('A' for Active; 'I' for Inactive)
REMARK    1  A    between atoms: C_2  and  C_3 
REMARK    2  A    between atoms: C_8  and  C_9 
REMARK    3  A    between atoms: C_9  and  N_10 
ROOT
HETATM    1  C   UNL     1      42.859 -14.245   3.829  1.00  0.00     0.096 A 
HETATM    2  N   UNL     1      43.210 -13.542   4.913  1.00  0.00    -0.174 NA
HETATM    3  N   UNL     1      42.780 -12.299   4.689  1.00  0.00    -0.288 N 
HETATM    4  H   UNL     1      42.907 -11.606   5.424  1.00  0.00     0.188 HD
HETATM    5  C   UNL     1      42.222 -12.143   3.454  1.00  0.00     0.120 A 
HETATM    6  C   UNL     1      42.269 -13.385   2.844  1.00  0.00     0.016 A 
ENDROOT
BRANCH   6   7
HETATM    7  C   UNL     1      41.790 -13.746   1.483  1.00  0.00     0.277 C 
BRANCH   7   8
HETATM    8  N   UNL     1      40.298 -13.983   1.399  1.00  0.00    -0.067 N 
HETATM    9  H   UNL     1      40.062 -14.336   2.334  1.00  0.00     0.280 HD
HETATM   10  C   UNL     1      39.451 -12.745   1.224  1.00  0.00     0.242 C 
HETATM   11  C   UNL     1      39.361 -12.255  -0.225  1.00  0.00     0.041 C 
HETATM   12  C   UNL     1      39.140 -13.399  -1.215  1.00  0.00     0.128 C 
HETATM   13  C   UNL     1      40.475 -11.280  -0.644  1.00  0.00     0.011 C 
HETATM   14  O   UNL     1      39.211 -12.933  -2.551  1.00  0.00    -0.385 OA
HETATM   15  C   UNL     1      40.016 -14.628  -0.984  1.00  0.00     0.060 C 
HETATM   16  C   UNL     1      40.422 -12.307  -2.965  1.00  0.00     0.168 C 
HETATM   17  C   UNL     1      41.285 -11.746  -1.843  1.00  0.00     0.027 C 
HETATM   18  C   UNL     1      39.913 -15.092   0.454  1.00  0.00     0.237 C 
ENDBRANCH   7   8
ENDBRANCH   6   7
BRANCH   1  19
HETATM   19  C   UNL     1      43.133 -15.683   3.764  1.00  0.00    -0.002 A 
HETATM   20  C   UNL     1      43.158 -16.334   2.520  1.00  0.00     0.017 A 
HETATM   21  C   UNL     1      43.390 -17.710   2.438  1.00  0.00     0.040 A 
HETATM   22  C   UNL     1      43.596 -18.447   3.601  1.00  0.00     0.102 A 
HETATM   23  C   UNL     1      43.563 -17.811   4.843  1.00  0.00     0.103 A 
HETATM   24  O   UNL     1      43.823 -19.788   3.451  1.00  0.00    -0.346 OA
HETATM   25  C   UNL     1      43.370 -16.432   4.923  1.00  0.00     0.053 A 
HETATM   26  O   UNL     1      43.710 -18.476   6.034  1.00  0.00    -0.346 OA
HETATM   27  C   UNL     1      43.595 -19.896   5.862  1.00  0.00     0.202 C 
HETATM   28  C   UNL     1      44.376 -20.360   4.643  1.00  0.00     0.202 C 
ENDBRANCH   1  19
TORSDOF 3
ENDMDL
MODEL 6
REMARK VINA RESULT:      -7.5      3.304      5.163
REMARK  3 active torsions:
REMARK  status: ('A' for Active; 'I' for Inactive)
REMARK    1  A    between atoms: C_2  and  C_3 
REMARK    2  A    between atoms: C_8  and  C_9 
REMARK    3  A    between atoms: C_9  and  N_10 
ROOT
HETATM    1  C   UNL     1      41.778 -11.902   2.371  1.00  0.00     0.096 A 
HETATM    2  N   UNL     1      41.622 -10.575   2.460  1.00  0.00    -0.174 NA
HETATM    3  N   UNL     1      42.429 -10.185   3.447  1.00  0.00    -0.288 N 
HETATM    4  H   UNL     1      42.495  -9.189   3.648  1.00  0.00     0.188 HD
HETATM    5  C   UNL     1      43.057 -11.225   4.066  1.00  0.00     0.120 A 
HETATM    6  C   UNL     1      42.648 -12.374   3.410  1.00  0.00     0.016 A 
ENDROOT
BRANCH   6   7
HETATM    7  C   UNL     1      43.044 -13.776   3.705  1.00  0.00     0.277 C 
BRANCH   7   8
HETATM    8  N   UNL     1      42.435 -14.333   4.974  1.00  0.00    -0.067 N 
HETATM    9  H   UNL     1      41.971 -13.518   5.391  1.00  0.00     0.280 HD
HETATM   10  C   UNL     1      41.336 -15.349   4.777  1.00  0.00     0.242 C 
HETATM   11  C   UNL     1      41.844 -16.769   4.507  1.00  0.00     0.041 C 
HETATM   12  C   UNL     1      42.999 -17.159   5.430  1.00  0.00     0.128 C 
HETATM   13  C   UNL     1      42.100 -17.091   3.025  1.00  0.00     0.011 C 
HETATM   14  O   UNL     1      43.542 -18.415   5.057  1.00  0.00    -0.385 OA
HETATM   15  C   UNL     1      44.077 -16.091   5.600  1.00  0.00     0.060 C 
HETATM   16  C   UNL     1      44.058 -18.541   3.736  1.00  0.00     0.168 C 
HETATM   17  C   UNL     1      43.522 -17.536   2.726  1.00  0.00     0.027 C 
HETATM   18  C   UNL     1      43.455 -14.768   5.994  1.00  0.00     0.237 C 
ENDBRANCH   7   8
ENDBRANCH   6   7
BRANCH   1  19
HETATM   19  C   UNL     1      41.070 -12.659   1.336  1.00  0.00    -0.002 A 
HETATM   20  C   UNL     1      40.783 -14.019   1.538  1.00  0.00     0.017 A 
HETATM   21  C   UNL     1      40.133 -14.766   0.551  1.00  0.00     0.040 A 
HETATM   22  C   UNL     1      39.768 -14.160  -0.647  1.00  0.00     0.102 A 
HETATM   23  C   UNL     1      40.058 -12.811  -0.862  1.00  0.00     0.103 A 
HETATM   24  O   UNL     1      39.130 -14.945  -1.569  1.00  0.00    -0.346 OA
HETATM   25  C   UNL     1      40.671 -12.055   0.137  1.00  0.00     0.053 A 
HETATM   26  O   UNL     1      39.772 -12.156  -2.033  1.00  0.00    -0.346 OA
HETATM   27  C   UNL     1      39.434 -13.076  -3.082  1.00  0.00     0.202 C 
HETATM   28  C   UNL     1      38.487 -14.152  -2.575  1.00  0.00     0.202 C 
ENDBRANCH   1  19
TORSDOF 3
ENDMDL
MODEL 7
REMARK VINA RESULT:      -7.5      2.693      5.993
REMARK  3 active torsions:
REMARK  status: ('A' for Active; 'I' for Inactive)
REMARK    1  A    between atoms: C_2  and  C_3 
REMARK    2  A    between atoms: C_8  and  C_9 
REMARK    3  A    between atoms: C_9  and  N_10 
ROOT
HETATM    1  C   UNL     1      43.046 -15.163   5.342  1.00  0.00     0.096 A 
HETATM    2  N   UNL     1      43.949 -15.011   6.320  1.00  0.00    -0.174 NA
HETATM    3  N   UNL     1      43.576 -13.918   6.986  1.00  0.00    -0.288 N 
HETATM    4  H   UNL     1      44.112 -13.651   7.810  1.00  0.00     0.188 HD
HETATM    5  C   UNL     1      42.496 -13.297   6.430  1.00  0.00     0.120 A 
HETATM    6  C   UNL     1      42.124 -14.063   5.339  1.00  0.00     0.016 A 
ENDROOT
BRANCH   6   7
HETATM    7  C   UNL     1      41.004 -13.812   4.394  1.00  0.00     0.277 C 
BRANCH   7   8
HETATM    8  N   UNL     1      40.817 -12.352   4.037  1.00  0.00    -0.067 N 
HETATM    9  H   UNL     1      41.113 -11.861   4.889  1.00  0.00     0.280 HD
HETATM   10  C   UNL     1      41.722 -11.827   2.949  1.00  0.00     0.242 C 
HETATM   11  C   UNL     1      41.234 -12.141   1.531  1.00  0.00     0.041 C 
HETATM   12  C   UNL     1      39.732 -11.905   1.366  1.00  0.00     0.128 C 
HETATM   13  C   UNL     1      41.714 -13.491   0.969  1.00  0.00     0.011 C 
HETATM   14  O   UNL     1      39.288 -12.344   0.094  1.00  0.00    -0.385 OA
HETATM   15  C   UNL     1      38.866 -12.448   2.500  1.00  0.00     0.060 C 
HETATM   16  C   UNL     1      39.490 -13.715  -0.236  1.00  0.00     0.168 C 
HETATM   17  C   UNL     1      40.587 -14.421   0.550  1.00  0.00     0.027 C 
HETATM   18  C   UNL     1      39.377 -11.958   3.839  1.00  0.00     0.237 C 
ENDBRANCH   7   8
ENDBRANCH   6   7
BRANCH   1  19
HETATM   19  C   UNL     1      43.123 -16.314   4.441  1.00  0.00    -0.002 A 
HETATM   20  C   UNL     1      42.611 -16.217   3.137  1.00  0.00     0.017 A 
HETATM   21  C   UNL     1      42.649 -17.313   2.270  1.00  0.00     0.040 A 
HETATM   22  C   UNL     1      43.198 -18.517   2.702  1.00  0.00     0.102 A 
HETATM   23  C   UNL     1      43.700 -18.628   4.000  1.00  0.00     0.103 A 
HETATM   24  O   UNL     1      43.210 -19.550   1.803  1.00  0.00    -0.346 OA
HETATM   25  C   UNL     1      43.697 -17.524   4.852  1.00  0.00     0.053 A 
HETATM   26  O   UNL     1      44.212 -19.792   4.513  1.00  0.00    -0.346 OA
HETATM   27  C   UNL     1      43.892 -20.919   3.683  1.00  0.00     0.202 C 
HETATM   28  C   UNL     1      44.106 -20.590   2.215  1.00  0.00     0.202 C 
ENDBRANCH   1  19
TORSDOF 3
ENDMDL
MODEL 8
REMARK VINA RESULT:      -7.4      3.144      5.620
REMARK  3 active torsions:
REMARK  status: ('A' for Active; 'I' for Inactive)
REMARK    1  A    between atoms: C_2  and  C_3 
REMARK    2  A    between atoms: C_8  and  C_9 
REMARK    3  A    between atoms: C_9  and  N_10 
ROOT
HETATM    1  C   UNL     1      40.716 -15.010   1.865  1.00  0.00     0.096 A 
HETATM    2  N   UNL     1      39.948 -15.582   0.928  1.00  0.00    -0.174 NA
HETATM    3  N   UNL     1      39.589 -14.594   0.108  1.00  0.00    -0.288 N 
HETATM    4  H   UNL     1      39.032 -14.828  -0.712  1.00  0.00     0.188 HD
HETATM    5  C   UNL     1      40.033 -13.371   0.518  1.00  0.00     0.120 A 
HETATM    6  C   UNL     1      40.760 -13.589   1.676  1.00  0.00     0.016 A 
ENDROOT
BRANCH   6   7
HETATM    7  C   UNL     1      41.450 -12.575   2.517  1.00  0.00     0.277 C 
BRANCH   7   8
HETATM    8  N   UNL     1      40.511 -11.677   3.293  1.00  0.00    -0.067 N 
HETATM    9  H   UNL     1      39.640 -11.722   2.750  1.00  0.00     0.280 HD
HETATM   10  C   UNL     1      40.136 -12.162   4.672  1.00  0.00     0.242 C 
HETATM   11  C   UNL     1      41.181 -11.842   5.747  1.00  0.00     0.041 C 
HETATM   12  C   UNL     1      41.719 -10.415   5.629  1.00  0.00     0.128 C 
HETATM   13  C   UNL     1      42.280 -12.906   5.915  1.00  0.00     0.011 C 
HETATM   14  O   UNL     1      42.785 -10.200   6.538  1.00  0.00    -0.385 OA
HETATM   15  C   UNL     1      42.071  -9.974   4.211  1.00  0.00     0.060 C 
HETATM   16  C   UNL     1      43.928 -11.043   6.422  1.00  0.00     0.168 C 
HETATM   17  C   UNL     1      43.689 -12.373   5.721  1.00  0.00     0.027 C 
HETATM   18  C   UNL     1      40.908 -10.224   3.273  1.00  0.00     0.237 C 
ENDBRANCH   7   8
ENDBRANCH   6   7
BRANCH   1  19
HETATM   19  C   UNL     1      41.336 -15.829   2.910  1.00  0.00    -0.002 A 
HETATM   20  C   UNL     1      40.904 -15.709   4.240  1.00  0.00     0.017 A 
HETATM   21  C   UNL     1      41.501 -16.461   5.256  1.00  0.00     0.040 A 
HETATM   22  C   UNL     1      42.538 -17.337   4.950  1.00  0.00     0.102 A 
HETATM   23  C   UNL     1      42.982 -17.456   3.631  1.00  0.00     0.103 A 
HETATM   24  O   UNL     1      43.076 -18.048   5.989  1.00  0.00    -0.346 OA
HETATM   25  C   UNL     1      42.361 -16.736   2.611  1.00  0.00     0.053 A 
HETATM   26  O   UNL     1      44.028 -18.262   3.258  1.00  0.00    -0.346 OA
HETATM   27  C   UNL     1      44.779 -18.710   4.397  1.00  0.00     0.202 C 
HETATM   28  C   UNL     1      43.853 -19.156   5.517  1.00  0.00     0.202 C 
ENDBRANCH   1  19
TORSDOF 3
ENDMDL
MODEL 9
REMARK VINA RESULT:      -7.3      5.020      8.273
REMARK  3 active torsions:
REMARK  status: ('A' for Active; 'I' for Inactive)
REMARK    1  A    between atoms: C_2  and  C_3 
REMARK    2  A    between atoms: C_8  and  C_9 
REMARK    3  A    between atoms: C_9  and  N_10 
ROOT
HETATM    1  C   UNL     1      44.689 -10.487   8.136  1.00  0.00     0.096 A 
HETATM    2  N   UNL     1      45.867  -9.851   8.187  1.00  0.00    -0.174 NA
HETATM    3  N   UNL     1      46.594 -10.364   7.194  1.00  0.00    -0.288 N 
HETATM    4  H   UNL     1      47.521  -9.978   7.027  1.00  0.00     0.188 HD
HETATM    5  C   UNL     1      45.960 -11.377   6.536  1.00  0.00     0.120 A 
HETATM    6  C   UNL     1      44.716 -11.509   7.130  1.00  0.00     0.016 A 
ENDROOT
BRANCH   6   7
HETATM    7  C   UNL     1      43.643 -12.478   6.782  1.00  0.00     0.277 C 
BRANCH   7   8
HETATM    8  N   UNL     1      42.812 -12.071   5.583  1.00  0.00    -0.067 N 
HETATM    9  H   UNL     1      43.107 -11.103   5.410  1.00  0.00     0.280 HD
HETATM   10  C   UNL     1      43.118 -12.807   4.300  1.00  0.00     0.242 C 
HETATM   11  C   UNL     1      42.436 -14.175   4.192  1.00  0.00     0.041 C 
HETATM   12  C   UNL     1      40.976 -14.135   4.646  1.00  0.00     0.128 C 
HETATM   13  C   UNL     1      43.238 -15.343   4.791  1.00  0.00     0.011 C 
HETATM   14  O   UNL     1      40.420 -15.439   4.675  1.00  0.00    -0.385 OA
HETATM   15  C   UNL     1      40.724 -13.370   5.942  1.00  0.00     0.060 C 
HETATM   16  C   UNL     1      41.048 -16.402   5.516  1.00  0.00     0.168 C 
HETATM   17  C   UNL     1      42.499 -16.109   5.875  1.00  0.00     0.027 C 
HETATM   18  C   UNL     1      41.336 -11.986   5.870  1.00  0.00     0.237 C 
ENDBRANCH   7   8
ENDBRANCH   6   7
BRANCH   1  19
HETATM   19  C   UNL     1      43.616 -10.124   9.065  1.00  0.00    -0.002 A 
HETATM   20  C   UNL     1      42.471  -9.467   8.586  1.00  0.00     0.017 A 
HETATM   21  C   UNL     1      41.448  -9.087   9.460  1.00  0.00     0.040 A 
HETATM   22  C   UNL     1      41.564  -9.357  10.820  1.00  0.00     0.102 A 
HETATM   23  C   UNL     1      42.704 -10.000  11.308  1.00  0.00     0.103 A 
HETATM   24  O   UNL     1      40.526  -8.963  11.621  1.00  0.00    -0.346 OA
HETATM   25  C   UNL     1      43.707 -10.415  10.432  1.00  0.00     0.053 A 
HETATM   26  O   UNL     1      42.912 -10.259  12.639  1.00  0.00    -0.346 OA
HETATM   27  C   UNL     1      41.990  -9.534  13.466  1.00  0.00     0.202 C 
HETATM   28  C   UNL     1      40.581  -9.606  12.901  1.00  0.00     0.202 C 
ENDBRANCH   1  19
TORSDOF 3
ENDMDL
MODEL 10
REMARK VINA RESULT:      -7.3      3.215      5.581
REMARK  3 active torsions:
REMARK  status: ('A' for Active; 'I' for Inactive)
REMARK    1  A    between atoms: C_2  and  C_3 
REMARK    2  A    between atoms: C_8  and  C_9 
REMARK    3  A    between atoms: C_9  and  N_10 
ROOT
HETATM    1  C   UNL     1      40.442 -14.213   1.244  1.00  0.00     0.096 A 
HETATM    2  N   UNL     1      40.004 -14.638   0.052  1.00  0.00    -0.174 NA
HETATM    3  N   UNL     1      39.203 -13.672  -0.401  1.00  0.00    -0.288 N 
HETATM    4  H   UNL     1      38.798 -13.779  -1.328  1.00  0.00     0.188 HD
HETATM    5  C   UNL     1      39.038 -12.654   0.492  1.00  0.00     0.120 A 
HETATM    6  C   UNL     1      39.814 -12.971   1.594  1.00  0.00     0.016 A 
ENDROOT
BRANCH   6   7
HETATM    7  C   UNL     1      39.975 -12.185   2.846  1.00  0.00     0.277 C 
BRANCH   7   8
HETATM    8  N   UNL     1      40.868 -10.971   2.699  1.00  0.00    -0.067 N 
HETATM    9  H   UNL     1      40.385 -10.408   1.989  1.00  0.00     0.280 HD
HETATM   10  C   UNL     1      40.955 -10.077   3.912  1.00  0.00     0.242 C 
HETATM   11  C   UNL     1      41.949 -10.565   4.972  1.00  0.00     0.041 C 
HETATM   12  C   UNL     1      43.266 -11.043   4.359  1.00  0.00     0.128 C 
HETATM   13  C   UNL     1      41.359 -11.537   6.009  1.00  0.00     0.011 C 
HETATM   14  O   UNL     1      44.101 -11.624   5.347  1.00  0.00    -0.385 OA
HETATM   15  C   UNL     1      43.118 -11.935   3.130  1.00  0.00     0.060 C 
HETATM   16  C   UNL     1      43.591 -12.745   6.062  1.00  0.00     0.168 C 
HETATM   17  C   UNL     1      42.074 -12.876   6.076  1.00  0.00     0.027 C 
HETATM   18  C   UNL     1      42.217 -11.280   2.103  1.00  0.00     0.237 C 
ENDBRANCH   7   8
ENDBRANCH   6   7
BRANCH   1  19
HETATM   19  C   UNL     1      41.400 -15.017   2.006  1.00  0.00    -0.002 A 
HETATM   20  C   UNL     1      42.506 -15.588   1.356  1.00  0.00     0.017 A 
HETATM   21  C   UNL     1      43.417 -16.382   2.059  1.00  0.00     0.040 A 
HETATM   22  C   UNL     1      43.226 -16.615   3.418  1.00  0.00     0.102 A 
HETATM   23  C   UNL     1      42.123 -16.062   4.071  1.00  0.00     0.103 A 
HETATM   24  O   UNL     1      44.155 -17.397   4.049  1.00  0.00    -0.346 OA
HETATM   25  C   UNL     1      41.236 -15.237   3.379  1.00  0.00     0.053 A 
HETATM   26  O   UNL     1      41.841 -16.284   5.396  1.00  0.00    -0.346 OA
HETATM   27  C   UNL     1      42.621 -17.367   5.925  1.00  0.00     0.202 C 
HETATM   28  C   UNL     1      44.069 -17.265   5.474  1.00  0.00     0.202 C 
ENDBRANCH   1  19
TORSDOF 3
ENDMDL
