MODEL 1
REMARK VINA RESULT:      -7.5      0.000      0.000
REMARK  10 active torsions:
REMARK  status: ('A' for Active; 'I' for Inactive)
REMARK    1  A    between atoms: C_2  and  C_3 
REMARK    2  A    between atoms: C_3  and  C_4 
REMARK    3  A    between atoms: C_4  and  N_5 
REMARK    4  A    between atoms: N_5  and  C_7 
REMARK    5  A    between atoms: C_7  and  C_8 
REMARK    6  A    between atoms: C_8  and  C_9 
REMARK    7  A    between atoms: C_9  and  N_10 
REMARK       I    between atoms: N_10  and  C_11 
REMARK    8  A    between atoms: C_11  and  C_12 
REMARK    9  A    between atoms: C_12  and  O_13 
REMARK   10  A    between atoms: N_14  and  C_15 
ROOT
HETATM    1  C   UNL     1      42.840 -16.091   3.275  1.00  0.00     0.256 C 
HETATM    2  N   UNL     1      43.004 -15.453   4.598  1.00  0.00    -0.254 N 
HETATM    3  C   UNL     1      43.797 -16.045   5.570  1.00  0.00     0.330 C 
HETATM    4  O   UNL     1      44.174 -15.517   6.616  1.00  0.00    -0.246 OA
HETATM    5  N   UNL     1      44.163 -17.343   5.389  1.00  0.00    -0.308 N 
HETATM    6  C   UNL     1      43.839 -18.142   4.311  1.00  0.00     0.048 A 
HETATM    7  C   UNL     1      43.167 -17.579   3.238  1.00  0.00     0.034 A 
HETATM    8  C   UNL     1      44.197 -19.491   4.319  1.00  0.00     0.030 A 
HETATM    9  C   UNL     1      43.871 -20.301   3.234  1.00  0.00     0.002 A 
HETATM   10  C   UNL     1      43.205 -19.757   2.139  1.00  0.00     0.001 A 
HETATM   11  C   UNL     1      42.863 -18.403   2.134  1.00  0.00     0.015 A 
HETATM   12  H   UNL     1      44.715 -17.718   6.153  1.00  0.00     0.170 HD
ENDROOT
BRANCH   1  13
HETATM   13  C   UNL     1      41.297 -15.971   2.841  1.00  0.00     0.279 C 
HETATM   14  N   UNL     1      41.067 -15.246   1.673  1.00  0.00    -0.356 N 
HETATM   15  H   UNL     1      41.900 -15.133   1.096  1.00  0.00     0.162 HD
HETATM   16  O   UNL     1      40.372 -16.338   3.573  1.00  0.00    -0.268 OA
BRANCH  14  17
HETATM   17  C   UNL     1      39.812 -15.222   0.942  1.00  0.00     0.124 C 
BRANCH  17  18
HETATM   18  C   UNL     1      39.871 -14.873  -0.546  1.00  0.00     0.047 C 
BRANCH  18  19
HETATM   19  C   UNL     1      39.618 -13.393  -0.817  1.00  0.00     0.236 C 
BRANCH  19  20
HETATM   20  N   UNL     1      40.908 -12.632  -1.105  1.00  0.00    -0.075 N 
HETATM   21  H   UNL     1      41.697 -13.254  -0.890  1.00  0.00     0.279 HD
HETATM   22  C   UNL     1      41.047 -12.253  -2.566  1.00  0.00     0.269 C 
BRANCH  20  23
HETATM   23  C   UNL     1      41.052 -11.383  -0.254  1.00  0.00     0.234 C 
BRANCH  23  24
HETATM   24  C   UNL     1      41.073 -11.658   1.248  1.00  0.00     0.027 C 
BRANCH  24  25
HETATM   25  C   UNL     1      39.913 -11.019   2.012  1.00  0.00    -0.003 C 
HETATM   26  C   UNL     1      39.031 -12.078   2.656  1.00  0.00     0.005 C 
ENDBRANCH  24  25
ENDBRANCH  23  24
ENDBRANCH  20  23
ENDBRANCH  19  20
ENDBRANCH  18  19
ENDBRANCH  17  18
ENDBRANCH  14  17
ENDBRANCH   1  13
BRANCH   1  27
HETATM   27  O   UNL     1      43.724 -15.446   2.366  1.00  0.00    -0.359 OA
HETATM   28  H   UNL     1      44.572 -15.302   2.814  1.00  0.00     0.213 HD
ENDBRANCH   1  27
BRANCH   2  29
HETATM   29  C   UNL     1      42.477 -14.114   4.813  1.00  0.00     0.042 A 
HETATM   30  C   UNL     1      41.352 -13.871   5.620  1.00  0.00     0.030 A 
HETATM   31  C   UNL     1      40.901 -12.570   5.874  1.00  0.00     0.002 A 
HETATM   32  C   UNL     1      41.567 -11.479   5.331  1.00  0.00     0.000 A 
HETATM   33  C   UNL     1      42.682 -11.690   4.528  1.00  0.00     0.002 A 
HETATM   34  C   UNL     1      43.130 -12.991   4.276  1.00  0.00     0.030 A 
ENDBRANCH   2  29
TORSDOF 10
ENDMDL
MODEL 2
REMARK VINA RESULT:      -7.1      1.882      6.369
REMARK  10 active torsions:
REMARK  status: ('A' for Active; 'I' for Inactive)
REMARK    1  A    between atoms: C_2  and  C_3 
REMARK    2  A    between atoms: C_3  and  C_4 
REMARK    3  A    between atoms: C_4  and  N_5 
REMARK    4  A    between atoms: N_5  and  C_7 
REMARK    5  A    between atoms: C_7  and  C_8 
REMARK    6  A    between atoms: C_8  and  C_9 
REMARK    7  A    between atoms: C_9  and  N_10 
REMARK       I    between atoms: N_10  and  C_11 
REMARK    8  A    between atoms: C_11  and  C_12 
REMARK    9  A    between atoms: C_12  and  O_13 
REMARK   10  A    between atoms: N_14  and  C_15 
ROOT
HETATM    1  C   UNL     1      40.363 -13.457   1.250  1.00  0.00     0.256 C 
HETATM    2  N   UNL     1      41.203 -12.427   1.895  1.00  0.00    -0.254 N 
HETATM    3  C   UNL     1      41.489 -11.239   1.236  1.00  0.00     0.330 C 
HETATM    4  O   UNL     1      41.991 -10.235   1.739  1.00  0.00    -0.246 OA
HETATM    5  N   UNL     1      41.238 -11.177  -0.100  1.00  0.00    -0.308 N 
HETATM    6  C   UNL     1      40.702 -12.182  -0.881  1.00  0.00     0.048 A 
HETATM    7  C   UNL     1      40.265 -13.345  -0.267  1.00  0.00     0.034 A 
HETATM    8  C   UNL     1      40.605 -12.006  -2.262  1.00  0.00     0.030 A 
HETATM    9  C   UNL     1      40.066 -13.019  -3.052  1.00  0.00     0.002 A 
HETATM   10  C   UNL     1      39.611 -14.193  -2.459  1.00  0.00     0.001 A 
HETATM   11  C   UNL     1      39.698 -14.353  -1.075  1.00  0.00     0.015 A 
HETATM   12  H   UNL     1      41.499 -10.291  -0.520  1.00  0.00     0.170 HD
ENDROOT
BRANCH   1  13
HETATM   13  C   UNL     1      41.013 -14.898   1.540  1.00  0.00     0.279 C 
HETATM   14  N   UNL     1      42.298 -15.078   1.031  1.00  0.00    -0.356 N 
HETATM   15  H   UNL     1      42.768 -14.204   0.800  1.00  0.00     0.162 HD
HETATM   16  O   UNL     1      40.365 -15.833   2.019  1.00  0.00    -0.268 OA
BRANCH  14  17
HETATM   17  C   UNL     1      43.186 -16.173   1.382  1.00  0.00     0.124 C 
BRANCH  17  18
HETATM   18  C   UNL     1      43.331 -16.515   2.866  1.00  0.00     0.047 C 
BRANCH  18  19
HETATM   19  C   UNL     1      43.332 -18.017   3.129  1.00  0.00     0.236 C 
BRANCH  19  20
HETATM   20  N   UNL     1      43.409 -18.341   4.618  1.00  0.00    -0.075 N 
HETATM   21  H   UNL     1      42.497 -18.713   4.909  1.00  0.00     0.279 HD
HETATM   22  C   UNL     1      44.429 -19.419   4.926  1.00  0.00     0.269 C 
BRANCH  20  23
HETATM   23  C   UNL     1      43.710 -17.118   5.467  1.00  0.00     0.234 C 
BRANCH  23  24
HETATM   24  C   UNL     1      42.996 -17.113   6.816  1.00  0.00     0.027 C 
BRANCH  24  25
HETATM   25  C   UNL     1      41.845 -16.111   6.906  1.00  0.00    -0.003 C 
HETATM   26  C   UNL     1      40.937 -16.209   5.690  1.00  0.00     0.005 C 
ENDBRANCH  24  25
ENDBRANCH  23  24
ENDBRANCH  20  23
ENDBRANCH  19  20
ENDBRANCH  18  19
ENDBRANCH  17  18
ENDBRANCH  14  17
ENDBRANCH   1  13
BRANCH   1  27
HETATM   27  O   UNL     1      39.043 -13.329   1.764  1.00  0.00    -0.359 OA
HETATM   28  H   UNL     1      38.478 -13.982   1.323  1.00  0.00     0.213 HD
ENDBRANCH   1  27
BRANCH   2  29
HETATM   29  C   UNL     1      41.578 -12.585   3.291  1.00  0.00     0.042 A 
HETATM   30  C   UNL     1      42.890 -12.906   3.683  1.00  0.00     0.030 A 
HETATM   31  C   UNL     1      43.251 -12.986   5.034  1.00  0.00     0.002 A 
HETATM   32  C   UNL     1      42.310 -12.741   6.026  1.00  0.00     0.000 A 
HETATM   33  C   UNL     1      41.006 -12.423   5.666  1.00  0.00     0.002 A 
HETATM   34  C   UNL     1      40.648 -12.345   4.316  1.00  0.00     0.030 A 
ENDBRANCH   2  29
TORSDOF 10
ENDMDL
MODEL 3
REMARK VINA RESULT:      -7.1      1.121      2.198
REMARK  10 active torsions:
REMARK  status: ('A' for Active; 'I' for Inactive)
REMARK    1  A    between atoms: C_2  and  C_3 
REMARK    2  A    between atoms: C_3  and  C_4 
REMARK    3  A    between atoms: C_4  and  N_5 
REMARK    4  A    between atoms: N_5  and  C_7 
REMARK    5  A    between atoms: C_7  and  C_8 
REMARK    6  A    between atoms: C_8  and  C_9 
REMARK    7  A    between atoms: C_9  and  N_10 
REMARK       I    between atoms: N_10  and  C_11 
REMARK    8  A    between atoms: C_11  and  C_12 
REMARK    9  A    between atoms: C_12  and  O_13 
REMARK   10  A    between atoms: N_14  and  C_15 
ROOT
HETATM    1  C   UNL     1      42.758 -16.068   3.549  1.00  0.00     0.256 C 
HETATM    2  N   UNL     1      42.792 -15.493   4.910  1.00  0.00    -0.254 N 
HETATM    3  C   UNL     1      43.526 -16.107   5.914  1.00  0.00     0.330 C 
HETATM    4  O   UNL     1      43.798 -15.621   7.012  1.00  0.00    -0.246 OA
HETATM    5  N   UNL     1      43.954 -17.381   5.702  1.00  0.00    -0.308 N 
HETATM    6  C   UNL     1      43.748 -18.135   4.564  1.00  0.00     0.048 A 
HETATM    7  C   UNL     1      43.143 -17.541   3.467  1.00  0.00     0.034 A 
HETATM    8  C   UNL     1      44.155 -19.470   4.536  1.00  0.00     0.030 A 
HETATM    9  C   UNL     1      43.948 -20.234   3.390  1.00  0.00     0.002 A 
HETATM   10  C   UNL     1      43.351 -19.657   2.272  1.00  0.00     0.001 A 
HETATM   11  C   UNL     1      42.960 -18.317   2.304  1.00  0.00     0.015 A 
HETATM   12  H   UNL     1      44.457 -17.776   6.489  1.00  0.00     0.170 HD
ENDROOT
BRANCH   1  13
HETATM   13  C   UNL     1      41.252 -15.979   2.996  1.00  0.00     0.279 C 
HETATM   14  N   UNL     1      41.097 -15.244   1.822  1.00  0.00    -0.356 N 
HETATM   15  H   UNL     1      41.970 -15.105   1.314  1.00  0.00     0.162 HD
HETATM   16  O   UNL     1      40.282 -16.377   3.649  1.00  0.00    -0.268 OA
BRANCH  14  17
HETATM   17  C   UNL     1      39.903 -15.240   0.995  1.00  0.00     0.124 C 
BRANCH  17  18
HETATM   18  C   UNL     1      39.957 -14.452  -0.316  1.00  0.00     0.047 C 
BRANCH  18  19
HETATM   19  C   UNL     1      40.638 -13.096  -0.163  1.00  0.00     0.236 C 
BRANCH  19  20
HETATM   20  N   UNL     1      39.866 -11.982  -0.861  1.00  0.00    -0.075 N 
HETATM   21  H   UNL     1      39.961 -11.128  -0.297  1.00  0.00     0.279 HD
HETATM   22  C   UNL     1      40.426 -11.655  -2.231  1.00  0.00     0.269 C 
BRANCH  20  23
HETATM   23  C   UNL     1      38.385 -12.292  -0.994  1.00  0.00     0.234 C 
BRANCH  23  24
HETATM   24  C   UNL     1      37.870 -12.245  -2.431  1.00  0.00     0.027 C 
BRANCH  24  25
HETATM   25  C   UNL     1      37.200 -13.539  -2.892  1.00  0.00    -0.003 C 
HETATM   26  C   UNL     1      38.220 -14.510  -3.468  1.00  0.00     0.005 C 
ENDBRANCH  24  25
ENDBRANCH  23  24
ENDBRANCH  20  23
ENDBRANCH  19  20
ENDBRANCH  18  19
ENDBRANCH  17  18
ENDBRANCH  14  17
ENDBRANCH   1  13
BRANCH   1  27
HETATM   27  O   UNL     1      43.687 -15.349   2.748  1.00  0.00    -0.359 OA
HETATM   28  H   UNL     1      43.225 -15.022   1.961  1.00  0.00     0.213 HD
ENDBRANCH   1  27
BRANCH   2  29
HETATM   29  C   UNL     1      42.199 -14.186   5.145  1.00  0.00     0.042 A 
HETATM   30  C   UNL     1      42.748 -13.007   4.611  1.00  0.00     0.030 A 
HETATM   31  C   UNL     1      42.126 -11.764   4.788  1.00  0.00     0.002 A 
HETATM   32  C   UNL     1      40.937 -11.672   5.500  1.00  0.00     0.000 A 
HETATM   33  C   UNL     1      40.374 -12.821   6.040  1.00  0.00     0.002 A 
HETATM   34  C   UNL     1      40.997 -14.061   5.862  1.00  0.00     0.030 A 
ENDBRANCH   2  29
TORSDOF 10
ENDMDL
MODEL 4
REMARK VINA RESULT:      -6.9      2.290      5.355
REMARK  10 active torsions:
REMARK  status: ('A' for Active; 'I' for Inactive)
REMARK    1  A    between atoms: C_2  and  C_3 
REMARK    2  A    between atoms: C_3  and  C_4 
REMARK    3  A    between atoms: C_4  and  N_5 
REMARK    4  A    between atoms: N_5  and  C_7 
REMARK    5  A    between atoms: C_7  and  C_8 
REMARK    6  A    between atoms: C_8  and  C_9 
REMARK    7  A    between atoms: C_9  and  N_10 
REMARK       I    between atoms: N_10  and  C_11 
REMARK    8  A    between atoms: C_11  and  C_12 
REMARK    9  A    between atoms: C_12  and  O_13 
REMARK   10  A    between atoms: N_14  and  C_15 
ROOT
HETATM    1  C   UNL     1      41.389 -15.349   4.292  1.00  0.00     0.256 C 
HETATM    2  N   UNL     1      41.987 -15.583   2.962  1.00  0.00    -0.254 N 
HETATM    3  C   UNL     1      43.050 -16.462   2.814  1.00  0.00     0.330 C 
HETATM    4  O   UNL     1      43.489 -16.893   1.748  1.00  0.00    -0.246 OA
HETATM    5  N   UNL     1      43.707 -16.861   3.936  1.00  0.00    -0.308 N 
HETATM    6  C   UNL     1      43.412 -16.490   5.233  1.00  0.00     0.048 A 
HETATM    7  C   UNL     1      42.281 -15.725   5.470  1.00  0.00     0.034 A 
HETATM    8  C   UNL     1      44.248 -16.896   6.275  1.00  0.00     0.030 A 
HETATM    9  C   UNL     1      43.953 -16.523   7.584  1.00  0.00     0.002 A 
HETATM   10  C   UNL     1      42.818 -15.763   7.849  1.00  0.00     0.001 A 
HETATM   11  C   UNL     1      41.980 -15.374   6.802  1.00  0.00     0.015 A 
HETATM   12  H   UNL     1      44.490 -17.478   3.749  1.00  0.00     0.170 HD
ENDROOT
BRANCH   1  13
HETATM   13  C   UNL     1      41.098 -13.776   4.450  1.00  0.00     0.279 C 
HETATM   14  N   UNL     1      39.749 -13.430   4.522  1.00  0.00    -0.356 N 
HETATM   15  H   UNL     1      39.142 -14.216   4.755  1.00  0.00     0.162 HD
HETATM   16  O   UNL     1      41.984 -12.924   4.337  1.00  0.00    -0.268 OA
BRANCH  14  17
HETATM   17  C   UNL     1      39.244 -12.130   4.926  1.00  0.00     0.124 C 
BRANCH  17  18
HETATM   18  C   UNL     1      39.508 -11.687   6.366  1.00  0.00     0.047 C 
BRANCH  18  19
HETATM   19  C   UNL     1      40.235 -10.348   6.448  1.00  0.00     0.236 C 
BRANCH  19  20
HETATM   20  N   UNL     1      41.594 -10.387   5.756  1.00  0.00    -0.075 N 
HETATM   21  H   UNL     1      41.687 -11.299   5.292  1.00  0.00     0.279 HD
HETATM   22  C   UNL     1      41.723  -9.338   4.669  1.00  0.00     0.269 C 
BRANCH  20  23
HETATM   23  C   UNL     1      42.750 -10.237   6.729  1.00  0.00     0.234 C 
BRANCH  23  24
HETATM   24  C   UNL     1      43.482 -11.544   7.024  1.00  0.00     0.027 C 
BRANCH  24  25
HETATM   25  C   UNL     1      44.861 -11.354   7.656  1.00  0.00    -0.003 C 
HETATM   26  C   UNL     1      45.941 -11.236   6.591  1.00  0.00     0.005 C 
ENDBRANCH  24  25
ENDBRANCH  23  24
ENDBRANCH  20  23
ENDBRANCH  19  20
ENDBRANCH  18  19
ENDBRANCH  17  18
ENDBRANCH  14  17
ENDBRANCH   1  13
BRANCH   1  27
HETATM   27  O   UNL     1      40.214 -16.144   4.389  1.00  0.00    -0.359 OA
HETATM   28  H   UNL     1      39.490 -15.678   3.943  1.00  0.00     0.213 HD
ENDBRANCH   1  27
BRANCH   2  29
HETATM   29  C   UNL     1      41.342 -15.026   1.783  1.00  0.00     0.042 A 
HETATM   30  C   UNL     1      40.263 -15.664   1.147  1.00  0.00     0.030 A 
HETATM   31  C   UNL     1      39.607 -15.079   0.056  1.00  0.00     0.002 A 
HETATM   32  C   UNL     1      40.013 -13.840  -0.423  1.00  0.00     0.000 A 
HETATM   33  C   UNL     1      41.078 -13.188   0.187  1.00  0.00     0.002 A 
HETATM   34  C   UNL     1      41.731 -13.774   1.276  1.00  0.00     0.030 A 
ENDBRANCH   2  29
TORSDOF 10
ENDMDL
MODEL 5
REMARK VINA RESULT:      -6.8      2.813      6.152
REMARK  10 active torsions:
REMARK  status: ('A' for Active; 'I' for Inactive)
REMARK    1  A    between atoms: C_2  and  C_3 
REMARK    2  A    between atoms: C_3  and  C_4 
REMARK    3  A    between atoms: C_4  and  N_5 
REMARK    4  A    between atoms: N_5  and  C_7 
REMARK    5  A    between atoms: C_7  and  C_8 
REMARK    6  A    between atoms: C_8  and  C_9 
REMARK    7  A    between atoms: C_9  and  N_10 
REMARK       I    between atoms: N_10  and  C_11 
REMARK    8  A    between atoms: C_11  and  C_12 
REMARK    9  A    between atoms: C_12  and  O_13 
REMARK   10  A    between atoms: N_14  and  C_15 
ROOT
HETATM    1  C   UNL     1      41.198 -15.211   3.981  1.00  0.00     0.256 C 
HETATM    2  N   UNL     1      41.829 -15.261   2.646  1.00  0.00    -0.254 N 
HETATM    3  C   UNL     1      42.910 -16.099   2.410  1.00  0.00     0.330 C 
HETATM    4  O   UNL     1      43.380 -16.381   1.308  1.00  0.00    -0.246 OA
HETATM    5  N   UNL     1      43.550 -16.630   3.487  1.00  0.00    -0.308 N 
HETATM    6  C   UNL     1      43.219 -16.436   4.814  1.00  0.00     0.048 A 
HETATM    7  C   UNL     1      42.070 -15.725   5.120  1.00  0.00     0.034 A 
HETATM    8  C   UNL     1      44.039 -16.962   5.814  1.00  0.00     0.030 A 
HETATM    9  C   UNL     1      43.709 -16.767   7.153  1.00  0.00     0.002 A 
HETATM   10  C   UNL     1      42.555 -16.064   7.487  1.00  0.00     0.001 A 
HETATM   11  C   UNL     1      41.734 -15.554   6.479  1.00  0.00     0.015 A 
HETATM   12  H   UNL     1      44.347 -17.206   3.241  1.00  0.00     0.170 HD
ENDROOT
BRANCH   1  13
HETATM   13  C   UNL     1      40.877 -13.676   4.334  1.00  0.00     0.279 C 
HETATM   14  N   UNL     1      41.990 -12.896   4.642  1.00  0.00    -0.356 N 
HETATM   15  H   UNL     1      42.870 -13.306   4.330  1.00  0.00     0.162 HD
HETATM   16  O   UNL     1      39.725 -13.260   4.494  1.00  0.00    -0.268 OA
BRANCH  14  17
HETATM   17  C   UNL     1      41.991 -11.447   4.733  1.00  0.00     0.124 C 
BRANCH  17  18
HETATM   18  C   UNL     1      42.739 -10.815   5.909  1.00  0.00     0.047 C 
BRANCH  18  19
HETATM   19  C   UNL     1      43.401 -11.850   6.813  1.00  0.00     0.236 C 
BRANCH  19  20
HETATM   20  N   UNL     1      44.665 -11.312   7.475  1.00  0.00    -0.075 N 
HETATM   21  H   UNL     1      44.939 -11.969   8.216  1.00  0.00     0.279 HD
HETATM   22  C   UNL     1      45.837 -11.233   6.517  1.00  0.00     0.269 C 
BRANCH  20  23
HETATM   23  C   UNL     1      44.455  -9.949   8.113  1.00  0.00     0.234 C 
BRANCH  23  24
HETATM   24  C   UNL     1      45.595  -9.515   9.031  1.00  0.00     0.027 C 
BRANCH  24  25
HETATM   25  C   UNL     1      45.261  -9.605  10.520  1.00  0.00    -0.003 C 
HETATM   26  C   UNL     1      43.959 -10.360  10.745  1.00  0.00     0.005 C 
ENDBRANCH  24  25
ENDBRANCH  23  24
ENDBRANCH  20  23
ENDBRANCH  19  20
ENDBRANCH  18  19
ENDBRANCH  17  18
ENDBRANCH  14  17
ENDBRANCH   1  13
BRANCH   1  27
HETATM   27  O   UNL     1      40.035 -16.028   3.945  1.00  0.00    -0.359 OA
HETATM   28  H   UNL     1      39.267 -15.462   3.770  1.00  0.00     0.213 HD
ENDBRANCH   1  27
BRANCH   2  29
HETATM   29  C   UNL     1      41.201 -14.564   1.534  1.00  0.00     0.042 A 
HETATM   30  C   UNL     1      41.576 -13.263   1.156  1.00  0.00     0.030 A 
HETATM   31  C   UNL     1      41.011 -12.634   0.039  1.00  0.00     0.002 A 
HETATM   32  C   UNL     1      40.059 -13.293  -0.729  1.00  0.00     0.000 A 
HETATM   33  C   UNL     1      39.669 -14.579  -0.376  1.00  0.00     0.002 A 
HETATM   34  C   UNL     1      40.235 -15.206   0.739  1.00  0.00     0.030 A 
ENDBRANCH   2  29
TORSDOF 10
ENDMDL
MODEL 6
REMARK VINA RESULT:      -6.8      1.577      2.349
REMARK  10 active torsions:
REMARK  status: ('A' for Active; 'I' for Inactive)
REMARK    1  A    between atoms: C_2  and  C_3 
REMARK    2  A    between atoms: C_3  and  C_4 
REMARK    3  A    between atoms: C_4  and  N_5 
REMARK    4  A    between atoms: N_5  and  C_7 
REMARK    5  A    between atoms: C_7  and  C_8 
REMARK    6  A    between atoms: C_8  and  C_9 
REMARK    7  A    between atoms: C_9  and  N_10 
REMARK       I    between atoms: N_10  and  C_11 
REMARK    8  A    between atoms: C_11  and  C_12 
REMARK    9  A    between atoms: C_12  and  O_13 
REMARK   10  A    between atoms: N_14  and  C_15 
ROOT
HETATM    1  C   UNL     1      42.609 -15.203   2.441  1.00  0.00     0.256 C 
HETATM    2  N   UNL     1      42.457 -14.231   3.543  1.00  0.00    -0.254 N 
HETATM    3  C   UNL     1      43.063 -14.459   4.771  1.00  0.00     0.330 C 
HETATM    4  O   UNL     1      43.184 -13.640   5.681  1.00  0.00    -0.246 OA
HETATM    5  N   UNL     1      43.534 -15.710   5.025  1.00  0.00    -0.308 N 
HETATM    6  C   UNL     1      43.488 -16.792   4.168  1.00  0.00     0.048 A 
HETATM    7  C   UNL     1      43.023 -16.604   2.876  1.00  0.00     0.034 A 
HETATM    8  C   UNL     1      43.914 -18.045   4.614  1.00  0.00     0.030 A 
HETATM    9  C   UNL     1      43.868 -19.138   3.752  1.00  0.00     0.002 A 
HETATM   10  C   UNL     1      43.414 -18.974   2.447  1.00  0.00     0.001 A 
HETATM   11  C   UNL     1      43.003 -17.714   2.006  1.00  0.00     0.015 A 
HETATM   12  H   UNL     1      43.935 -15.811   5.951  1.00  0.00     0.170 HD
ENDROOT
BRANCH   1  13
HETATM   13  C   UNL     1      41.186 -15.373   1.714  1.00  0.00     0.279 C 
HETATM   14  N   UNL     1      41.047 -14.671   0.517  1.00  0.00    -0.356 N 
HETATM   15  H   UNL     1      41.937 -14.381   0.113  1.00  0.00     0.162 HD
HETATM   16  O   UNL     1      40.229 -15.935   2.254  1.00  0.00    -0.268 OA
BRANCH  14  17
HETATM   17  C   UNL     1      39.977 -14.870  -0.444  1.00  0.00     0.124 C 
BRANCH  17  18
HETATM   18  C   UNL     1      39.489 -13.643  -1.218  1.00  0.00     0.047 C 
BRANCH  18  19
HETATM   19  C   UNL     1      39.909 -12.329  -0.567  1.00  0.00     0.236 C 
BRANCH  19  20
HETATM   20  N   UNL     1      41.020 -11.631  -1.344  1.00  0.00    -0.075 N 
HETATM   21  H   UNL     1      41.914 -11.859  -0.891  1.00  0.00     0.279 HD
HETATM   22  C   UNL     1      41.127 -12.121  -2.775  1.00  0.00     0.269 C 
BRANCH  20  23
HETATM   23  C   UNL     1      40.870 -10.120  -1.349  1.00  0.00     0.234 C 
BRANCH  23  24
HETATM   24  C   UNL     1      42.193  -9.367  -1.234  1.00  0.00     0.027 C 
BRANCH  24  25
HETATM   25  C   UNL     1      42.045  -7.917  -0.773  1.00  0.00    -0.003 C 
HETATM   26  C   UNL     1      40.838  -7.753   0.138  1.00  0.00     0.005 C 
ENDBRANCH  24  25
ENDBRANCH  23  24
ENDBRANCH  20  23
ENDBRANCH  19  20
ENDBRANCH  18  19
ENDBRANCH  17  18
ENDBRANCH  14  17
ENDBRANCH   1  13
BRANCH   1  27
HETATM   27  O   UNL     1      43.624 -14.721   1.570  1.00  0.00    -0.359 OA
HETATM   28  H   UNL     1      44.472 -15.102   1.846  1.00  0.00     0.213 HD
ENDBRANCH   1  27
BRANCH   2  29
HETATM   29  C   UNL     1      41.821 -12.950   3.280  1.00  0.00     0.042 A 
HETATM   30  C   UNL     1      42.472 -11.918   2.582  1.00  0.00     0.030 A 
HETATM   31  C   UNL     1      41.821 -10.717   2.275  1.00  0.00     0.002 A 
HETATM   32  C   UNL     1      40.499 -10.520   2.656  1.00  0.00     0.000 A 
HETATM   33  C   UNL     1      39.832 -11.523   3.348  1.00  0.00     0.002 A 
HETATM   34  C   UNL     1      40.485 -12.722   3.654  1.00  0.00     0.030 A 
ENDBRANCH   2  29
TORSDOF 10
ENDMDL
MODEL 7
REMARK VINA RESULT:      -6.6      3.023      5.855
REMARK  10 active torsions:
REMARK  status: ('A' for Active; 'I' for Inactive)
REMARK    1  A    between atoms: C_2  and  C_3 
REMARK    2  A    between atoms: C_3  and  C_4 
REMARK    3  A    between atoms: C_4  and  N_5 
REMARK    4  A    between atoms: N_5  and  C_7 
REMARK    5  A    between atoms: C_7  and  C_8 
REMARK    6  A    between atoms: C_8  and  C_9 
REMARK    7  A    between atoms: C_9  and  N_10 
REMARK       I    between atoms: N_10  and  C_11 
REMARK    8  A    between atoms: C_11  and  C_12 
REMARK    9  A    between atoms: C_12  and  O_13 
REMARK   10  A    between atoms: N_14  and  C_15 
ROOT
HETATM    1  C   UNL     1      41.611 -15.660   4.535  1.00  0.00     0.256 C 
HETATM    2  N   UNL     1      41.708 -14.918   3.261  1.00  0.00    -0.254 N 
HETATM    3  C   UNL     1      42.260 -15.519   2.138  1.00  0.00     0.330 C 
HETATM    4  O   UNL     1      42.205 -15.087   0.987  1.00  0.00    -0.246 OA
HETATM    5  N   UNL     1      42.967 -16.667   2.313  1.00  0.00    -0.308 N 
HETATM    6  C   UNL     1      43.183 -17.321   3.510  1.00  0.00     0.048 A 
HETATM    7  C   UNL     1      42.548 -16.857   4.651  1.00  0.00     0.034 A 
HETATM    8  C   UNL     1      44.025 -18.434   3.547  1.00  0.00     0.030 A 
HETATM    9  C   UNL     1      44.246 -19.096   4.753  1.00  0.00     0.002 A 
HETATM   10  C   UNL     1      43.613 -18.655   5.911  1.00  0.00     0.001 A 
HETATM   11  C   UNL     1      42.760 -17.549   5.861  1.00  0.00     0.015 A 
HETATM   12  H   UNL     1      43.367 -17.032   1.455  1.00  0.00     0.170 HD
ENDROOT
BRANCH   1  13
HETATM   13  C   UNL     1      42.017 -14.669   5.733  1.00  0.00     0.279 C 
HETATM   14  N   UNL     1      43.378 -14.380   5.823  1.00  0.00    -0.356 N 
HETATM   15  H   UNL     1      43.894 -14.590   4.969  1.00  0.00     0.162 HD
HETATM   16  O   UNL     1      41.219 -14.330   6.612  1.00  0.00    -0.268 OA
BRANCH  14  17
HETATM   17  C   UNL     1      43.951 -13.322   6.637  1.00  0.00     0.124 C 
BRANCH  17  18
HETATM   18  C   UNL     1      44.168 -11.961   5.973  1.00  0.00     0.047 C 
BRANCH  18  19
HETATM   19  C   UNL     1      45.100 -11.055   6.772  1.00  0.00     0.236 C 
BRANCH  19  20
HETATM   20  N   UNL     1      44.334 -10.098   7.678  1.00  0.00    -0.075 N 
HETATM   21  H   UNL     1      44.809  -9.187   7.650  1.00  0.00     0.279 HD
HETATM   22  C   UNL     1      42.915  -9.856   7.204  1.00  0.00     0.269 C 
BRANCH  20  23
HETATM   23  C   UNL     1      44.300 -10.563   9.124  1.00  0.00     0.234 C 
BRANCH  23  24
HETATM   24  C   UNL     1      44.976  -9.600  10.098  1.00  0.00     0.027 C 
BRANCH  24  25
HETATM   25  C   UNL     1      44.070  -9.133  11.237  1.00  0.00    -0.003 C 
HETATM   26  C   UNL     1      42.770  -9.923  11.263  1.00  0.00     0.005 C 
ENDBRANCH  24  25
ENDBRANCH  23  24
ENDBRANCH  20  23
ENDBRANCH  19  20
ENDBRANCH  18  19
ENDBRANCH  17  18
ENDBRANCH  14  17
ENDBRANCH   1  13
BRANCH   1  27
HETATM   27  O   UNL     1      40.284 -16.158   4.651  1.00  0.00    -0.359 OA
HETATM   28  H   UNL     1      40.123 -16.776   3.922  1.00  0.00     0.213 HD
ENDBRANCH   1  27
BRANCH   2  29
HETATM   29  C   UNL     1      41.060 -13.622   3.141  1.00  0.00     0.042 A 
HETATM   30  C   UNL     1      39.666 -13.489   3.015  1.00  0.00     0.030 A 
HETATM   31  C   UNL     1      39.052 -12.231   2.972  1.00  0.00     0.002 A 
HETATM   32  C   UNL     1      39.817 -11.075   3.058  1.00  0.00     0.000 A 
HETATM   33  C   UNL     1      41.197 -11.177   3.181  1.00  0.00     0.002 A 
HETATM   34  C   UNL     1      41.808 -12.435   3.224  1.00  0.00     0.030 A 
ENDBRANCH   2  29
TORSDOF 10
ENDMDL
MODEL 8
REMARK VINA RESULT:      -6.6      2.149      4.604
REMARK  10 active torsions:
REMARK  status: ('A' for Active; 'I' for Inactive)
REMARK    1  A    between atoms: C_2  and  C_3 
REMARK    2  A    between atoms: C_3  and  C_4 
REMARK    3  A    between atoms: C_4  and  N_5 
REMARK    4  A    between atoms: N_5  and  C_7 
REMARK    5  A    between atoms: C_7  and  C_8 
REMARK    6  A    between atoms: C_8  and  C_9 
REMARK    7  A    between atoms: C_9  and  N_10 
REMARK       I    between atoms: N_10  and  C_11 
REMARK    8  A    between atoms: C_11  and  C_12 
REMARK    9  A    between atoms: C_12  and  O_13 
REMARK   10  A    between atoms: N_14  and  C_15 
ROOT
HETATM    1  C   UNL     1      41.160 -15.214   3.876  1.00  0.00     0.256 C 
HETATM    2  N   UNL     1      41.804 -15.222   2.546  1.00  0.00    -0.254 N 
HETATM    3  C   UNL     1      42.879 -16.061   2.291  1.00  0.00     0.330 C 
HETATM    4  O   UNL     1      43.357 -16.308   1.184  1.00  0.00    -0.246 OA
HETATM    5  N   UNL     1      43.504 -16.636   3.354  1.00  0.00    -0.308 N 
HETATM    6  C   UNL     1      43.163 -16.486   4.683  1.00  0.00     0.048 A 
HETATM    7  C   UNL     1      42.017 -15.775   5.005  1.00  0.00     0.034 A 
HETATM    8  C   UNL     1      43.968 -17.054   5.672  1.00  0.00     0.030 A 
HETATM    9  C   UNL     1      43.628 -16.904   7.014  1.00  0.00     0.002 A 
HETATM   10  C   UNL     1      42.477 -16.203   7.362  1.00  0.00     0.001 A 
HETATM   11  C   UNL     1      41.670 -15.650   6.366  1.00  0.00     0.015 A 
HETATM   12  H   UNL     1      44.298 -17.211   3.094  1.00  0.00     0.170 HD
ENDROOT
BRANCH   1  13
HETATM   13  C   UNL     1      40.849 -13.690   4.281  1.00  0.00     0.279 C 
HETATM   14  N   UNL     1      41.953 -12.958   4.717  1.00  0.00    -0.356 N 
HETATM   15  H   UNL     1      42.845 -13.377   4.455  1.00  0.00     0.162 HD
HETATM   16  O   UNL     1      39.699 -13.249   4.370  1.00  0.00    -0.268 OA
BRANCH  14  17
HETATM   17  C   UNL     1      41.982 -11.515   4.881  1.00  0.00     0.124 C 
BRANCH  17  18
HETATM   18  C   UNL     1      42.232 -10.669   3.632  1.00  0.00     0.047 C 
BRANCH  18  19
HETATM   19  C   UNL     1      41.102  -9.684   3.350  1.00  0.00     0.236 C 
BRANCH  19  20
HETATM   20  N   UNL     1      39.734 -10.359   3.360  1.00  0.00    -0.075 N 
HETATM   21  H   UNL     1      39.871 -11.348   3.602  1.00  0.00     0.279 HD
HETATM   22  C   UNL     1      38.810  -9.785   4.415  1.00  0.00     0.269 C 
BRANCH  20  23
HETATM   23  C   UNL     1      39.042 -10.298   2.010  1.00  0.00     0.234 C 
BRANCH  23  24
HETATM   24  C   UNL     1      37.951 -11.350   1.827  1.00  0.00     0.027 C 
BRANCH  24  25
HETATM   25  C   UNL     1      37.195 -11.236   0.504  1.00  0.00    -0.003 C 
HETATM   26  C   UNL     1      37.783 -10.140  -0.372  1.00  0.00     0.005 C 
ENDBRANCH  24  25
ENDBRANCH  23  24
ENDBRANCH  20  23
ENDBRANCH  19  20
ENDBRANCH  18  19
ENDBRANCH  17  18
ENDBRANCH  14  17
ENDBRANCH   1  13
BRANCH   1  27
HETATM   27  O   UNL     1      39.990 -16.019   3.801  1.00  0.00    -0.359 OA
HETATM   28  H   UNL     1      39.215 -15.438   3.845  1.00  0.00     0.213 HD
ENDBRANCH   1  27
BRANCH   2  29
HETATM   29  C   UNL     1      41.192 -14.481   1.454  1.00  0.00     0.042 A 
HETATM   30  C   UNL     1      41.606 -13.184   1.104  1.00  0.00     0.030 A 
HETATM   31  C   UNL     1      41.055 -12.512   0.006  1.00  0.00     0.002 A 
HETATM   32  C   UNL     1      40.079 -13.123  -0.772  1.00  0.00     0.000 A 
HETATM   33  C   UNL     1      39.651 -14.404  -0.448  1.00  0.00     0.002 A 
HETATM   34  C   UNL     1      40.203 -15.073   0.650  1.00  0.00     0.030 A 
ENDBRANCH   2  29
TORSDOF 10
ENDMDL
MODEL 9
REMARK VINA RESULT:      -6.6      2.467      5.906
REMARK  10 active torsions:
REMARK  status: ('A' for Active; 'I' for Inactive)
REMARK    1  A    between atoms: C_2  and  C_3 
REMARK    2  A    between atoms: C_3  and  C_4 
REMARK    3  A    between atoms: C_4  and  N_5 
REMARK    4  A    between atoms: N_5  and  C_7 
REMARK    5  A    between atoms: C_7  and  C_8 
REMARK    6  A    between atoms: C_8  and  C_9 
REMARK    7  A    between atoms: C_9  and  N_10 
REMARK       I    between atoms: N_10  and  C_11 
REMARK    8  A    between atoms: C_11  and  C_12 
REMARK    9  A    between atoms: C_12  and  O_13 
REMARK   10  A    between atoms: N_14  and  C_15 
ROOT
HETATM    1  C   UNL     1      39.745 -13.233   2.213  1.00  0.00     0.256 C 
HETATM    2  N   UNL     1      40.991 -13.540   2.945  1.00  0.00    -0.254 N 
HETATM    3  C   UNL     1      41.371 -12.773   4.038  1.00  0.00     0.330 C 
HETATM    4  O   UNL     1      42.259 -13.051   4.843  1.00  0.00    -0.246 OA
HETATM    5  N   UNL     1      40.746 -11.579   4.226  1.00  0.00    -0.308 N 
HETATM    6  C   UNL     1      39.742 -11.048   3.440  1.00  0.00     0.048 A 
HETATM    7  C   UNL     1      39.216 -11.818   2.415  1.00  0.00     0.034 A 
HETATM    8  C   UNL     1      39.274  -9.758   3.696  1.00  0.00     0.030 A 
HETATM    9  C   UNL     1      38.262  -9.219   2.906  1.00  0.00     0.002 A 
HETATM   10  C   UNL     1      37.711  -9.976   1.875  1.00  0.00     0.001 A 
HETATM   11  C   UNL     1      38.176 -11.271   1.636  1.00  0.00     0.015 A 
HETATM   12  H   UNL     1      41.096 -11.060   5.024  1.00  0.00     0.170 HD
ENDROOT
BRANCH   1  13
HETATM   13  C   UNL     1      40.035 -13.371   0.638  1.00  0.00     0.279 C 
HETATM   14  N   UNL     1      39.419 -14.458   0.018  1.00  0.00    -0.356 N 
HETATM   15  H   UNL     1      38.650 -14.850   0.560  1.00  0.00     0.162 HD
HETATM   16  O   UNL     1      40.874 -12.678   0.055  1.00  0.00    -0.268 OA
BRANCH  14  17
HETATM   17  C   UNL     1      39.310 -14.644  -1.418  1.00  0.00     0.124 C 
BRANCH  17  18
HETATM   18  C   UNL     1      38.399 -13.685  -2.186  1.00  0.00     0.047 C 
BRANCH  18  19
HETATM   19  C   UNL     1      39.174 -12.732  -3.092  1.00  0.00     0.236 C 
BRANCH  19  20
HETATM   20  N   UNL     1      38.458 -11.397  -3.267  1.00  0.00    -0.075 N 
HETATM   21  H   UNL     1      38.159 -11.325  -4.248  1.00  0.00     0.279 HD
HETATM   22  C   UNL     1      37.201 -11.294  -2.427  1.00  0.00     0.269 C 
BRANCH  20  23
HETATM   23  C   UNL     1      39.355 -10.209  -2.963  1.00  0.00     0.234 C 
BRANCH  23  24
HETATM   24  C   UNL     1      39.439  -9.864  -1.478  1.00  0.00     0.027 C 
BRANCH  24  25
HETATM   25  C   UNL     1      40.790  -9.293  -1.049  1.00  0.00    -0.003 C 
HETATM   26  C   UNL     1      41.526  -8.678  -2.231  1.00  0.00     0.005 C 
ENDBRANCH  24  25
ENDBRANCH  23  24
ENDBRANCH  20  23
ENDBRANCH  19  20
ENDBRANCH  18  19
ENDBRANCH  17  18
ENDBRANCH  14  17
ENDBRANCH   1  13
BRANCH   1  27
HETATM   27  O   UNL     1      38.737 -14.124   2.673  1.00  0.00    -0.359 OA
HETATM   28  H   UNL     1      39.168 -14.905   3.053  1.00  0.00     0.213 HD
ENDBRANCH   1  27
BRANCH   2  29
HETATM   29  C   UNL     1      41.722 -14.757   2.629  1.00  0.00     0.042 A 
HETATM   30  C   UNL     1      42.916 -14.742   1.885  1.00  0.00     0.030 A 
HETATM   31  C   UNL     1      43.645 -15.915   1.650  1.00  0.00     0.002 A 
HETATM   32  C   UNL     1      43.201 -17.130   2.156  1.00  0.00     0.000 A 
HETATM   33  C   UNL     1      42.024 -17.172   2.893  1.00  0.00     0.002 A 
HETATM   34  C   UNL     1      41.297 -16.000   3.127  1.00  0.00     0.030 A 
ENDBRANCH   2  29
TORSDOF 10
ENDMDL
MODEL 10
REMARK VINA RESULT:      -6.5     14.698     16.616
REMARK  10 active torsions:
REMARK  status: ('A' for Active; 'I' for Inactive)
REMARK    1  A    between atoms: C_2  and  C_3 
REMARK    2  A    between atoms: C_3  and  C_4 
REMARK    3  A    between atoms: C_4  and  N_5 
REMARK    4  A    between atoms: N_5  and  C_7 
REMARK    5  A    between atoms: C_7  and  C_8 
REMARK    6  A    between atoms: C_8  and  C_9 
REMARK    7  A    between atoms: C_9  and  N_10 
REMARK       I    between atoms: N_10  and  C_11 
REMARK    8  A    between atoms: C_11  and  C_12 
REMARK    9  A    between atoms: C_12  and  O_13 
REMARK   10  A    between atoms: N_14  and  C_15 
ROOT
HETATM    1  C   UNL     1      45.039 -29.767   2.481  1.00  0.00     0.256 C 
HETATM    2  N   UNL     1      44.383 -31.000   2.963  1.00  0.00    -0.254 N 
HETATM    3  C   UNL     1      44.854 -31.650   4.095  1.00  0.00     0.330 C 
HETATM    4  O   UNL     1      44.276 -32.549   4.706  1.00  0.00    -0.246 OA
HETATM    5  N   UNL     1      46.085 -31.307   4.561  1.00  0.00    -0.308 N 
HETATM    6  C   UNL     1      46.924 -30.348   4.027  1.00  0.00     0.048 A 
HETATM    7  C   UNL     1      46.464 -29.563   2.981  1.00  0.00     0.034 A 
HETATM    8  C   UNL     1      48.207 -30.184   4.551  1.00  0.00     0.030 A 
HETATM    9  C   UNL     1      49.056 -29.219   4.015  1.00  0.00     0.002 A 
HETATM   10  C   UNL     1      48.615 -28.411   2.971  1.00  0.00     0.001 A 
HETATM   11  C   UNL     1      47.324 -28.573   2.463  1.00  0.00     0.015 A 
HETATM   12  H   UNL     1      46.376 -31.843   5.370  1.00  0.00     0.170 HD
ENDROOT
BRANCH   1  13
HETATM   13  C   UNL     1      45.144 -29.840   0.879  1.00  0.00     0.279 C 
HETATM   14  N   UNL     1      44.365 -28.909   0.194  1.00  0.00    -0.356 N 
HETATM   15  H   UNL     1      44.061 -28.129   0.776  1.00  0.00     0.162 HD
HETATM   16  O   UNL     1      45.727 -30.758   0.294  1.00  0.00    -0.268 OA
BRANCH  14  17
HETATM   17  C   UNL     1      44.488 -28.602  -1.220  1.00  0.00     0.124 C 
BRANCH  17  18
HETATM   18  C   UNL     1      45.832 -28.062  -1.710  1.00  0.00     0.047 C 
BRANCH  18  19
HETATM   19  C   UNL     1      46.478 -28.954  -2.766  1.00  0.00     0.236 C 
BRANCH  19  20
HETATM   20  N   UNL     1      47.250 -30.114  -2.145  1.00  0.00    -0.075 N 
HETATM   21  H   UNL     1      46.858 -30.291  -1.211  1.00  0.00     0.279 HD
HETATM   22  C   UNL     1      47.092 -31.403  -2.927  1.00  0.00     0.269 C 
BRANCH  20  23
HETATM   23  C   UNL     1      48.729 -29.812  -1.982  1.00  0.00     0.234 C 
BRANCH  23  24
HETATM   24  C   UNL     1      49.130 -29.435  -0.558  1.00  0.00     0.027 C 
BRANCH  24  25
HETATM   25  C   UNL     1      50.000 -30.481   0.139  1.00  0.00    -0.003 C 
HETATM   26  C   UNL     1      49.145 -31.499   0.880  1.00  0.00     0.005 C 
ENDBRANCH  24  25
ENDBRANCH  23  24
ENDBRANCH  20  23
ENDBRANCH  19  20
ENDBRANCH  18  19
ENDBRANCH  17  18
ENDBRANCH  14  17
ENDBRANCH   1  13
BRANCH   1  27
HETATM   27  O   UNL     1      44.274 -28.658   2.938  1.00  0.00    -0.359 OA
HETATM   28  H   UNL     1      43.661 -28.969   3.622  1.00  0.00     0.213 HD
ENDBRANCH   1  27
BRANCH   2  29
HETATM   29  C   UNL     1      43.134 -31.428   2.353  1.00  0.00     0.042 A 
HETATM   30  C   UNL     1      43.064 -32.528   1.479  1.00  0.00     0.030 A 
HETATM   31  C   UNL     1      41.843 -32.970   0.956  1.00  0.00     0.002 A 
HETATM   32  C   UNL     1      40.660 -32.326   1.296  1.00  0.00     0.000 A 
HETATM   33  C   UNL     1      40.701 -31.235   2.157  1.00  0.00     0.002 A 
HETATM   34  C   UNL     1      41.922 -30.795   2.678  1.00  0.00     0.030 A 
ENDBRANCH   2  29
TORSDOF 10
ENDMDL
