MODEL 1
REMARK VINA RESULT:      -7.4      0.000      0.000
REMARK  3 active torsions:
REMARK  status: ('A' for Active; 'I' for Inactive)
REMARK    1  A    between atoms: C_8  and  C_9 
REMARK    2  A    between atoms: C_16  and  O_17 
REMARK    3  A    between atoms: C_24  and  N_25 
ROOT
HETATM    1  C   UNL     1      39.530 -12.553   3.711  1.00  0.00     0.073 C 
HETATM    2  C   UNL     1      39.797 -11.684   4.883  1.00  0.00     0.062 A 
HETATM    3  N   UNL     1      38.789 -11.048   5.503  1.00  0.00    -0.177 NA
HETATM    4  N   UNL     1      39.387 -10.364   6.500  1.00  0.00    -0.256 N 
HETATM    5  H   UNL     1      38.818  -9.789   7.109  1.00  0.00     0.191 HD
HETATM    6  C   UNL     1      40.730 -10.556   6.533  1.00  0.00     0.175 A 
HETATM    7  C   UNL     1      41.037 -11.410   5.506  1.00  0.00     0.034 A 
HETATM    8  C   UNL     1      42.455 -11.806   5.262  1.00  0.00     0.106 A 
HETATM    9  C   UNL     1      43.383 -11.100   6.256  1.00  0.00     0.081 A 
HETATM   10  C   UNL     1      44.782 -11.311   6.080  1.00  0.00     0.100 C 
HETATM   11  N   UNL     1      45.923 -11.473   5.945  1.00  0.00    -0.191 NA
HETATM   12  C   UNL     1      42.928 -10.267   7.233  1.00  0.00     0.140 A 
HETATM   13  O   UNL     1      41.558  -9.995   7.406  1.00  0.00    -0.279 OA
ENDROOT
BRANCH   8  14
HETATM   14  C   UNL     1      42.510 -13.334   5.365  1.00  0.00    -0.033 A 
HETATM   15  C   UNL     1      42.793 -14.166   4.236  1.00  0.00    -0.016 A 
HETATM   16  C   UNL     1      42.814 -15.580   4.409  1.00  0.00     0.008 A 
HETATM   17  C   UNL     1      43.069 -13.668   2.935  1.00  0.00     0.013 A 
HETATM   18  C   UNL     1      43.086 -16.405   3.292  1.00  0.00     0.015 A 
HETATM   19  C   UNL     1      42.570 -16.148   5.685  1.00  0.00     0.079 A 
HETATM   20  C   UNL     1      43.346 -15.880   2.030  1.00  0.00     0.001 A 
HETATM   21  C   UNL     1      43.339 -14.509   1.852  1.00  0.00     0.001 A 
HETATM   22  C   UNL     1      42.335 -15.323   6.782  1.00  0.00     0.038 A 
HETATM   23  C   UNL     1      42.314 -13.940   6.624  1.00  0.00     0.012 A 
BRANCH  19  24
HETATM   24  O   UNL     1      42.601 -17.520   5.761  1.00  0.00    -0.355 OA
HETATM   25  C   UNL     1      43.450 -18.114   6.735  1.00  0.00     0.210 C 
ENDBRANCH  19  24
ENDBRANCH   8  14
BRANCH  12  26
HETATM   26  N   UNL     1      43.717  -9.601   8.143  1.00  0.00    -0.282 NA
HETATM   27  H   UNL     1      43.436  -9.686   9.118  1.00  0.00     0.126 HD
HETATM   28  H   UNL     1      43.901  -8.641   7.863  1.00  0.00     0.126 HD
ENDBRANCH  12  26
TORSDOF 3
ENDMDL
MODEL 2
REMARK VINA RESULT:      -7.2      3.148      4.899
REMARK  3 active torsions:
REMARK  status: ('A' for Active; 'I' for Inactive)
REMARK    1  A    between atoms: C_8  and  C_9 
REMARK    2  A    between atoms: C_16  and  O_17 
REMARK    3  A    between atoms: C_24  and  N_25 
ROOT
HETATM    1  C   UNL     1      39.035 -10.798   7.277  1.00  0.00     0.073 C 
HETATM    2  C   UNL     1      38.726 -10.473   5.864  1.00  0.00     0.062 A 
HETATM    3  N   UNL     1      38.161  -9.296   5.545  1.00  0.00    -0.177 NA
HETATM    4  N   UNL     1      38.027  -9.342   4.203  1.00  0.00    -0.256 N 
HETATM    5  H   UNL     1      37.605  -8.555   3.725  1.00  0.00     0.191 HD
HETATM    6  C   UNL     1      38.496 -10.499   3.670  1.00  0.00     0.175 A 
HETATM    7  C   UNL     1      38.965 -11.257   4.711  1.00  0.00     0.034 A 
HETATM    8  C   UNL     1      39.535 -12.611   4.452  1.00  0.00     0.106 A 
HETATM    9  C   UNL     1      39.450 -12.948   2.960  1.00  0.00     0.081 A 
HETATM   10  C   UNL     1      39.872 -14.254   2.577  1.00  0.00     0.100 C 
HETATM   11  N   UNL     1      40.211 -15.316   2.254  1.00  0.00    -0.191 NA
HETATM   12  C   UNL     1      38.951 -12.084   2.032  1.00  0.00     0.140 A 
HETATM   13  O   UNL     1      38.478 -10.805   2.379  1.00  0.00    -0.279 OA
ENDROOT
BRANCH   8  14
HETATM   14  C   UNL     1      40.971 -12.595   4.987  1.00  0.00    -0.033 A 
HETATM   15  C   UNL     1      41.498 -13.651   5.794  1.00  0.00    -0.016 A 
HETATM   16  C   UNL     1      42.840 -13.557   6.264  1.00  0.00     0.008 A 
HETATM   17  C   UNL     1      40.764 -14.812   6.157  1.00  0.00     0.013 A 
HETATM   18  C   UNL     1      43.360 -14.597   7.069  1.00  0.00     0.015 A 
HETATM   19  C   UNL     1      43.640 -12.437   5.922  1.00  0.00     0.079 A 
HETATM   20  C   UNL     1      42.608 -15.717   7.409  1.00  0.00     0.001 A 
HETATM   21  C   UNL     1      41.308 -15.826   6.950  1.00  0.00     0.001 A 
HETATM   22  C   UNL     1      43.125 -11.437   5.103  1.00  0.00     0.038 A 
HETATM   23  C   UNL     1      41.816 -11.520   4.637  1.00  0.00     0.012 A 
BRANCH  19  24
HETATM   24  O   UNL     1      44.920 -12.423   6.424  1.00  0.00    -0.355 OA
HETATM   25  C   UNL     1      45.320 -11.294   7.191  1.00  0.00     0.210 C 
ENDBRANCH  19  24
ENDBRANCH   8  14
BRANCH  12  26
HETATM   26  N   UNL     1      38.841 -12.339   0.684  1.00  0.00    -0.282 NA
HETATM   27  H   UNL     1      38.053 -12.920   0.407  1.00  0.00     0.126 HD
HETATM   28  H   UNL     1      39.723 -12.640   0.276  1.00  0.00     0.126 HD
ENDBRANCH  12  26
TORSDOF 3
ENDMDL
MODEL 3
REMARK VINA RESULT:      -7.1      2.059      2.473
REMARK  3 active torsions:
REMARK  status: ('A' for Active; 'I' for Inactive)
REMARK    1  A    between atoms: C_8  and  C_9 
REMARK    2  A    between atoms: C_16  and  O_17 
REMARK    3  A    between atoms: C_24  and  N_25 
ROOT
HETATM    1  C   UNL     1      39.756 -14.692   1.673  1.00  0.00     0.073 C 
HETATM    2  C   UNL     1      39.634 -13.326   2.238  1.00  0.00     0.062 A 
HETATM    3  N   UNL     1      38.450 -12.691   2.234  1.00  0.00    -0.177 NA
HETATM    4  N   UNL     1      38.707 -11.500   2.812  1.00  0.00    -0.256 N 
HETATM    5  H   UNL     1      37.953 -10.830   2.912  1.00  0.00     0.191 HD
HETATM    6  C   UNL     1      40.005 -11.368   3.185  1.00  0.00     0.175 A 
HETATM    7  C   UNL     1      40.640 -12.532   2.838  1.00  0.00     0.034 A 
HETATM    8  C   UNL     1      42.099 -12.695   3.102  1.00  0.00     0.106 A 
HETATM    9  C   UNL     1      42.673 -11.419   3.726  1.00  0.00     0.081 A 
HETATM   10  C   UNL     1      44.081 -11.394   3.945  1.00  0.00     0.100 C 
HETATM   11  N   UNL     1      45.227 -11.363   4.127  1.00  0.00    -0.191 NA
HETATM   12  C   UNL     1      41.910 -10.328   4.016  1.00  0.00     0.140 A 
HETATM   13  O   UNL     1      40.526 -10.295   3.767  1.00  0.00    -0.279 OA
ENDROOT
BRANCH   8  14
HETATM   14  C   UNL     1      42.250 -13.927   4.001  1.00  0.00    -0.033 A 
HETATM   15  C   UNL     1      42.682 -15.193   3.496  1.00  0.00    -0.016 A 
HETATM   16  C   UNL     1      42.785 -16.296   4.393  1.00  0.00     0.008 A 
HETATM   17  C   UNL     1      43.029 -15.428   2.138  1.00  0.00     0.013 A 
HETATM   18  C   UNL     1      43.204 -17.551   3.893  1.00  0.00     0.015 A 
HETATM   19  C   UNL     1      42.476 -16.130   5.767  1.00  0.00     0.079 A 
HETATM   20  C   UNL     1      43.530 -17.744   2.554  1.00  0.00     0.001 A 
HETATM   21  C   UNL     1      43.445 -16.679   1.676  1.00  0.00     0.001 A 
HETATM   22  C   UNL     1      42.095 -14.882   6.250  1.00  0.00     0.038 A 
HETATM   23  C   UNL     1      41.993 -13.798   5.383  1.00  0.00     0.012 A 
BRANCH  19  24
HETATM   24  O   UNL     1      42.594 -17.247   6.560  1.00  0.00    -0.355 OA
HETATM   25  C   UNL     1      43.649 -17.278   7.512  1.00  0.00     0.210 C 
ENDBRANCH  19  24
ENDBRANCH   8  14
BRANCH  12  26
HETATM   26  N   UNL     1      42.375  -9.154   4.565  1.00  0.00    -0.282 NA
HETATM   27  H   UNL     1      43.344  -9.167   4.879  1.00  0.00     0.126 HD
HETATM   28  H   UNL     1      41.735  -8.772   5.256  1.00  0.00     0.126 HD
ENDBRANCH  12  26
TORSDOF 3
ENDMDL
MODEL 4
REMARK VINA RESULT:      -6.8      7.227     10.588
REMARK  3 active torsions:
REMARK  status: ('A' for Active; 'I' for Inactive)
REMARK    1  A    between atoms: C_8  and  C_9 
REMARK    2  A    between atoms: C_16  and  O_17 
REMARK    3  A    between atoms: C_24  and  N_25 
ROOT
HETATM    1  C   UNL     1      41.876  -5.836   9.016  1.00  0.00     0.073 C 
HETATM    2  C   UNL     1      42.792  -6.968   9.299  1.00  0.00     0.062 A 
HETATM    3  N   UNL     1      43.970  -7.066   8.660  1.00  0.00    -0.177 NA
HETATM    4  N   UNL     1      44.526  -8.191   9.155  1.00  0.00    -0.256 N 
HETATM    5  H   UNL     1      45.432  -8.483   8.807  1.00  0.00     0.191 HD
HETATM    6  C   UNL     1      43.746  -8.795  10.086  1.00  0.00     0.175 A 
HETATM    7  C   UNL     1      42.615  -8.032  10.215  1.00  0.00     0.034 A 
HETATM    8  C   UNL     1      41.537  -8.446  11.160  1.00  0.00     0.106 A 
HETATM    9  C   UNL     1      41.903  -9.771  11.836  1.00  0.00     0.081 A 
HETATM   10  C   UNL     1      40.920 -10.339  12.698  1.00  0.00     0.100 C 
HETATM   11  N   UNL     1      40.126 -10.811  13.400  1.00  0.00    -0.191 NA
HETATM   12  C   UNL     1      43.077 -10.423  11.604  1.00  0.00     0.140 A 
HETATM   13  O   UNL     1      44.051  -9.919  10.722  1.00  0.00    -0.279 OA
ENDROOT
BRANCH   8  14
HETATM   14  C   UNL     1      41.354  -7.292  12.152  1.00  0.00    -0.033 A 
HETATM   15  C   UNL     1      40.066  -6.765  12.480  1.00  0.00    -0.016 A 
HETATM   16  C   UNL     1      39.978  -5.681  13.403  1.00  0.00     0.008 A 
HETATM   17  C   UNL     1      38.847  -7.262  11.947  1.00  0.00     0.013 A 
HETATM   18  C   UNL     1      38.705  -5.153  13.723  1.00  0.00     0.015 A 
HETATM   19  C   UNL     1      41.152  -5.149  13.993  1.00  0.00     0.079 A 
HETATM   20  C   UNL     1      37.532  -5.664  13.174  1.00  0.00     0.001 A 
HETATM   21  C   UNL     1      37.603  -6.722  12.287  1.00  0.00     0.001 A 
HETATM   22  C   UNL     1      42.394  -5.699  13.692  1.00  0.00     0.038 A 
HETATM   23  C   UNL     1      42.491  -6.757  12.795  1.00  0.00     0.012 A 
BRANCH  19  24
HETATM   24  O   UNL     1      40.977  -4.099  14.864  1.00  0.00    -0.355 OA
HETATM   25  C   UNL     1      41.244  -4.328  16.242  1.00  0.00     0.210 C 
ENDBRANCH  19  24
ENDBRANCH   8  14
BRANCH  12  26
HETATM   26  N   UNL     1      43.450 -11.619  12.175  1.00  0.00    -0.282 NA
HETATM   27  H   UNL     1      42.843 -12.411  11.977  1.00  0.00     0.126 HD
HETATM   28  H   UNL     1      43.671 -11.522  13.163  1.00  0.00     0.126 HD
ENDBRANCH  12  26
TORSDOF 3
ENDMDL
MODEL 5
REMARK VINA RESULT:      -6.8     17.230     18.748
REMARK  3 active torsions:
REMARK  status: ('A' for Active; 'I' for Inactive)
REMARK    1  A    between atoms: C_8  and  C_9 
REMARK    2  A    between atoms: C_16  and  O_17 
REMARK    3  A    between atoms: C_24  and  N_25 
ROOT
HETATM    1  C   UNL     1      42.356 -29.232   1.101  1.00  0.00     0.073 C 
HETATM    2  C   UNL     1      43.348 -29.823   2.032  1.00  0.00     0.062 A 
HETATM    3  N   UNL     1      42.961 -30.290   3.231  1.00  0.00    -0.177 NA
HETATM    4  N   UNL     1      44.100 -30.743   3.796  1.00  0.00    -0.256 N 
HETATM    5  H   UNL     1      44.060 -31.139   4.728  1.00  0.00     0.191 HD
HETATM    6  C   UNL     1      45.182 -30.586   2.993  1.00  0.00     0.175 A 
HETATM    7  C   UNL     1      44.738 -29.999   1.836  1.00  0.00     0.034 A 
HETATM    8  C   UNL     1      45.703 -29.674   0.745  1.00  0.00     0.106 A 
HETATM    9  C   UNL     1      47.127 -30.048   1.166  1.00  0.00     0.081 A 
HETATM   10  C   UNL     1      48.170 -29.705   0.258  1.00  0.00     0.100 C 
HETATM   11  N   UNL     1      49.028 -29.428  -0.474  1.00  0.00    -0.191 NA
HETATM   12  C   UNL     1      47.418 -30.630   2.363  1.00  0.00     0.140 A 
HETATM   13  O   UNL     1      46.422 -30.938   3.308  1.00  0.00    -0.279 OA
ENDROOT
BRANCH   8  14
HETATM   14  C   UNL     1      45.225 -30.423  -0.504  1.00  0.00    -0.033 A 
HETATM   15  C   UNL     1      45.081 -29.779  -1.772  1.00  0.00    -0.016 A 
HETATM   16  C   UNL     1      44.620 -30.541  -2.885  1.00  0.00     0.008 A 
HETATM   17  C   UNL     1      45.381 -28.410  -2.004  1.00  0.00     0.013 A 
HETATM   18  C   UNL     1      44.469 -29.904  -4.139  1.00  0.00     0.015 A 
HETATM   19  C   UNL     1      44.322 -31.919  -2.733  1.00  0.00     0.079 A 
HETATM   20  C   UNL     1      44.768 -28.558  -4.326  1.00  0.00     0.001 A 
HETATM   21  C   UNL     1      45.227 -27.810  -3.257  1.00  0.00     0.001 A 
HETATM   22  C   UNL     1      44.506 -32.540  -1.501  1.00  0.00     0.038 A 
HETATM   23  C   UNL     1      44.957 -31.806  -0.408  1.00  0.00     0.012 A 
BRANCH  19  24
HETATM   24  O   UNL     1      43.875 -32.576  -3.855  1.00  0.00    -0.355 OA
HETATM   25  C   UNL     1      43.728 -33.988  -3.784  1.00  0.00     0.210 C 
ENDBRANCH  19  24
ENDBRANCH   8  14
BRANCH  12  26
HETATM   26  N   UNL     1      48.679 -30.975   2.795  1.00  0.00    -0.282 NA
HETATM   27  H   UNL     1      49.267 -30.204   3.104  1.00  0.00     0.126 HD
HETATM   28  H   UNL     1      49.150 -31.602   2.148  1.00  0.00     0.126 HD
ENDBRANCH  12  26
TORSDOF 3
ENDMDL
MODEL 6
REMARK VINA RESULT:      -6.7     17.388     18.981
REMARK  3 active torsions:
REMARK  status: ('A' for Active; 'I' for Inactive)
REMARK    1  A    between atoms: C_8  and  C_9 
REMARK    2  A    between atoms: C_16  and  O_17 
REMARK    3  A    between atoms: C_24  and  N_25 
ROOT
HETATM    1  C   UNL     1      43.634 -29.788  -3.426  1.00  0.00     0.073 C 
HETATM    2  C   UNL     1      44.840 -29.052  -2.974  1.00  0.00     0.062 A 
HETATM    3  N   UNL     1      45.153 -27.862  -3.514  1.00  0.00    -0.177 NA
HETATM    4  N   UNL     1      46.285 -27.494  -2.879  1.00  0.00    -0.256 N 
HETATM    5  H   UNL     1      46.725 -26.617  -3.131  1.00  0.00     0.191 HD
HETATM    6  C   UNL     1      46.687 -28.404  -1.956  1.00  0.00     0.175 A 
HETATM    7  C   UNL     1      45.775 -29.426  -1.981  1.00  0.00     0.034 A 
HETATM    8  C   UNL     1      45.949 -30.605  -1.083  1.00  0.00     0.106 A 
HETATM    9  C   UNL     1      47.236 -30.464  -0.263  1.00  0.00     0.081 A 
HETATM   10  C   UNL     1      47.583 -31.565   0.573  1.00  0.00     0.100 C 
HETATM   11  N   UNL     1      47.876 -32.457   1.255  1.00  0.00    -0.191 NA
HETATM   12  C   UNL     1      48.053 -29.377  -0.348  1.00  0.00     0.140 A 
HETATM   13  O   UNL     1      47.771 -28.293  -1.199  1.00  0.00    -0.279 OA
ENDROOT
BRANCH   8  14
HETATM   14  C   UNL     1      44.688 -30.690  -0.217  1.00  0.00    -0.033 A 
HETATM   15  C   UNL     1      43.827 -31.832  -0.232  1.00  0.00    -0.016 A 
HETATM   16  C   UNL     1      42.664 -31.831   0.593  1.00  0.00     0.008 A 
HETATM   17  C   UNL     1      44.060 -32.990  -1.020  1.00  0.00     0.013 A 
HETATM   18  C   UNL     1      41.807 -32.956   0.574  1.00  0.00     0.015 A 
HETATM   19  C   UNL     1      42.379 -30.718   1.424  1.00  0.00     0.079 A 
HETATM   20  C   UNL     1      42.067 -34.071  -0.217  1.00  0.00     0.001 A 
HETATM   21  C   UNL     1      43.197 -34.089  -1.014  1.00  0.00     0.001 A 
HETATM   22  C   UNL     1      43.248 -29.631   1.456  1.00  0.00     0.038 A 
HETATM   23  C   UNL     1      44.386 -29.623   0.656  1.00  0.00     0.012 A 
BRANCH  19  24
HETATM   24  O   UNL     1      41.233 -30.796   2.180  1.00  0.00    -0.355 OA
HETATM   25  C   UNL     1      41.364 -30.735   3.594  1.00  0.00     0.210 C 
ENDBRANCH  19  24
ENDBRANCH   8  14
BRANCH  12  26
HETATM   26  N   UNL     1      49.224 -29.205   0.356  1.00  0.00    -0.282 NA
HETATM   27  H   UNL     1      49.121 -29.086   1.362  1.00  0.00     0.126 HD
HETATM   28  H   UNL     1      49.830 -28.508  -0.069  1.00  0.00     0.126 HD
ENDBRANCH  12  26
TORSDOF 3
ENDMDL
MODEL 7
REMARK VINA RESULT:      -6.5      4.881      8.936
REMARK  3 active torsions:
REMARK  status: ('A' for Active; 'I' for Inactive)
REMARK    1  A    between atoms: C_8  and  C_9 
REMARK    2  A    between atoms: C_16  and  O_17 
REMARK    3  A    between atoms: C_24  and  N_25 
ROOT
HETATM    1  C   UNL     1      38.818  -8.679  10.119  1.00  0.00     0.073 C 
HETATM    2  C   UNL     1      39.599  -9.017   8.904  1.00  0.00     0.062 A 
HETATM    3  N   UNL     1      39.005  -9.040   7.698  1.00  0.00    -0.177 NA
HETATM    4  N   UNL     1      39.994  -9.378   6.845  1.00  0.00    -0.256 N 
HETATM    5  H   UNL     1      39.780  -9.471   5.860  1.00  0.00     0.191 HD
HETATM    6  C   UNL     1      41.185  -9.559   7.470  1.00  0.00     0.175 A 
HETATM    7  C   UNL     1      40.975  -9.327   8.804  1.00  0.00     0.034 A 
HETATM    8  C   UNL     1      42.102  -9.466   9.773  1.00  0.00     0.106 A 
HETATM    9  C   UNL     1      43.375  -9.913   9.048  1.00  0.00     0.081 A 
HETATM   10  C   UNL     1      44.513 -10.178   9.865  1.00  0.00     0.100 C 
HETATM   11  N   UNL     1      45.444 -10.400  10.521  1.00  0.00    -0.191 NA
HETATM   12  C   UNL     1      43.432 -10.106   7.701  1.00  0.00     0.140 A 
HETATM   13  O   UNL     1      42.317  -9.903   6.868  1.00  0.00    -0.279 OA
ENDROOT
BRANCH   8  14
HETATM   14  C   UNL     1      42.249  -8.111  10.474  1.00  0.00    -0.033 A 
HETATM   15  C   UNL     1      42.264  -7.985  11.898  1.00  0.00    -0.016 A 
HETATM   16  C   UNL     1      42.392  -6.688  12.475  1.00  0.00     0.008 A 
HETATM   17  C   UNL     1      42.166  -9.085  12.792  1.00  0.00     0.013 A 
HETATM   18  C   UNL     1      42.398  -6.560  13.884  1.00  0.00     0.015 A 
HETATM   19  C   UNL     1      42.517  -5.545  11.645  1.00  0.00     0.079 A 
HETATM   20  C   UNL     1      42.294  -7.662  14.728  1.00  0.00     0.001 A 
HETATM   21  C   UNL     1      42.180  -8.927  14.180  1.00  0.00     0.001 A 
HETATM   22  C   UNL     1      42.541  -5.689  10.261  1.00  0.00     0.038 A 
HETATM   23  C   UNL     1      42.418  -6.951   9.687  1.00  0.00     0.012 A 
BRANCH  19  24
HETATM   24  O   UNL     1      42.627  -4.333  12.284  1.00  0.00    -0.355 OA
HETATM   25  C   UNL     1      42.899  -3.185  11.490  1.00  0.00     0.210 C 
ENDBRANCH  19  24
ENDBRANCH   8  14
BRANCH  12  26
HETATM   26  N   UNL     1      44.545 -10.517   7.002  1.00  0.00    -0.282 NA
HETATM   27  H   UNL     1      45.442 -10.258   7.407  1.00  0.00     0.126 HD
HETATM   28  H   UNL     1      44.478 -10.304   6.010  1.00  0.00     0.126 HD
ENDBRANCH  12  26
TORSDOF 3
ENDMDL
MODEL 8
REMARK VINA RESULT:      -6.3      8.012     10.452
REMARK  3 active torsions:
REMARK  status: ('A' for Active; 'I' for Inactive)
REMARK    1  A    between atoms: C_8  and  C_9 
REMARK    2  A    between atoms: C_16  and  O_17 
REMARK    3  A    between atoms: C_24  and  N_25 
ROOT
HETATM    1  C   UNL     1      38.441  -7.005  12.393  1.00  0.00     0.073 C 
HETATM    2  C   UNL     1      38.764  -6.187  13.587  1.00  0.00     0.062 A 
HETATM    3  N   UNL     1      38.026  -6.293  14.705  1.00  0.00    -0.177 NA
HETATM    4  N   UNL     1      38.594  -5.423  15.565  1.00  0.00    -0.256 N 
HETATM    5  H   UNL     1      38.195  -5.317  16.490  1.00  0.00     0.191 HD
HETATM    6  C   UNL     1      39.666  -4.784  15.031  1.00  0.00     0.175 A 
HETATM    7  C   UNL     1      39.815  -5.255  13.753  1.00  0.00     0.034 A 
HETATM    8  C   UNL     1      40.908  -4.727  12.885  1.00  0.00     0.106 A 
HETATM    9  C   UNL     1      41.699  -3.644  13.625  1.00  0.00     0.081 A 
HETATM   10  C   UNL     1      42.719  -2.980  12.883  1.00  0.00     0.100 C 
HETATM   11  N   UNL     1      43.550  -2.432  12.286  1.00  0.00    -0.191 NA
HETATM   12  C   UNL     1      41.430  -3.276  14.909  1.00  0.00     0.140 A 
HETATM   13  O   UNL     1      40.400  -3.873  15.658  1.00  0.00    -0.279 OA
ENDROOT
BRANCH   8  14
HETATM   14  C   UNL     1      41.766  -5.929  12.476  1.00  0.00    -0.033 A 
HETATM   15  C   UNL     1      42.057  -6.231  11.109  1.00  0.00    -0.016 A 
HETATM   16  C   UNL     1      42.852  -7.375  10.808  1.00  0.00     0.008 A 
HETATM   17  C   UNL     1      41.605  -5.449  10.012  1.00  0.00     0.013 A 
HETATM   18  C   UNL     1      43.134  -7.679   9.456  1.00  0.00     0.015 A 
HETATM   19  C   UNL     1      43.356  -8.189  11.854  1.00  0.00     0.079 A 
HETATM   20  C   UNL     1      42.668  -6.892   8.407  1.00  0.00     0.001 A 
HETATM   21  C   UNL     1      41.905  -5.773   8.686  1.00  0.00     0.001 A 
HETATM   22  C   UNL     1      43.097  -7.860  13.181  1.00  0.00     0.038 A 
HETATM   23  C   UNL     1      42.323  -6.744  13.486  1.00  0.00     0.012 A 
BRANCH  19  24
HETATM   24  O   UNL     1      44.107  -9.278  11.475  1.00  0.00    -0.355 OA
HETATM   25  C   UNL     1      43.547 -10.570  11.666  1.00  0.00     0.210 C 
ENDBRANCH  19  24
ENDBRANCH   8  14
BRANCH  12  26
HETATM   26  N   UNL     1      42.101  -2.304  15.616  1.00  0.00    -0.282 NA
HETATM   27  H   UNL     1      42.090  -1.372  15.206  1.00  0.00     0.126 HD
HETATM   28  H   UNL     1      43.030  -2.605  15.899  1.00  0.00     0.126 HD
ENDBRANCH  12  26
TORSDOF 3
ENDMDL
MODEL 9
REMARK VINA RESULT:      -6.1      3.836      6.616
REMARK  3 active torsions:
REMARK  status: ('A' for Active; 'I' for Inactive)
REMARK    1  A    between atoms: C_8  and  C_9 
REMARK    2  A    between atoms: C_16  and  O_17 
REMARK    3  A    between atoms: C_24  and  N_25 
ROOT
HETATM    1  C   UNL     1      39.945 -14.951   0.253  1.00  0.00     0.073 C 
HETATM    2  C   UNL     1      40.674 -15.308   1.495  1.00  0.00     0.062 A 
HETATM    3  N   UNL     1      41.535 -16.341   1.505  1.00  0.00    -0.177 NA
HETATM    4  N   UNL     1      42.002 -16.374   2.771  1.00  0.00    -0.256 N 
HETATM    5  H   UNL     1      42.670 -17.090   3.027  1.00  0.00     0.191 HD
HETATM    6  C   UNL     1      41.474 -15.396   3.549  1.00  0.00     0.175 A 
HETATM    7  C   UNL     1      40.614 -14.678   2.760  1.00  0.00     0.034 A 
HETATM    8  C   UNL     1      39.851 -13.532   3.335  1.00  0.00     0.106 A 
HETATM    9  C   UNL     1      40.165 -13.379   4.827  1.00  0.00     0.081 A 
HETATM   10  C   UNL     1      39.434 -12.380   5.532  1.00  0.00     0.100 C 
HETATM   11  N   UNL     1      38.842 -11.571   6.117  1.00  0.00    -0.191 NA
HETATM   12  C   UNL     1      41.052 -14.178   5.483  1.00  0.00     0.140 A 
HETATM   13  O   UNL     1      41.756 -15.208   4.832  1.00  0.00    -0.279 OA
ENDROOT
BRANCH   8  14
HETATM   14  C   UNL     1      40.225 -12.295   2.510  1.00  0.00    -0.033 A 
HETATM   15  C   UNL     1      39.251 -11.532   1.793  1.00  0.00    -0.016 A 
HETATM   16  C   UNL     1      39.679 -10.402   1.038  1.00  0.00     0.008 A 
HETATM   17  C   UNL     1      37.861 -11.825   1.791  1.00  0.00     0.013 A 
HETATM   18  C   UNL     1      38.717  -9.651   0.321  1.00  0.00     0.015 A 
HETATM   19  C   UNL     1      41.048 -10.037   1.012  1.00  0.00     0.079 A 
HETATM   20  C   UNL     1      37.364  -9.972   0.339  1.00  0.00     0.001 A 
HETATM   21  C   UNL     1      36.934 -11.060   1.077  1.00  0.00     0.001 A 
HETATM   22  C   UNL     1      41.978 -10.766   1.747  1.00  0.00     0.038 A 
HETATM   23  C   UNL     1      41.571 -11.871   2.489  1.00  0.00     0.012 A 
BRANCH  19  24
HETATM   24  O   UNL     1      41.375  -8.939   0.251  1.00  0.00    -0.355 OA
HETATM   25  C   UNL     1      42.068  -9.159  -0.970  1.00  0.00     0.210 C 
ENDBRANCH  19  24
ENDBRANCH   8  14
BRANCH  12  26
HETATM   26  N   UNL     1      41.362 -14.092   6.822  1.00  0.00    -0.282 NA
HETATM   27  H   UNL     1      42.177 -13.527   7.051  1.00  0.00     0.126 HD
HETATM   28  H   UNL     1      41.365 -15.002   7.276  1.00  0.00     0.126 HD
ENDBRANCH  12  26
TORSDOF 3
ENDMDL
MODEL 10
REMARK VINA RESULT:      -6.1     16.889     20.103
REMARK  3 active torsions:
REMARK  status: ('A' for Active; 'I' for Inactive)
REMARK    1  A    between atoms: C_8  and  C_9 
REMARK    2  A    between atoms: C_16  and  O_17 
REMARK    3  A    between atoms: C_24  and  N_25 
ROOT
HETATM    1  C   UNL     1      47.921 -33.127  -1.253  1.00  0.00     0.073 C 
HETATM    2  C   UNL     1      47.155 -33.179  -2.522  1.00  0.00     0.062 A 
HETATM    3  N   UNL     1      47.047 -34.331  -3.205  1.00  0.00    -0.177 NA
HETATM    4  N   UNL     1      46.300 -34.013  -4.282  1.00  0.00    -0.256 N 
HETATM    5  H   UNL     1      46.091 -34.733  -4.963  1.00  0.00     0.191 HD
HETATM    6  C   UNL     1      45.929 -32.707  -4.295  1.00  0.00     0.175 A 
HETATM    7  C   UNL     1      46.456 -32.132  -3.168  1.00  0.00     0.034 A 
HETATM    8  C   UNL     1      46.240 -30.681  -2.899  1.00  0.00     0.106 A 
HETATM    9  C   UNL     1      45.439 -30.042  -4.038  1.00  0.00     0.081 A 
HETATM   10  C   UNL     1      45.237 -28.633  -3.963  1.00  0.00     0.100 C 
HETATM   11  N   UNL     1      45.069 -27.486  -3.912  1.00  0.00    -0.191 NA
HETATM   12  C   UNL     1      44.977 -30.749  -5.107  1.00  0.00     0.140 A 
HETATM   13  O   UNL     1      45.200 -32.132  -5.242  1.00  0.00    -0.279 OA
ENDROOT
BRANCH   8  14
HETATM   14  C   UNL     1      45.539 -30.584  -1.540  1.00  0.00    -0.033 A 
HETATM   15  C   UNL     1      46.047 -29.779  -0.473  1.00  0.00    -0.016 A 
HETATM   16  C   UNL     1      45.345 -29.751   0.767  1.00  0.00     0.008 A 
HETATM   17  C   UNL     1      47.221 -28.984  -0.571  1.00  0.00     0.013 A 
HETATM   18  C   UNL     1      45.851 -28.961   1.825  1.00  0.00     0.015 A 
HETATM   19  C   UNL     1      44.153 -30.501   0.929  1.00  0.00     0.079 A 
HETATM   20  C   UNL     1      47.008 -28.200   1.693  1.00  0.00     0.001 A 
HETATM   21  C   UNL     1      47.693 -28.210   0.492  1.00  0.00     0.001 A 
HETATM   22  C   UNL     1      43.650 -31.249  -0.131  1.00  0.00     0.038 A 
HETATM   23  C   UNL     1      44.327 -31.282  -1.346  1.00  0.00     0.012 A 
BRANCH  19  24
HETATM   24  O   UNL     1      43.544 -30.425   2.160  1.00  0.00    -0.355 OA
HETATM   25  C   UNL     1      42.174 -30.049   2.201  1.00  0.00     0.210 C 
ENDBRANCH  19  24
ENDBRANCH   8  14
BRANCH  12  26
HETATM   26  N   UNL     1      44.264 -30.224  -6.162  1.00  0.00    -0.282 NA
HETATM   27  H   UNL     1      43.888 -30.902  -6.821  1.00  0.00     0.126 HD
HETATM   28  H   UNL     1      44.754 -29.455  -6.612  1.00  0.00     0.126 HD
ENDBRANCH  12  26
TORSDOF 3
ENDMDL
