MODEL 1
REMARK VINA RESULT:      -9.6      0.000      0.000
REMARK  7 active torsions:
REMARK  status: ('A' for Active; 'I' for Inactive)
REMARK    1  A    between atoms: C_4  and  C_5 
REMARK    2  A    between atoms: N_6  and  C_7 
REMARK    3  A    between atoms: C_14  and  C_15 
REMARK       I    between atoms: C_15  and  N_16 
REMARK    4  A    between atoms: N_16  and  N_17 
REMARK       I    between atoms: N_17  and  C_18 
REMARK    5  A    between atoms: C_18  and  C_19 
REMARK    6  A    between atoms: C_19  and  C_20 
REMARK    7  A    between atoms: C_23  and  O_24 
ROOT
HETATM    1  C   UNL     1      43.548 -15.291   5.683  1.00  0.00     0.164 C 
HETATM    2  N   UNL     1      42.754 -14.480   4.873  1.00  0.00    -0.213 N 
HETATM    3  N   UNL     1      42.758 -13.210   5.373  1.00  0.00    -0.139 NA
HETATM    4  C   UNL     1      43.707 -13.264   6.322  1.00  0.00     0.241 C 
HETATM    5  N   UNL     1      44.220 -14.521   6.520  1.00  0.00    -0.202 NA
ENDROOT
BRANCH   4   6
HETATM    6  C   UNL     1      44.143 -12.082   7.089  1.00  0.00     0.309 C 
HETATM    7  N   UNL     1      43.158 -11.546   7.901  1.00  0.00    -0.261 N 
HETATM    8  H   UNL     1      42.212 -11.932   7.913  1.00  0.00     0.190 HD
HETATM    9  O   UNL     1      45.271 -11.590   7.026  1.00  0.00    -0.262 OA
BRANCH   7  10
HETATM   10  N   UNL     1      43.416 -10.373   8.612  1.00  0.00    -0.267 N 
HETATM   11  C   UNL     1      43.795 -10.464   9.935  1.00  0.00     0.240 C 
HETATM   12  O   UNL     1      43.917 -11.536  10.525  1.00  0.00    -0.272 OA
HETATM   13  H   UNL     1      43.403  -9.503   8.084  1.00  0.00     0.190 HD
BRANCH  11  14
HETATM   14  C   UNL     1      44.029  -9.122  10.601  1.00  0.00     0.143 C 
BRANCH  14  15
HETATM   15  C   UNL     1      43.271  -8.960  11.896  1.00  0.00    -0.049 A 
HETATM   16  C   UNL     1      42.280  -9.882  12.267  1.00  0.00     0.010 A 
HETATM   17  C   UNL     1      41.598  -9.741  13.479  1.00  0.00     0.037 A 
HETATM   18  C   UNL     1      41.906  -8.678  14.319  1.00  0.00     0.065 A 
HETATM   19  C   UNL     1      42.881  -7.753  13.967  1.00  0.00     0.037 A 
HETATM   20  C   UNL     1      43.563  -7.893  12.758  1.00  0.00     0.010 A 
BRANCH  18  21
HETATM   21  O   UNL     1      41.271  -8.508  15.513  1.00  0.00    -0.361 OA
HETATM   22  H   UNL     1      41.420  -7.599  15.818  1.00  0.00     0.217 HD
ENDBRANCH  18  21
ENDBRANCH  14  15
ENDBRANCH  11  14
ENDBRANCH   7  10
ENDBRANCH   4   6
BRANCH   2  23
HETATM   23  C   UNL     1      42.036 -14.765   3.675  1.00  0.00     0.060 A 
HETATM   24  C   UNL     1      42.731 -14.799   2.455  1.00  0.00     0.031 A 
HETATM   25  C   UNL     1      42.056 -15.074   1.264  1.00  0.00     0.002 A 
HETATM   26  C   UNL     1      40.689 -15.337   1.280  1.00  0.00     0.000 A 
HETATM   27  C   UNL     1      39.996 -15.335   2.489  1.00  0.00     0.002 A 
HETATM   28  C   UNL     1      40.665 -15.057   3.685  1.00  0.00     0.031 A 
ENDBRANCH   2  23
BRANCH   1  29
HETATM   29  C   UNL     1      43.618 -16.753   5.703  1.00  0.00     0.012 A 
HETATM   30  C   UNL     1      44.214 -17.429   4.630  1.00  0.00     0.015 A 
HETATM   31  C   UNL     1      44.319 -18.821   4.636  1.00  0.00     0.001 A 
HETATM   32  C   UNL     1      43.840 -19.551   5.722  1.00  0.00     0.000 A 
HETATM   33  C   UNL     1      43.269 -18.889   6.807  1.00  0.00     0.001 A 
HETATM   34  C   UNL     1      43.166 -17.496   6.804  1.00  0.00     0.015 A 
ENDBRANCH   1  29
TORSDOF 7
ENDMDL
MODEL 2
REMARK VINA RESULT:      -9.6      1.752      2.584
REMARK  7 active torsions:
REMARK  status: ('A' for Active; 'I' for Inactive)
REMARK    1  A    between atoms: C_4  and  C_5 
REMARK    2  A    between atoms: N_6  and  C_7 
REMARK    3  A    between atoms: C_14  and  C_15 
REMARK       I    between atoms: C_15  and  N_16 
REMARK    4  A    between atoms: N_16  and  N_17 
REMARK       I    between atoms: N_17  and  C_18 
REMARK    5  A    between atoms: C_18  and  C_19 
REMARK    6  A    between atoms: C_19  and  C_20 
REMARK    7  A    between atoms: C_23  and  O_24 
ROOT
HETATM    1  C   UNL     1      43.316 -15.734   4.759  1.00  0.00     0.164 C 
HETATM    2  N   UNL     1      42.360 -14.884   4.205  1.00  0.00    -0.213 N 
HETATM    3  N   UNL     1      42.264 -13.759   4.972  1.00  0.00    -0.139 NA
HETATM    4  C   UNL     1      43.299 -13.885   5.819  1.00  0.00     0.241 C 
HETATM    5  N   UNL     1      43.971 -15.074   5.698  1.00  0.00    -0.202 NA
ENDROOT
BRANCH   4   6
HETATM    6  C   UNL     1      43.667 -12.844   6.797  1.00  0.00     0.309 C 
HETATM    7  N   UNL     1      44.041 -11.641   6.220  1.00  0.00    -0.261 N 
HETATM    8  H   UNL     1      44.088 -11.531   5.205  1.00  0.00     0.190 HD
HETATM    9  O   UNL     1      43.661 -13.003   8.018  1.00  0.00    -0.262 OA
BRANCH   7  10
HETATM   10  N   UNL     1      44.497 -10.602   7.032  1.00  0.00    -0.267 N 
HETATM   11  C   UNL     1      45.854 -10.458   7.233  1.00  0.00     0.240 C 
HETATM   12  O   UNL     1      46.689 -11.208   6.728  1.00  0.00    -0.272 OA
HETATM   13  H   UNL     1      43.801  -9.937   7.364  1.00  0.00     0.190 HD
BRANCH  11  14
HETATM   14  C   UNL     1      46.222  -9.306   8.147  1.00  0.00     0.143 C 
BRANCH  14  15
HETATM   15  C   UNL     1      45.139  -8.966   9.141  1.00  0.00    -0.049 A 
HETATM   16  C   UNL     1      44.267  -7.891   8.911  1.00  0.00     0.010 A 
HETATM   17  C   UNL     1      43.250  -7.595   9.823  1.00  0.00     0.037 A 
HETATM   18  C   UNL     1      43.106  -8.373  10.966  1.00  0.00     0.065 A 
HETATM   19  C   UNL     1      43.962  -9.438  11.212  1.00  0.00     0.037 A 
HETATM   20  C   UNL     1      44.977  -9.735  10.302  1.00  0.00     0.010 A 
BRANCH  18  21
HETATM   21  O   UNL     1      42.123  -8.124  11.876  1.00  0.00    -0.361 OA
HETATM   22  H   UNL     1      41.262  -8.211  11.436  1.00  0.00     0.217 HD
ENDBRANCH  18  21
ENDBRANCH  14  15
ENDBRANCH  11  14
ENDBRANCH   7  10
ENDBRANCH   4   6
BRANCH   2  23
HETATM   23  C   UNL     1      41.567 -15.003   3.026  1.00  0.00     0.060 A 
HETATM   24  C   UNL     1      41.937 -14.279   1.880  1.00  0.00     0.031 A 
HETATM   25  C   UNL     1      41.182 -14.373   0.709  1.00  0.00     0.002 A 
HETATM   26  C   UNL     1      40.065 -15.203   0.663  1.00  0.00     0.000 A 
HETATM   27  C   UNL     1      39.707 -15.948   1.785  1.00  0.00     0.002 A 
HETATM   28  C   UNL     1      40.458 -15.856   2.962  1.00  0.00     0.031 A 
ENDBRANCH   2  23
BRANCH   1  29
HETATM   29  C   UNL     1      43.556 -17.144   4.450  1.00  0.00     0.012 A 
HETATM   30  C   UNL     1      43.727 -18.060   5.497  1.00  0.00     0.015 A 
HETATM   31  C   UNL     1      43.931 -19.415   5.231  1.00  0.00     0.001 A 
HETATM   32  C   UNL     1      43.953 -19.870   3.914  1.00  0.00     0.000 A 
HETATM   33  C   UNL     1      43.759 -18.975   2.864  1.00  0.00     0.001 A 
HETATM   34  C   UNL     1      43.552 -17.619   3.129  1.00  0.00     0.015 A 
ENDBRANCH   1  29
TORSDOF 7
ENDMDL
MODEL 3
REMARK VINA RESULT:      -9.5      1.531      3.872
REMARK  7 active torsions:
REMARK  status: ('A' for Active; 'I' for Inactive)
REMARK    1  A    between atoms: C_4  and  C_5 
REMARK    2  A    between atoms: N_6  and  C_7 
REMARK    3  A    between atoms: C_14  and  C_15 
REMARK       I    between atoms: C_15  and  N_16 
REMARK    4  A    between atoms: N_16  and  N_17 
REMARK       I    between atoms: N_17  and  C_18 
REMARK    5  A    between atoms: C_18  and  C_19 
REMARK    6  A    between atoms: C_19  and  C_20 
REMARK    7  A    between atoms: C_23  and  O_24 
ROOT
HETATM    1  C   UNL     1      42.348 -15.081   4.054  1.00  0.00     0.164 C 
HETATM    2  N   UNL     1      43.255 -16.054   4.468  1.00  0.00    -0.213 N 
HETATM    3  N   UNL     1      44.000 -15.561   5.500  1.00  0.00    -0.139 NA
HETATM    4  C   UNL     1      43.376 -14.408   5.796  1.00  0.00     0.241 C 
HETATM    5  N   UNL     1      42.350 -14.100   4.939  1.00  0.00    -0.202 NA
ENDROOT
BRANCH   4   6
HETATM    6  C   UNL     1      43.769 -13.550   6.929  1.00  0.00     0.309 C 
HETATM    7  N   UNL     1      44.474 -12.418   6.555  1.00  0.00    -0.261 N 
HETATM    8  H   UNL     1      44.720 -12.244   5.579  1.00  0.00     0.190 HD
HETATM    9  O   UNL     1      43.516 -13.797   8.109  1.00  0.00    -0.262 OA
BRANCH   7  10
HETATM   10  N   UNL     1      44.981 -11.568   7.540  1.00  0.00    -0.267 N 
HETATM   11  C   UNL     1      44.276 -10.428   7.865  1.00  0.00     0.240 C 
HETATM   12  O   UNL     1      43.215 -10.120   7.325  1.00  0.00    -0.272 OA
HETATM   13  H   UNL     1      45.808 -11.886   8.040  1.00  0.00     0.190 HD
BRANCH  11  14
HETATM   14  C   UNL     1      44.937  -9.580   8.933  1.00  0.00     0.143 C 
BRANCH  14  15
HETATM   15  C   UNL     1      44.155  -9.528  10.222  1.00  0.00    -0.049 A 
HETATM   16  C   UNL     1      43.894 -10.698  10.951  1.00  0.00     0.010 A 
HETATM   17  C   UNL     1      43.189 -10.642  12.156  1.00  0.00     0.037 A 
HETATM   18  C   UNL     1      42.744  -9.414  12.633  1.00  0.00     0.065 A 
HETATM   19  C   UNL     1      42.989  -8.246  11.924  1.00  0.00     0.037 A 
HETATM   20  C   UNL     1      43.693  -8.301  10.720  1.00  0.00     0.010 A 
BRANCH  18  21
HETATM   21  O   UNL     1      42.061  -9.313  13.808  1.00  0.00    -0.361 OA
HETATM   22  H   UNL     1      42.001 -10.195  14.210  1.00  0.00     0.217 HD
ENDBRANCH  18  21
ENDBRANCH  14  15
ENDBRANCH  11  14
ENDBRANCH   7  10
ENDBRANCH   4   6
BRANCH   2  23
HETATM   23  C   UNL     1      43.464 -17.394   4.026  1.00  0.00     0.060 A 
HETATM   24  C   UNL     1      43.850 -18.368   4.962  1.00  0.00     0.031 A 
HETATM   25  C   UNL     1      44.063 -19.689   4.560  1.00  0.00     0.002 A 
HETATM   26  C   UNL     1      43.874 -20.054   3.230  1.00  0.00     0.000 A 
HETATM   27  C   UNL     1      43.463 -19.101   2.300  1.00  0.00     0.002 A 
HETATM   28  C   UNL     1      43.250 -17.776   2.695  1.00  0.00     0.031 A 
ENDBRANCH   2  23
BRANCH   1  29
HETATM   29  C   UNL     1      41.551 -15.055   2.826  1.00  0.00     0.012 A 
HETATM   30  C   UNL     1      41.935 -14.213   1.773  1.00  0.00     0.015 A 
HETATM   31  C   UNL     1      41.209 -14.189   0.581  1.00  0.00     0.001 A 
HETATM   32  C   UNL     1      40.098 -15.016   0.425  1.00  0.00     0.000 A 
HETATM   33  C   UNL     1      39.721 -15.876   1.454  1.00  0.00     0.001 A 
HETATM   34  C   UNL     1      40.448 -15.903   2.647  1.00  0.00     0.015 A 
ENDBRANCH   1  29
TORSDOF 7
ENDMDL
MODEL 4
REMARK VINA RESULT:      -9.4      0.689      3.574
REMARK  7 active torsions:
REMARK  status: ('A' for Active; 'I' for Inactive)
REMARK    1  A    between atoms: C_4  and  C_5 
REMARK    2  A    between atoms: N_6  and  C_7 
REMARK    3  A    between atoms: C_14  and  C_15 
REMARK       I    between atoms: C_15  and  N_16 
REMARK    4  A    between atoms: N_16  and  N_17 
REMARK       I    between atoms: N_17  and  C_18 
REMARK    5  A    between atoms: C_18  and  C_19 
REMARK    6  A    between atoms: C_19  and  C_20 
REMARK    7  A    between atoms: C_23  and  O_24 
ROOT
HETATM    1  C   UNL     1      42.332 -14.000   4.495  1.00  0.00     0.164 C 
HETATM    2  N   UNL     1      43.183 -14.751   5.304  1.00  0.00    -0.213 N 
HETATM    3  N   UNL     1      43.883 -13.909   6.118  1.00  0.00    -0.139 NA
HETATM    4  C   UNL     1      43.279 -12.725   5.916  1.00  0.00     0.241 C 
HETATM    5  N   UNL     1      42.314 -12.757   4.942  1.00  0.00    -0.202 NA
ENDROOT
BRANCH   4   6
HETATM    6  C   UNL     1      43.634 -11.505   6.664  1.00  0.00     0.309 C 
HETATM    7  N   UNL     1      42.818 -11.261   7.756  1.00  0.00    -0.261 N 
HETATM    8  H   UNL     1      42.024 -11.867   7.971  1.00  0.00     0.190 HD
HETATM    9  O   UNL     1      44.560 -10.750   6.364  1.00  0.00    -0.262 OA
BRANCH   7  10
HETATM   10  N   UNL     1      42.992 -10.090   8.496  1.00  0.00    -0.267 N 
HETATM   11  C   UNL     1      43.683 -10.151   9.688  1.00  0.00     0.240 C 
HETATM   12  O   UNL     1      44.156 -11.195  10.136  1.00  0.00    -0.272 OA
HETATM   13  H   UNL     1      42.677  -9.223   8.066  1.00  0.00     0.190 HD
BRANCH  11  14
HETATM   14  C   UNL     1      43.789  -8.820  10.406  1.00  0.00     0.143 C 
BRANCH  14  15
HETATM   15  C   UNL     1      43.068  -8.799  11.731  1.00  0.00    -0.049 A 
HETATM   16  C   UNL     1      42.021  -9.696  11.993  1.00  0.00     0.010 A 
HETATM   17  C   UNL     1      41.373  -9.689  13.231  1.00  0.00     0.037 A 
HETATM   18  C   UNL     1      41.772  -8.784  14.209  1.00  0.00     0.065 A 
HETATM   19  C   UNL     1      42.803  -7.886  13.967  1.00  0.00     0.037 A 
HETATM   20  C   UNL     1      43.451  -7.893  12.731  1.00  0.00     0.010 A 
BRANCH  18  21
HETATM   21  O   UNL     1      41.172  -8.749  15.432  1.00  0.00    -0.361 OA
HETATM   22  H   UNL     1      40.311  -9.193  15.369  1.00  0.00     0.217 HD
ENDBRANCH  18  21
ENDBRANCH  14  15
ENDBRANCH  11  14
ENDBRANCH   7  10
ENDBRANCH   4   6
BRANCH   2  23
HETATM   23  C   UNL     1      43.374 -16.159   5.414  1.00  0.00     0.060 A 
HETATM   24  C   UNL     1      43.073 -16.795   6.630  1.00  0.00     0.031 A 
HETATM   25  C   UNL     1      43.249 -18.173   6.771  1.00  0.00     0.002 A 
HETATM   26  C   UNL     1      43.708 -18.932   5.698  1.00  0.00     0.000 A 
HETATM   27  C   UNL     1      43.983 -18.315   4.478  1.00  0.00     0.002 A 
HETATM   28  C   UNL     1      43.810 -16.935   4.332  1.00  0.00     0.031 A 
ENDBRANCH   2  23
BRANCH   1  29
HETATM   29  C   UNL     1      41.608 -14.435   3.299  1.00  0.00     0.012 A 
HETATM   30  C   UNL     1      40.529 -15.320   3.429  1.00  0.00     0.015 A 
HETATM   31  C   UNL     1      39.805 -15.729   2.309  1.00  0.00     0.001 A 
HETATM   32  C   UNL     1      40.143 -15.246   1.046  1.00  0.00     0.000 A 
HETATM   33  C   UNL     1      41.197 -14.345   0.905  1.00  0.00     0.001 A 
HETATM   34  C   UNL     1      41.921 -13.933   2.026  1.00  0.00     0.015 A 
ENDBRANCH   1  29
TORSDOF 7
ENDMDL
MODEL 5
REMARK VINA RESULT:      -9.3      1.383      2.058
REMARK  7 active torsions:
REMARK  status: ('A' for Active; 'I' for Inactive)
REMARK    1  A    between atoms: C_4  and  C_5 
REMARK    2  A    between atoms: N_6  and  C_7 
REMARK    3  A    between atoms: C_14  and  C_15 
REMARK       I    between atoms: C_15  and  N_16 
REMARK    4  A    between atoms: N_16  and  N_17 
REMARK       I    between atoms: N_17  and  C_18 
REMARK    5  A    between atoms: C_18  and  C_19 
REMARK    6  A    between atoms: C_19  and  C_20 
REMARK    7  A    between atoms: C_23  and  O_24 
ROOT
HETATM    1  C   UNL     1      42.747 -14.722   4.905  1.00  0.00     0.164 C 
HETATM    2  N   UNL     1      41.812 -14.082   4.093  1.00  0.00    -0.213 N 
HETATM    3  N   UNL     1      41.494 -12.874   4.644  1.00  0.00    -0.139 NA
HETATM    4  C   UNL     1      42.393 -12.750   5.635  1.00  0.00     0.241 C 
HETATM    5  N   UNL     1      43.185 -13.858   5.804  1.00  0.00    -0.202 NA
ENDROOT
BRANCH   4   6
HETATM    6  C   UNL     1      42.507 -11.540   6.469  1.00  0.00     0.309 C 
HETATM    7  N   UNL     1      43.462 -11.636   7.467  1.00  0.00    -0.261 N 
HETATM    8  H   UNL     1      43.993 -12.497   7.614  1.00  0.00     0.190 HD
HETATM    9  O   UNL     1      41.824 -10.526   6.320  1.00  0.00    -0.262 OA
BRANCH   7  10
HETATM   10  N   UNL     1      43.608 -10.592   8.382  1.00  0.00    -0.267 N 
HETATM   11  C   UNL     1      44.854 -10.340   8.915  1.00  0.00     0.240 C 
HETATM   12  O   UNL     1      45.852 -10.997   8.624  1.00  0.00    -0.272 OA
HETATM   13  H   UNL     1      42.793 -10.001   8.539  1.00  0.00     0.190 HD
BRANCH  11  14
HETATM   14  C   UNL     1      44.879  -9.194   9.908  1.00  0.00     0.143 C 
BRANCH  14  15
HETATM   15  C   UNL     1      43.779  -9.275  10.937  1.00  0.00    -0.049 A 
HETATM   16  C   UNL     1      42.897  -8.201  11.131  1.00  0.00     0.010 A 
HETATM   17  C   UNL     1      41.864  -8.290  12.069  1.00  0.00     0.037 A 
HETATM   18  C   UNL     1      41.714  -9.454  12.814  1.00  0.00     0.065 A 
HETATM   19  C   UNL     1      42.579 -10.526  12.640  1.00  0.00     0.037 A 
HETATM   20  C   UNL     1      43.610 -10.438  11.703  1.00  0.00     0.010 A 
BRANCH  18  21
HETATM   21  O   UNL     1      40.716  -9.586  13.733  1.00  0.00    -0.361 OA
HETATM   22  H   UNL     1      40.370 -10.492  13.688  1.00  0.00     0.217 HD
ENDBRANCH  18  21
ENDBRANCH  14  15
ENDBRANCH  11  14
ENDBRANCH   7  10
ENDBRANCH   4   6
BRANCH   2  23
HETATM   23  C   UNL     1      41.225 -14.467   2.852  1.00  0.00     0.060 A 
HETATM   24  C   UNL     1      40.334 -15.552   2.828  1.00  0.00     0.031 A 
HETATM   25  C   UNL     1      39.742 -15.955   1.628  1.00  0.00     0.002 A 
HETATM   26  C   UNL     1      40.018 -15.269   0.449  1.00  0.00     0.000 A 
HETATM   27  C   UNL     1      40.878 -14.173   0.468  1.00  0.00     0.002 A 
HETATM   28  C   UNL     1      41.476 -13.766   1.665  1.00  0.00     0.031 A 
ENDBRANCH   2  23
BRANCH   1  29
HETATM   29  C   UNL     1      43.164 -16.124   4.867  1.00  0.00     0.012 A 
HETATM   30  C   UNL     1      43.121 -16.888   6.042  1.00  0.00     0.015 A 
HETATM   31  C   UNL     1      43.487 -18.235   6.028  1.00  0.00     0.001 A 
HETATM   32  C   UNL     1      43.888 -18.836   4.837  1.00  0.00     0.000 A 
HETATM   33  C   UNL     1      43.912 -18.095   3.657  1.00  0.00     0.001 A 
HETATM   34  C   UNL     1      43.542 -16.748   3.668  1.00  0.00     0.015 A 
ENDBRANCH   1  29
TORSDOF 7
ENDMDL
MODEL 6
REMARK VINA RESULT:      -8.8      1.808      2.407
REMARK  7 active torsions:
REMARK  status: ('A' for Active; 'I' for Inactive)
REMARK    1  A    between atoms: C_4  and  C_5 
REMARK    2  A    between atoms: N_6  and  C_7 
REMARK    3  A    between atoms: C_14  and  C_15 
REMARK       I    between atoms: C_15  and  N_16 
REMARK    4  A    between atoms: N_16  and  N_17 
REMARK       I    between atoms: N_17  and  C_18 
REMARK    5  A    between atoms: C_18  and  C_19 
REMARK    6  A    between atoms: C_19  and  C_20 
REMARK    7  A    between atoms: C_23  and  O_24 
ROOT
HETATM    1  C   UNL     1      43.606 -15.305   5.749  1.00  0.00     0.164 C 
HETATM    2  N   UNL     1      42.795 -14.488   4.964  1.00  0.00    -0.213 N 
HETATM    3  N   UNL     1      42.824 -13.217   5.462  1.00  0.00    -0.139 NA
HETATM    4  C   UNL     1      43.801 -13.279   6.382  1.00  0.00     0.241 C 
HETATM    5  N   UNL     1      44.310 -14.540   6.565  1.00  0.00    -0.202 NA
ENDROOT
BRANCH   4   6
HETATM    6  C   UNL     1      44.272 -12.100   7.134  1.00  0.00     0.309 C 
HETATM    7  N   UNL     1      43.307 -11.538   7.954  1.00  0.00    -0.261 N 
HETATM    8  H   UNL     1      42.354 -11.904   7.980  1.00  0.00     0.190 HD
HETATM    9  O   UNL     1      45.408 -11.632   7.054  1.00  0.00    -0.262 OA
BRANCH   7  10
HETATM   10  N   UNL     1      43.598 -10.365   8.652  1.00  0.00    -0.267 N 
HETATM   11  C   UNL     1      43.877 -10.443  10.000  1.00  0.00     0.240 C 
HETATM   12  O   UNL     1      43.881 -11.503  10.623  1.00  0.00    -0.272 OA
HETATM   13  H   UNL     1      43.682  -9.511   8.103  1.00  0.00     0.190 HD
BRANCH  11  14
HETATM   14  C   UNL     1      44.158  -9.101  10.649  1.00  0.00     0.143 C 
BRANCH  14  15
HETATM   15  C   UNL     1      43.092  -8.071  10.370  1.00  0.00    -0.049 A 
HETATM   16  C   UNL     1      41.845  -8.137  11.010  1.00  0.00     0.010 A 
HETATM   17  C   UNL     1      40.869  -7.166  10.767  1.00  0.00     0.037 A 
HETATM   18  C   UNL     1      41.141  -6.128   9.883  1.00  0.00     0.065 A 
HETATM   19  C   UNL     1      42.368  -6.048   9.237  1.00  0.00     0.037 A 
HETATM   20  C   UNL     1      43.342  -7.017   9.479  1.00  0.00     0.010 A 
BRANCH  18  21
HETATM   21  O   UNL     1      40.221  -5.156   9.623  1.00  0.00    -0.361 OA
HETATM   22  H   UNL     1      40.483  -4.348  10.093  1.00  0.00     0.217 HD
ENDBRANCH  18  21
ENDBRANCH  14  15
ENDBRANCH  11  14
ENDBRANCH   7  10
ENDBRANCH   4   6
BRANCH   2  23
HETATM   23  C   UNL     1      42.038 -14.767   3.789  1.00  0.00     0.060 A 
HETATM   24  C   UNL     1      40.824 -15.465   3.910  1.00  0.00     0.031 A 
HETATM   25  C   UNL     1      40.059 -15.754   2.778  1.00  0.00     0.002 A 
HETATM   26  C   UNL     1      40.485 -15.335   1.521  1.00  0.00     0.000 A 
HETATM   27  C   UNL     1      41.672 -14.617   1.393  1.00  0.00     0.002 A 
HETATM   28  C   UNL     1      42.444 -14.326   2.522  1.00  0.00     0.031 A 
ENDBRANCH   2  23
BRANCH   1  29
HETATM   29  C   UNL     1      43.665 -16.767   5.768  1.00  0.00     0.012 A 
HETATM   30  C   UNL     1      43.192 -17.461   6.890  1.00  0.00     0.015 A 
HETATM   31  C   UNL     1      43.211 -18.857   6.923  1.00  0.00     0.001 A 
HETATM   32  C   UNL     1      43.691 -19.573   5.828  1.00  0.00     0.000 A 
HETATM   33  C   UNL     1      44.140 -18.896   4.697  1.00  0.00     0.001 A 
HETATM   34  C   UNL     1      44.118 -17.500   4.661  1.00  0.00     0.015 A 
ENDBRANCH   1  29
TORSDOF 7
ENDMDL
MODEL 7
REMARK VINA RESULT:      -8.7      2.200      2.955
REMARK  7 active torsions:
REMARK  status: ('A' for Active; 'I' for Inactive)
REMARK    1  A    between atoms: C_4  and  C_5 
REMARK    2  A    between atoms: N_6  and  C_7 
REMARK    3  A    between atoms: C_14  and  C_15 
REMARK       I    between atoms: C_15  and  N_16 
REMARK    4  A    between atoms: N_16  and  N_17 
REMARK       I    between atoms: N_17  and  C_18 
REMARK    5  A    between atoms: C_18  and  C_19 
REMARK    6  A    between atoms: C_19  and  C_20 
REMARK    7  A    between atoms: C_23  and  O_24 
ROOT
HETATM    1  C   UNL     1      42.508 -13.407   4.029  1.00  0.00     0.164 C 
HETATM    2  N   UNL     1      41.686 -12.378   3.573  1.00  0.00    -0.213 N 
HETATM    3  N   UNL     1      41.527 -11.459   4.569  1.00  0.00    -0.139 NA
HETATM    4  C   UNL     1      42.416 -11.861   5.493  1.00  0.00     0.241 C 
HETATM    5  N   UNL     1      43.044 -13.040   5.180  1.00  0.00    -0.202 NA
ENDROOT
BRANCH   4   6
HETATM    6  C   UNL     1      42.680 -11.109   6.734  1.00  0.00     0.309 C 
HETATM    7  N   UNL     1      43.608 -11.711   7.567  1.00  0.00    -0.261 N 
HETATM    8  H   UNL     1      44.022 -12.616   7.334  1.00  0.00     0.190 HD
HETATM    9  O   UNL     1      42.134 -10.045   7.032  1.00  0.00    -0.262 OA
BRANCH   7  10
HETATM   10  N   UNL     1      43.881 -11.146   8.814  1.00  0.00    -0.267 N 
HETATM   11  C   UNL     1      45.021 -10.385   8.966  1.00  0.00     0.240 C 
HETATM   12  O   UNL     1      45.816 -10.178   8.050  1.00  0.00    -0.272 OA
HETATM   13  H   UNL     1      43.167 -11.249   9.532  1.00  0.00     0.190 HD
BRANCH  11  14
HETATM   14  C   UNL     1      45.216  -9.843  10.369  1.00  0.00     0.143 C 
BRANCH  14  15
HETATM   15  C   UNL     1      43.941  -9.330  10.991  1.00  0.00    -0.049 A 
HETATM   16  C   UNL     1      43.382  -8.109  10.580  1.00  0.00     0.010 A 
HETATM   17  C   UNL     1      42.188  -7.650  11.142  1.00  0.00     0.037 A 
HETATM   18  C   UNL     1      41.552  -8.412  12.117  1.00  0.00     0.065 A 
HETATM   19  C   UNL     1      42.091  -9.619  12.539  1.00  0.00     0.037 A 
HETATM   20  C   UNL     1      43.283 -10.079  11.977  1.00  0.00     0.010 A 
BRANCH  18  21
HETATM   21  O   UNL     1      40.382  -8.005  12.685  1.00  0.00    -0.361 OA
HETATM   22  H   UNL     1      40.124  -7.156  12.292  1.00  0.00     0.217 HD
ENDBRANCH  18  21
ENDBRANCH  14  15
ENDBRANCH  11  14
ENDBRANCH   7  10
ENDBRANCH   4   6
BRANCH   2  23
HETATM   23  C   UNL     1      41.075 -12.155   2.304  1.00  0.00     0.060 A 
HETATM   24  C   UNL     1      41.638 -11.205   1.435  1.00  0.00     0.031 A 
HETATM   25  C   UNL     1      41.064 -10.963   0.185  1.00  0.00     0.002 A 
HETATM   26  C   UNL     1      39.939 -11.678  -0.217  1.00  0.00     0.000 A 
HETATM   27  C   UNL     1      39.391 -12.642   0.626  1.00  0.00     0.002 A 
HETATM   28  C   UNL     1      39.959 -12.888   1.880  1.00  0.00     0.031 A 
ENDBRANCH   2  23
BRANCH   1  29
HETATM   29  C   UNL     1      42.727 -14.722   3.424  1.00  0.00     0.012 A 
HETATM   30  C   UNL     1      43.166 -14.804   2.095  1.00  0.00     0.015 A 
HETATM   31  C   UNL     1      43.410 -16.044   1.502  1.00  0.00     0.001 A 
HETATM   32  C   UNL     1      43.229 -17.214   2.236  1.00  0.00     0.000 A 
HETATM   33  C   UNL     1      42.818 -17.146   3.565  1.00  0.00     0.001 A 
HETATM   34  C   UNL     1      42.577 -15.906   4.161  1.00  0.00     0.015 A 
ENDBRANCH   1  29
TORSDOF 7
ENDMDL
MODEL 8
REMARK VINA RESULT:      -8.5      3.681     10.361
REMARK  7 active torsions:
REMARK  status: ('A' for Active; 'I' for Inactive)
REMARK    1  A    between atoms: C_4  and  C_5 
REMARK    2  A    between atoms: N_6  and  C_7 
REMARK    3  A    between atoms: C_14  and  C_15 
REMARK       I    between atoms: C_15  and  N_16 
REMARK    4  A    between atoms: N_16  and  N_17 
REMARK       I    between atoms: N_17  and  C_18 
REMARK    5  A    between atoms: C_18  and  C_19 
REMARK    6  A    between atoms: C_19  and  C_20 
REMARK    7  A    between atoms: C_23  and  O_24 
ROOT
HETATM    1  C   UNL     1      42.067  -9.466   6.378  1.00  0.00     0.164 C 
HETATM    2  N   UNL     1      42.911 -10.191   7.217  1.00  0.00    -0.213 N 
HETATM    3  N   UNL     1      43.301 -11.333   6.579  1.00  0.00    -0.139 NA
HETATM    4  C   UNL     1      42.852 -11.145   5.327  1.00  0.00     0.241 C 
HETATM    5  N   UNL     1      42.110 -10.002   5.171  1.00  0.00    -0.202 NA
ENDROOT
BRANCH   4   6
HETATM    6  C   UNL     1      43.122 -12.090   4.227  1.00  0.00     0.309 C 
HETATM    7  N   UNL     1      42.900 -13.415   4.560  1.00  0.00    -0.261 N 
HETATM    8  H   UNL     1      42.617 -13.685   5.503  1.00  0.00     0.190 HD
HETATM    9  O   UNL     1      43.518 -11.759   3.108  1.00  0.00    -0.262 OA
BRANCH   7  10
HETATM   10  N   UNL     1      43.203 -14.416   3.635  1.00  0.00    -0.267 N 
HETATM   11  C   UNL     1      42.267 -15.398   3.383  1.00  0.00     0.240 C 
HETATM   12  O   UNL     1      41.171 -15.436   3.939  1.00  0.00    -0.272 OA
HETATM   13  H   UNL     1      44.074 -14.316   3.118  1.00  0.00     0.190 HD
BRANCH  11  14
HETATM   14  C   UNL     1      42.721 -16.436   2.376  1.00  0.00     0.143 C 
BRANCH  14  15
HETATM   15  C   UNL     1      43.171 -17.727   3.013  1.00  0.00    -0.049 A 
HETATM   16  C   UNL     1      43.567 -17.763   4.359  1.00  0.00     0.010 A 
HETATM   17  C   UNL     1      43.961 -18.966   4.951  1.00  0.00     0.037 A 
HETATM   18  C   UNL     1      43.959 -20.134   4.197  1.00  0.00     0.065 A 
HETATM   19  C   UNL     1      43.574 -20.118   2.863  1.00  0.00     0.037 A 
HETATM   20  C   UNL     1      43.181 -18.917   2.271  1.00  0.00     0.010 A 
BRANCH  18  21
HETATM   21  O   UNL     1      44.327 -21.330   4.738  1.00  0.00    -0.361 OA
HETATM   22  H   UNL     1      43.774 -22.028   4.353  1.00  0.00     0.217 HD
ENDBRANCH  18  21
ENDBRANCH  14  15
ENDBRANCH  11  14
ENDBRANCH   7  10
ENDBRANCH   4   6
BRANCH   2  23
HETATM   23  C   UNL     1      43.412  -9.906   8.521  1.00  0.00     0.060 A 
HETATM   24  C   UNL     1      42.505  -9.577   9.542  1.00  0.00     0.031 A 
HETATM   25  C   UNL     1      42.963  -9.292  10.830  1.00  0.00     0.002 A 
HETATM   26  C   UNL     1      44.324  -9.351  11.117  1.00  0.00     0.000 A 
HETATM   27  C   UNL     1      45.229  -9.705  10.118  1.00  0.00     0.002 A 
HETATM   28  C   UNL     1      44.777  -9.990   8.825  1.00  0.00     0.031 A 
ENDBRANCH   2  23
BRANCH   1  29
HETATM   29  C   UNL     1      41.199  -8.340   6.727  1.00  0.00     0.012 A 
HETATM   30  C   UNL     1      41.713  -7.036   6.688  1.00  0.00     0.015 A 
HETATM   31  C   UNL     1      40.900  -5.942   6.989  1.00  0.00     0.001 A 
HETATM   32  C   UNL     1      39.561  -6.139   7.320  1.00  0.00     0.000 A 
HETATM   33  C   UNL     1      39.031  -7.428   7.338  1.00  0.00     0.001 A 
HETATM   34  C   UNL     1      39.842  -8.523   7.034  1.00  0.00     0.015 A 
ENDBRANCH   1  29
TORSDOF 7
ENDMDL
MODEL 9
REMARK VINA RESULT:      -8.4      3.760     10.037
REMARK  7 active torsions:
REMARK  status: ('A' for Active; 'I' for Inactive)
REMARK    1  A    between atoms: C_4  and  C_5 
REMARK    2  A    between atoms: N_6  and  C_7 
REMARK    3  A    between atoms: C_14  and  C_15 
REMARK       I    between atoms: C_15  and  N_16 
REMARK    4  A    between atoms: N_16  and  N_17 
REMARK       I    between atoms: N_17  and  C_18 
REMARK    5  A    between atoms: C_18  and  C_19 
REMARK    6  A    between atoms: C_19  and  C_20 
REMARK    7  A    between atoms: C_23  and  O_24 
ROOT
HETATM    1  C   UNL     1      42.943 -10.356   6.999  1.00  0.00     0.164 C 
HETATM    2  N   UNL     1      41.991  -9.560   6.364  1.00  0.00    -0.213 N 
HETATM    3  N   UNL     1      41.683 -10.110   5.154  1.00  0.00    -0.139 NA
HETATM    4  C   UNL     1      42.295 -11.305   5.203  1.00  0.00     0.241 C 
HETATM    5  N   UNL     1      43.057 -11.490   6.329  1.00  0.00    -0.202 NA
ENDROOT
BRANCH   4   6
HETATM    6  C   UNL     1      42.168 -12.318   4.138  1.00  0.00     0.309 C 
HETATM    7  N   UNL     1      43.136 -13.307   4.188  1.00  0.00    -0.261 N 
HETATM    8  H   UNL     1      43.882 -13.285   4.885  1.00  0.00     0.190 HD
HETATM    9  O   UNL     1      41.297 -12.305   3.267  1.00  0.00    -0.262 OA
BRANCH   7  10
HETATM   10  N   UNL     1      43.180 -14.275   3.184  1.00  0.00    -0.267 N 
HETATM   11  C   UNL     1      42.600 -15.504   3.416  1.00  0.00     0.240 C 
HETATM   12  O   UNL     1      42.042 -15.792   4.473  1.00  0.00    -0.272 OA
HETATM   13  H   UNL     1      43.562 -13.988   2.284  1.00  0.00     0.190 HD
BRANCH  11  14
HETATM   14  C   UNL     1      42.730 -16.475   2.258  1.00  0.00     0.143 C 
BRANCH  14  15
HETATM   15  C   UNL     1      43.154 -17.858   2.685  1.00  0.00    -0.049 A 
HETATM   16  C   UNL     1      43.878 -18.052   3.872  1.00  0.00     0.010 A 
HETATM   17  C   UNL     1      44.247 -19.338   4.276  1.00  0.00     0.037 A 
HETATM   18  C   UNL     1      43.893 -20.431   3.492  1.00  0.00     0.065 A 
HETATM   19  C   UNL     1      43.180 -20.258   2.313  1.00  0.00     0.037 A 
HETATM   20  C   UNL     1      42.811 -18.975   1.909  1.00  0.00     0.010 A 
BRANCH  18  21
HETATM   21  O   UNL     1      44.225 -21.702   3.853  1.00  0.00    -0.361 OA
HETATM   22  H   UNL     1      43.432 -22.259   3.797  1.00  0.00     0.217 HD
ENDBRANCH  18  21
ENDBRANCH  14  15
ENDBRANCH  11  14
ENDBRANCH   7  10
ENDBRANCH   4   6
BRANCH   2  23
HETATM   23  C   UNL     1      41.323  -8.374   6.790  1.00  0.00     0.060 A 
HETATM   24  C   UNL     1      40.378  -8.459   7.825  1.00  0.00     0.031 A 
HETATM   25  C   UNL     1      39.706  -7.316   8.265  1.00  0.00     0.002 A 
HETATM   26  C   UNL     1      39.984  -6.078   7.692  1.00  0.00     0.000 A 
HETATM   27  C   UNL     1      40.941  -5.979   6.684  1.00  0.00     0.002 A 
HETATM   28  C   UNL     1      41.616  -7.120   6.237  1.00  0.00     0.031 A 
ENDBRANCH   2  23
BRANCH   1  29
HETATM   29  C   UNL     1      43.762 -10.026   8.166  1.00  0.00     0.012 A 
HETATM   30  C   UNL     1      43.222 -10.171   9.451  1.00  0.00     0.015 A 
HETATM   31  C   UNL     1      43.990  -9.889  10.582  1.00  0.00     0.001 A 
HETATM   32  C   UNL     1      45.312  -9.471  10.439  1.00  0.00     0.000 A 
HETATM   33  C   UNL     1      45.869  -9.347   9.168  1.00  0.00     0.001 A 
HETATM   34  C   UNL     1      45.103  -9.631   8.036  1.00  0.00     0.015 A 
ENDBRANCH   1  29
TORSDOF 7
ENDMDL
MODEL 10
REMARK VINA RESULT:      -8.2      2.872     10.913
REMARK  7 active torsions:
REMARK  status: ('A' for Active; 'I' for Inactive)
REMARK    1  A    between atoms: C_4  and  C_5 
REMARK    2  A    between atoms: N_6  and  C_7 
REMARK    3  A    between atoms: C_14  and  C_15 
REMARK       I    between atoms: C_15  and  N_16 
REMARK    4  A    between atoms: N_16  and  N_17 
REMARK       I    between atoms: N_17  and  C_18 
REMARK    5  A    between atoms: C_18  and  C_19 
REMARK    6  A    between atoms: C_19  and  C_20 
REMARK    7  A    between atoms: C_23  and  O_24 
ROOT
HETATM    1  C   UNL     1      42.744  -7.991   9.825  1.00  0.00     0.164 C 
HETATM    2  N   UNL     1      42.736  -8.850  10.923  1.00  0.00    -0.213 N 
HETATM    3  N   UNL     1      43.123 -10.095  10.519  1.00  0.00    -0.139 NA
HETATM    4  C   UNL     1      43.543  -9.885   9.261  1.00  0.00     0.241 C 
HETATM    5  N   UNL     1      43.341  -8.602   8.817  1.00  0.00    -0.202 NA
ENDROOT
BRANCH   4   6
HETATM    6  C   UNL     1      44.153 -10.941   8.431  1.00  0.00     0.309 C 
HETATM    7  N   UNL     1      43.238 -11.661   7.682  1.00  0.00    -0.261 N 
HETATM    8  H   UNL     1      42.235 -11.482   7.752  1.00  0.00     0.190 HD
HETATM    9  O   UNL     1      45.359 -11.186   8.394  1.00  0.00    -0.262 OA
BRANCH   7  10
HETATM   10  N   UNL     1      43.676 -12.747   6.921  1.00  0.00    -0.267 N 
HETATM   11  C   UNL     1      42.740 -13.572   6.334  1.00  0.00     0.240 C 
HETATM   12  O   UNL     1      41.528 -13.397   6.449  1.00  0.00    -0.272 OA
HETATM   13  H   UNL     1      44.679 -12.821   6.760  1.00  0.00     0.190 HD
BRANCH  11  14
HETATM   14  C   UNL     1      43.340 -14.723   5.551  1.00  0.00     0.143 C 
BRANCH  14  15
HETATM   15  C   UNL     1      42.846 -14.797   4.128  1.00  0.00    -0.049 A 
HETATM   16  C   UNL     1      42.281 -15.979   3.624  1.00  0.00     0.010 A 
HETATM   17  C   UNL     1      41.803 -16.034   2.312  1.00  0.00     0.037 A 
HETATM   18  C   UNL     1      41.890 -14.907   1.502  1.00  0.00     0.065 A 
HETATM   19  C   UNL     1      42.450 -13.730   1.981  1.00  0.00     0.037 A 
HETATM   20  C   UNL     1      42.927 -13.674   3.292  1.00  0.00     0.010 A 
BRANCH  18  21
HETATM   21  O   UNL     1      41.429 -14.915   0.220  1.00  0.00    -0.361 OA
HETATM   22  H   UNL     1      41.915 -15.589  -0.281  1.00  0.00     0.217 HD
ENDBRANCH  18  21
ENDBRANCH  14  15
ENDBRANCH  11  14
ENDBRANCH   7  10
ENDBRANCH   4   6
BRANCH   2  23
HETATM   23  C   UNL     1      42.444  -8.613  12.298  1.00  0.00     0.060 A 
HETATM   24  C   UNL     1      43.248  -7.717  13.022  1.00  0.00     0.031 A 
HETATM   25  C   UNL     1      42.989  -7.464  14.371  1.00  0.00     0.002 A 
HETATM   26  C   UNL     1      41.916  -8.086  15.004  1.00  0.00     0.000 A 
HETATM   27  C   UNL     1      41.095  -8.954  14.288  1.00  0.00     0.002 A 
HETATM   28  C   UNL     1      41.351  -9.214  12.937  1.00  0.00     0.031 A 
ENDBRANCH   2  23
BRANCH   1  29
HETATM   29  C   UNL     1      42.150  -6.658   9.718  1.00  0.00     0.012 A 
HETATM   30  C   UNL     1      40.849  -6.521   9.213  1.00  0.00     0.015 A 
HETATM   31  C   UNL     1      40.248  -5.265   9.126  1.00  0.00     0.001 A 
HETATM   32  C   UNL     1      40.937  -4.132   9.556  1.00  0.00     0.000 A 
HETATM   33  C   UNL     1      42.220  -4.256  10.084  1.00  0.00     0.001 A 
HETATM   34  C   UNL     1      42.822  -5.514  10.174  1.00  0.00     0.015 A 
ENDBRANCH   1  29
TORSDOF 7
ENDMDL
