MODEL 1
REMARK VINA RESULT:      -8.8      0.000      0.000
REMARK  8 active torsions:
REMARK  status: ('A' for Active; 'I' for Inactive)
REMARK    1  A    between atoms: O_2  and  C_3 
REMARK    2  A    between atoms: C_11  and  C_12 
REMARK       I    between atoms: C_12  and  N_13 
REMARK    3  A    between atoms: N_13  and  C_14 
REMARK    4  A    between atoms: C_14  and  C_15 
REMARK    5  A    between atoms: C_15  and  C_16 
REMARK    6  A    between atoms: C_16  and  C_17 
REMARK    7  A    between atoms: C_17  and  O_18 
REMARK    8  A    between atoms: O_18  and  C_19 
ROOT
HETATM    1  C   UNL     1      40.882 -13.049   4.600  1.00  0.00     0.268 C 
HETATM    2  N   UNL     1      40.141 -14.042   5.184  1.00  0.00    -0.345 N 
HETATM    3  O   UNL     1      40.612 -12.788   3.427  1.00  0.00    -0.266 OA
HETATM    4  H   UNL     1      39.482 -14.431   4.523  1.00  0.00     0.163 HD
ENDROOT
BRANCH   2   5
HETATM    5  C   UNL     1      40.150 -14.618   6.507  1.00  0.00     0.217 C 
BRANCH   5   6
HETATM    6  C   UNL     1      41.318 -15.568   6.712  1.00  0.00    -0.085 C 
BRANCH   6   7
HETATM    7  C   UNL     1      42.320 -16.383   6.888  1.00  0.00    -0.078 C 
BRANCH   7   8
HETATM    8  C   UNL     1      43.489 -17.334   7.094  1.00  0.00     0.269 C 
BRANCH   8   9
HETATM    9  O   UNL     1      44.416 -17.158   6.033  1.00  0.00    -0.337 OA
BRANCH   9  10
HETATM   10  C   UNL     1      43.926 -17.154   4.743  1.00  0.00     0.099 A 
HETATM   11  C   UNL     1      43.866 -18.413   4.114  1.00  0.00     0.100 A 
HETATM   12  C   UNL     1      43.384 -18.467   2.786  1.00  0.00    -0.005 A 
HETATM   13  N   UNL     1      44.252 -19.544   4.752  1.00  0.00    -0.257 NA
HETATM   14  C   UNL     1      43.314 -19.711   2.145  1.00  0.00     0.015 A 
HETATM   15  C   UNL     1      42.984 -17.298   2.120  1.00  0.00     0.014 A 
HETATM   16  C   UNL     1      43.709 -20.861   2.814  1.00  0.00     0.020 A 
HETATM   17  C   UNL     1      44.167 -20.726   4.108  1.00  0.00     0.117 A 
HETATM   18  C   UNL     1      43.053 -16.066   2.760  1.00  0.00     0.004 A 
HETATM   19  C   UNL     1      43.522 -15.992   4.068  1.00  0.00     0.039 A 
ENDBRANCH   9  10
ENDBRANCH   8   9
ENDBRANCH   7   8
ENDBRANCH   6   7
ENDBRANCH   5   6
ENDBRANCH   2   5
BRANCH   1  20
HETATM   20  C   UNL     1      41.957 -12.387   5.306  1.00  0.00     0.102 A 
HETATM   21  N   UNL     1      41.866 -11.469   6.327  1.00  0.00    -0.351 N 
HETATM   22  C   UNL     1      43.107 -11.163   6.837  1.00  0.00     0.045 A 
HETATM   23  H   UNL     1      41.007 -11.106   6.706  1.00  0.00     0.166 HD
HETATM   24  C   UNL     1      43.464 -10.370   7.939  1.00  0.00     0.067 A 
HETATM   25  C   UNL     1      44.043 -11.810   6.037  1.00  0.00    -0.007 A 
HETATM   26  C   UNL     1      44.827 -10.250   8.237  1.00  0.00     0.070 A 
HETATM   27  C   UNL     1      45.782 -10.872   7.430  1.00  0.00     0.038 A 
HETATM   28  C   UNL     1      45.409 -11.652   6.329  1.00  0.00     0.016 A 
HETATM   29  C   UNL     1      43.315 -12.539   5.061  1.00  0.00     0.049 A 
BRANCH  26  30
HETATM   30  O   UNL     1      45.347  -9.541   9.287  1.00  0.00    -0.356 OA
HETATM   31  C   UNL     1      44.928  -9.932  10.588  1.00  0.00     0.210 C 
ENDBRANCH  26  30
ENDBRANCH   1  20
TORSDOF 8
ENDMDL
MODEL 2
REMARK VINA RESULT:      -8.5      2.451      4.208
REMARK  8 active torsions:
REMARK  status: ('A' for Active; 'I' for Inactive)
REMARK    1  A    between atoms: O_2  and  C_3 
REMARK    2  A    between atoms: C_11  and  C_12 
REMARK       I    between atoms: C_12  and  N_13 
REMARK    3  A    between atoms: N_13  and  C_14 
REMARK    4  A    between atoms: C_14  and  C_15 
REMARK    5  A    between atoms: C_15  and  C_16 
REMARK    6  A    between atoms: C_16  and  C_17 
REMARK    7  A    between atoms: C_17  and  O_18 
REMARK    8  A    between atoms: O_18  and  C_19 
ROOT
HETATM    1  C   UNL     1      45.850 -10.411   7.705  1.00  0.00     0.268 C 
HETATM    2  N   UNL     1      45.189 -11.303   6.903  1.00  0.00    -0.345 N 
HETATM    3  O   UNL     1      47.071 -10.347   7.557  1.00  0.00    -0.266 OA
HETATM    4  H   UNL     1      45.842 -11.803   6.313  1.00  0.00     0.163 HD
ENDROOT
BRANCH   2   5
HETATM    5  C   UNL     1      43.797 -11.656   6.775  1.00  0.00     0.217 C 
BRANCH   5   6
HETATM    6  C   UNL     1      43.578 -13.159   6.821  1.00  0.00    -0.085 C 
BRANCH   6   7
HETATM    7  C   UNL     1      43.389 -14.448   6.860  1.00  0.00    -0.078 C 
BRANCH   7   8
HETATM    8  C   UNL     1      43.169 -15.952   6.906  1.00  0.00     0.269 C 
BRANCH   8   9
HETATM    9  O   UNL     1      44.107 -16.579   6.044  1.00  0.00    -0.337 OA
BRANCH   9  10
HETATM   10  C   UNL     1      43.729 -16.809   4.737  1.00  0.00     0.099 A 
HETATM   11  C   UNL     1      43.773 -18.154   4.322  1.00  0.00     0.100 A 
HETATM   12  C   UNL     1      43.408 -18.447   2.987  1.00  0.00    -0.005 A 
HETATM   13  N   UNL     1      44.150 -19.145   5.165  1.00  0.00    -0.257 NA
HETATM   14  C   UNL     1      43.444 -19.780   2.557  1.00  0.00     0.015 A 
HETATM   15  C   UNL     1      43.019 -17.424   2.109  1.00  0.00     0.014 A 
HETATM   16  C   UNL     1      43.827 -20.784   3.435  1.00  0.00     0.020 A 
HETATM   17  C   UNL     1      44.168 -20.418   4.720  1.00  0.00     0.117 A 
HETATM   18  C   UNL     1      42.983 -16.103   2.541  1.00  0.00     0.004 A 
HETATM   19  C   UNL     1      43.337 -15.794   3.851  1.00  0.00     0.039 A 
ENDBRANCH   9  10
ENDBRANCH   8   9
ENDBRANCH   7   8
ENDBRANCH   6   7
ENDBRANCH   5   6
ENDBRANCH   2   5
BRANCH   1  20
HETATM   20  C   UNL     1      45.156  -9.629   8.706  1.00  0.00     0.102 A 
HETATM   21  N   UNL     1      44.502  -8.430   8.546  1.00  0.00    -0.351 N 
HETATM   22  C   UNL     1      43.848  -8.059   9.699  1.00  0.00     0.045 A 
HETATM   23  H   UNL     1      44.447  -7.909   7.687  1.00  0.00     0.166 HD
HETATM   24  C   UNL     1      42.982  -6.981   9.943  1.00  0.00     0.067 A 
HETATM   25  C   UNL     1      44.192  -8.988  10.675  1.00  0.00    -0.007 A 
HETATM   26  C   UNL     1      42.443  -6.862  11.229  1.00  0.00     0.070 A 
HETATM   27  C   UNL     1      42.796  -7.770  12.229  1.00  0.00     0.038 A 
HETATM   28  C   UNL     1      43.668  -8.836  11.970  1.00  0.00     0.016 A 
HETATM   29  C   UNL     1      45.040  -9.941  10.054  1.00  0.00     0.049 A 
BRANCH  26  30
HETATM   30  O   UNL     1      41.565  -5.890  11.632  1.00  0.00    -0.356 OA
HETATM   31  C   UNL     1      41.916  -5.159  12.798  1.00  0.00     0.210 C 
ENDBRANCH  26  30
ENDBRANCH   1  20
TORSDOF 8
ENDMDL
MODEL 3
REMARK VINA RESULT:      -8.4      2.519      4.599
REMARK  8 active torsions:
REMARK  status: ('A' for Active; 'I' for Inactive)
REMARK    1  A    between atoms: O_2  and  C_3 
REMARK    2  A    between atoms: C_11  and  C_12 
REMARK       I    between atoms: C_12  and  N_13 
REMARK    3  A    between atoms: N_13  and  C_14 
REMARK    4  A    between atoms: C_14  and  C_15 
REMARK    5  A    between atoms: C_15  and  C_16 
REMARK    6  A    between atoms: C_16  and  C_17 
REMARK    7  A    between atoms: C_17  and  O_18 
REMARK    8  A    between atoms: O_18  and  C_19 
ROOT
HETATM    1  C   UNL     1      45.990 -10.698   7.514  1.00  0.00     0.268 C 
HETATM    2  N   UNL     1      45.314 -11.552   6.683  1.00  0.00    -0.345 N 
HETATM    3  O   UNL     1      47.218 -10.709   7.422  1.00  0.00    -0.266 OA
HETATM    4  H   UNL     1      45.961 -12.093   6.124  1.00  0.00     0.163 HD
ENDROOT
BRANCH   2   5
HETATM    5  C   UNL     1      43.910 -11.821   6.491  1.00  0.00     0.217 C 
BRANCH   5   6
HETATM    6  C   UNL     1      43.535 -13.238   6.893  1.00  0.00    -0.085 C 
BRANCH   6   7
HETATM    7  C   UNL     1      43.214 -14.453   7.237  1.00  0.00    -0.078 C 
BRANCH   7   8
HETATM    8  C   UNL     1      42.839 -15.871   7.639  1.00  0.00     0.269 C 
BRANCH   8   9
HETATM    9  O   UNL     1      42.088 -16.461   6.588  1.00  0.00    -0.337 OA
BRANCH   9  10
HETATM   10  C   UNL     1      42.772 -17.183   5.632  1.00  0.00     0.099 A 
HETATM   11  C   UNL     1      42.676 -16.689   4.317  1.00  0.00     0.100 A 
HETATM   12  C   UNL     1      43.348 -17.397   3.294  1.00  0.00    -0.005 A 
HETATM   13  N   UNL     1      41.968 -15.571   4.029  1.00  0.00    -0.257 NA
HETATM   14  C   UNL     1      43.266 -16.918   1.979  1.00  0.00     0.015 A 
HETATM   15  C   UNL     1      44.082 -18.556   3.586  1.00  0.00     0.014 A 
HETATM   16  C   UNL     1      42.540 -15.768   1.701  1.00  0.00     0.020 A 
HETATM   17  C   UNL     1      41.914 -15.135   2.754  1.00  0.00     0.117 A 
HETATM   18  C   UNL     1      44.162 -19.026   4.892  1.00  0.00     0.004 A 
HETATM   19  C   UNL     1      43.509 -18.343   5.914  1.00  0.00     0.039 A 
ENDBRANCH   9  10
ENDBRANCH   8   9
ENDBRANCH   7   8
ENDBRANCH   6   7
ENDBRANCH   5   6
ENDBRANCH   2   5
BRANCH   1  20
HETATM   20  C   UNL     1      45.299  -9.873   8.480  1.00  0.00     0.102 A 
HETATM   21  N   UNL     1      44.680  -8.661   8.277  1.00  0.00    -0.351 N 
HETATM   22  C   UNL     1      44.015  -8.243   9.408  1.00  0.00     0.045 A 
HETATM   23  H   UNL     1      44.653  -8.163   7.403  1.00  0.00     0.166 HD
HETATM   24  C   UNL     1      43.174  -7.136   9.608  1.00  0.00     0.067 A 
HETATM   25  C   UNL     1      44.319  -9.153  10.414  1.00  0.00    -0.007 A 
HETATM   26  C   UNL     1      42.616  -6.969  10.881  1.00  0.00     0.070 A 
HETATM   27  C   UNL     1      42.928  -7.858  11.910  1.00  0.00     0.038 A 
HETATM   28  C   UNL     1      43.776  -8.953  11.695  1.00  0.00     0.016 A 
HETATM   29  C   UNL     1      45.152 -10.144   9.834  1.00  0.00     0.049 A 
BRANCH  26  30
HETATM   30  O   UNL     1      41.757  -5.964  11.241  1.00  0.00    -0.356 OA
HETATM   31  C   UNL     1      41.125  -6.093  12.507  1.00  0.00     0.210 C 
ENDBRANCH  26  30
ENDBRANCH   1  20
TORSDOF 8
ENDMDL
MODEL 4
REMARK VINA RESULT:      -8.4      2.600      5.452
REMARK  8 active torsions:
REMARK  status: ('A' for Active; 'I' for Inactive)
REMARK    1  A    between atoms: O_2  and  C_3 
REMARK    2  A    between atoms: C_11  and  C_12 
REMARK       I    between atoms: C_12  and  N_13 
REMARK    3  A    between atoms: N_13  and  C_14 
REMARK    4  A    between atoms: C_14  and  C_15 
REMARK    5  A    between atoms: C_15  and  C_16 
REMARK    6  A    between atoms: C_16  and  C_17 
REMARK    7  A    between atoms: C_17  and  O_18 
REMARK    8  A    between atoms: O_18  and  C_19 
ROOT
HETATM    1  C   UNL     1      39.733 -11.930   5.830  1.00  0.00     0.268 C 
HETATM    2  N   UNL     1      40.903 -11.607   6.466  1.00  0.00    -0.345 N 
HETATM    3  O   UNL     1      38.705 -11.836   6.501  1.00  0.00    -0.266 OA
HETATM    4  H   UNL     1      40.727 -11.357   7.430  1.00  0.00     0.163 HD
ENDROOT
BRANCH   2   5
HETATM    5  C   UNL     1      42.278 -11.585   6.030  1.00  0.00     0.217 C 
BRANCH   5   6
HETATM    6  C   UNL     1      42.948 -12.942   6.169  1.00  0.00    -0.085 C 
BRANCH   6   7
HETATM    7  C   UNL     1      43.522 -14.106   6.289  1.00  0.00    -0.078 C 
BRANCH   7   8
HETATM    8  C   UNL     1      44.193 -15.463   6.427  1.00  0.00     0.269 C 
BRANCH   8   9
HETATM    9  O   UNL     1      43.270 -16.472   6.043  1.00  0.00    -0.337 OA
BRANCH   9  10
HETATM   10  C   UNL     1      43.293 -16.902   4.733  1.00  0.00     0.099 A 
HETATM   11  C   UNL     1      43.546 -18.276   4.551  1.00  0.00     0.100 A 
HETATM   12  C   UNL     1      43.594 -18.769   3.226  1.00  0.00    -0.005 A 
HETATM   13  N   UNL     1      43.738 -19.107   5.603  1.00  0.00    -0.257 NA
HETATM   14  C   UNL     1      43.842 -20.134   3.026  1.00  0.00     0.015 A 
HETATM   15  C   UNL     1      43.398 -17.912   2.133  1.00  0.00     0.014 A 
HETATM   16  C   UNL     1      44.032 -20.974   4.115  1.00  0.00     0.020 A 
HETATM   17  C   UNL     1      43.970 -20.416   5.374  1.00  0.00     0.117 A 
HETATM   18  C   UNL     1      43.150 -16.560   2.337  1.00  0.00     0.004 A 
HETATM   19  C   UNL     1      43.097 -16.053   3.632  1.00  0.00     0.039 A 
ENDBRANCH   9  10
ENDBRANCH   8   9
ENDBRANCH   7   8
ENDBRANCH   6   7
ENDBRANCH   5   6
ENDBRANCH   2   5
BRANCH   1  20
HETATM   20  C   UNL     1      39.718 -12.408   4.465  1.00  0.00     0.102 A 
HETATM   21  N   UNL     1      39.487 -11.689   3.314  1.00  0.00    -0.351 N 
HETATM   22  C   UNL     1      39.687 -12.462   2.192  1.00  0.00     0.045 A 
HETATM   23  H   UNL     1      39.262 -10.709   3.278  1.00  0.00     0.166 HD
HETATM   24  C   UNL     1      39.670 -12.109   0.834  1.00  0.00     0.067 A 
HETATM   25  C   UNL     1      39.934 -13.757   2.634  1.00  0.00    -0.007 A 
HETATM   26  C   UNL     1      39.928 -13.118  -0.101  1.00  0.00     0.070 A 
HETATM   27  C   UNL     1      40.153 -14.430   0.322  1.00  0.00     0.038 A 
HETATM   28  C   UNL     1      40.159 -14.766   1.682  1.00  0.00     0.016 A 
HETATM   29  C   UNL     1      39.911 -13.719   4.052  1.00  0.00     0.049 A 
BRANCH  26  30
HETATM   30  O   UNL     1      39.977 -12.944  -1.459  1.00  0.00    -0.356 OA
HETATM   31  C   UNL     1      39.733 -14.095  -2.256  1.00  0.00     0.210 C 
ENDBRANCH  26  30
ENDBRANCH   1  20
TORSDOF 8
ENDMDL
MODEL 5
REMARK VINA RESULT:      -8.3      2.075      8.869
REMARK  8 active torsions:
REMARK  status: ('A' for Active; 'I' for Inactive)
REMARK    1  A    between atoms: O_2  and  C_3 
REMARK    2  A    between atoms: C_11  and  C_12 
REMARK       I    between atoms: C_12  and  N_13 
REMARK    3  A    between atoms: N_13  and  C_14 
REMARK    4  A    between atoms: C_14  and  C_15 
REMARK    5  A    between atoms: C_15  and  C_16 
REMARK    6  A    between atoms: C_16  and  C_17 
REMARK    7  A    between atoms: C_17  and  O_18 
REMARK    8  A    between atoms: O_18  and  C_19 
ROOT
HETATM    1  C   UNL     1      41.415 -13.097   4.579  1.00  0.00     0.268 C 
HETATM    2  N   UNL     1      42.155 -11.962   4.377  1.00  0.00    -0.345 N 
HETATM    3  O   UNL     1      40.232 -12.929   4.878  1.00  0.00    -0.266 OA
HETATM    4  H   UNL     1      41.592 -11.137   4.537  1.00  0.00     0.163 HD
ENDROOT
BRANCH   2   5
HETATM    5  C   UNL     1      43.535 -11.747   4.017  1.00  0.00     0.217 C 
BRANCH   5   6
HETATM    6  C   UNL     1      44.407 -11.462   5.228  1.00  0.00    -0.085 C 
BRANCH   6   7
HETATM    7  C   UNL     1      45.157 -11.217   6.266  1.00  0.00    -0.078 C 
BRANCH   7   8
HETATM    8  C   UNL     1      46.031 -10.931   7.477  1.00  0.00     0.269 C 
BRANCH   8   9
HETATM    9  O   UNL     1      45.231 -11.009   8.648  1.00  0.00    -0.337 OA
BRANCH   9  10
HETATM   10  C   UNL     1      44.646  -9.848   9.108  1.00  0.00     0.099 A 
HETATM   11  C   UNL     1      43.995  -9.949  10.353  1.00  0.00     0.100 A 
HETATM   12  C   UNL     1      43.366  -8.791  10.867  1.00  0.00    -0.005 A 
HETATM   13  N   UNL     1      43.969 -11.112  11.047  1.00  0.00    -0.257 NA
HETATM   14  C   UNL     1      42.716  -8.873  12.106  1.00  0.00     0.015 A 
HETATM   15  C   UNL     1      43.390  -7.585  10.152  1.00  0.00     0.014 A 
HETATM   16  C   UNL     1      42.702 -10.071  12.807  1.00  0.00     0.020 A 
HETATM   17  C   UNL     1      43.339 -11.154  12.239  1.00  0.00     0.117 A 
HETATM   18  C   UNL     1      44.037  -7.508   8.924  1.00  0.00     0.004 A 
HETATM   19  C   UNL     1      44.664  -8.635   8.401  1.00  0.00     0.039 A 
ENDBRANCH   9  10
ENDBRANCH   8   9
ENDBRANCH   7   8
ENDBRANCH   6   7
ENDBRANCH   5   6
ENDBRANCH   2   5
BRANCH   1  20
HETATM   20  C   UNL     1      42.007 -14.414   4.499  1.00  0.00     0.102 A 
HETATM   21  N   UNL     1      41.810 -15.379   3.538  1.00  0.00    -0.351 N 
HETATM   22  C   UNL     1      42.650 -16.453   3.727  1.00  0.00     0.045 A 
HETATM   23  H   UNL     1      41.183 -15.298   2.755  1.00  0.00     0.166 HD
HETATM   24  C   UNL     1      42.859 -17.591   2.932  1.00  0.00     0.067 A 
HETATM   25  C   UNL     1      43.325 -16.232   4.923  1.00  0.00    -0.007 A 
HETATM   26  C   UNL     1      43.804 -18.525   3.375  1.00  0.00     0.070 A 
HETATM   27  C   UNL     1      44.473 -18.333   4.585  1.00  0.00     0.038 A 
HETATM   28  C   UNL     1      44.246 -17.195   5.370  1.00  0.00     0.016 A 
HETATM   29  C   UNL     1      42.886 -14.975   5.415  1.00  0.00     0.049 A 
BRANCH  26  30
HETATM   30  O   UNL     1      44.151 -19.673   2.712  1.00  0.00    -0.356 OA
HETATM   31  C   UNL     1      43.194 -20.194   1.799  1.00  0.00     0.210 C 
ENDBRANCH  26  30
ENDBRANCH   1  20
TORSDOF 8
ENDMDL
MODEL 6
REMARK VINA RESULT:      -8.1      2.842      4.926
REMARK  8 active torsions:
REMARK  status: ('A' for Active; 'I' for Inactive)
REMARK    1  A    between atoms: O_2  and  C_3 
REMARK    2  A    between atoms: C_11  and  C_12 
REMARK       I    between atoms: C_12  and  N_13 
REMARK    3  A    between atoms: N_13  and  C_14 
REMARK    4  A    between atoms: C_14  and  C_15 
REMARK    5  A    between atoms: C_15  and  C_16 
REMARK    6  A    between atoms: C_16  and  C_17 
REMARK    7  A    between atoms: C_17  and  O_18 
REMARK    8  A    between atoms: O_18  and  C_19 
ROOT
HETATM    1  C   UNL     1      44.535 -10.652   8.551  1.00  0.00     0.268 C 
HETATM    2  N   UNL     1      43.872 -10.810   7.363  1.00  0.00    -0.345 N 
HETATM    3  O   UNL     1      45.691 -11.074   8.590  1.00  0.00    -0.266 OA
HETATM    4  H   UNL     1      44.456 -11.289   6.690  1.00  0.00     0.163 HD
ENDROOT
BRANCH   2   5
HETATM    5  C   UNL     1      42.544 -10.450   6.930  1.00  0.00     0.217 C 
BRANCH   5   6
HETATM    6  C   UNL     1      41.880 -11.560   6.131  1.00  0.00    -0.085 C 
BRANCH   6   7
HETATM    7  C   UNL     1      41.311 -12.511   5.445  1.00  0.00    -0.078 C 
BRANCH   7   8
HETATM    8  C   UNL     1      40.647 -13.621   4.647  1.00  0.00     0.269 C 
BRANCH   8   9
HETATM    9  O   UNL     1      41.261 -14.857   4.981  1.00  0.00    -0.337 OA
BRANCH   9  10
HETATM   10  C   UNL     1      41.901 -15.552   3.976  1.00  0.00     0.099 A 
HETATM   11  C   UNL     1      42.624 -16.688   4.391  1.00  0.00     0.100 A 
HETATM   12  C   UNL     1      43.311 -17.432   3.404  1.00  0.00    -0.005 A 
HETATM   13  N   UNL     1      42.665 -17.067   5.691  1.00  0.00    -0.257 NA
HETATM   14  C   UNL     1      44.033 -18.567   3.798  1.00  0.00     0.015 A 
HETATM   15  C   UNL     1      43.273 -17.042   2.056  1.00  0.00     0.014 A 
HETATM   16  C   UNL     1      44.061 -18.944   5.133  1.00  0.00     0.020 A 
HETATM   17  C   UNL     1      43.365 -18.168   6.035  1.00  0.00     0.117 A 
HETATM   18  C   UNL     1      42.554 -15.917   1.670  1.00  0.00     0.004 A 
HETATM   19  C   UNL     1      41.870 -15.173   2.626  1.00  0.00     0.039 A 
ENDBRANCH   9  10
ENDBRANCH   8   9
ENDBRANCH   7   8
ENDBRANCH   6   7
ENDBRANCH   5   6
ENDBRANCH   2   5
BRANCH   1  20
HETATM   20  C   UNL     1      43.890 -10.072   9.709  1.00  0.00     0.102 A 
HETATM   21  N   UNL     1      42.882 -10.605  10.478  1.00  0.00    -0.351 N 
HETATM   22  C   UNL     1      42.620  -9.818  11.577  1.00  0.00     0.045 A 
HETATM   23  H   UNL     1      42.427 -11.487  10.308  1.00  0.00     0.166 HD
HETATM   24  C   UNL     1      41.760 -10.037  12.665  1.00  0.00     0.067 A 
HETATM   25  C   UNL     1      43.400  -8.674  11.448  1.00  0.00    -0.007 A 
HETATM   26  C   UNL     1      41.712  -9.053  13.660  1.00  0.00     0.070 A 
HETATM   27  C   UNL     1      42.468  -7.886  13.536  1.00  0.00     0.038 A 
HETATM   28  C   UNL     1      43.315  -7.681  12.439  1.00  0.00     0.016 A 
HETATM   29  C   UNL     1      44.159  -8.826  10.259  1.00  0.00     0.049 A 
BRANCH  26  30
HETATM   30  O   UNL     1      40.951  -9.117  14.798  1.00  0.00    -0.356 OA
HETATM   31  C   UNL     1      41.184  -8.112  15.775  1.00  0.00     0.210 C 
ENDBRANCH  26  30
ENDBRANCH   1  20
TORSDOF 8
ENDMDL
MODEL 7
REMARK VINA RESULT:      -7.9      4.092      7.830
REMARK  8 active torsions:
REMARK  status: ('A' for Active; 'I' for Inactive)
REMARK    1  A    between atoms: O_2  and  C_3 
REMARK    2  A    between atoms: C_11  and  C_12 
REMARK       I    between atoms: C_12  and  N_13 
REMARK    3  A    between atoms: N_13  and  C_14 
REMARK    4  A    between atoms: C_14  and  C_15 
REMARK    5  A    between atoms: C_15  and  C_16 
REMARK    6  A    between atoms: C_16  and  C_17 
REMARK    7  A    between atoms: C_17  and  O_18 
REMARK    8  A    between atoms: O_18  and  C_19 
ROOT
HETATM    1  C   UNL     1      42.818 -13.396   6.295  1.00  0.00     0.268 C 
HETATM    2  N   UNL     1      41.545 -12.964   6.558  1.00  0.00    -0.345 N 
HETATM    3  O   UNL     1      43.730 -12.740   6.800  1.00  0.00    -0.266 OA
HETATM    4  H   UNL     1      41.563 -12.128   7.126  1.00  0.00     0.163 HD
ENDROOT
BRANCH   2   5
HETATM    5  C   UNL     1      40.247 -13.454   6.165  1.00  0.00     0.217 C 
BRANCH   5   6
HETATM    6  C   UNL     1      39.780 -12.855   4.849  1.00  0.00    -0.085 C 
BRANCH   6   7
HETATM    7  C   UNL     1      39.379 -12.342   3.719  1.00  0.00    -0.078 C 
BRANCH   7   8
HETATM    8  C   UNL     1      38.912 -11.743   2.402  1.00  0.00     0.269 C 
BRANCH   8   9
HETATM    9  O   UNL     1      40.026 -11.635   1.528  1.00  0.00    -0.337 OA
BRANCH   9  10
HETATM   10  C   UNL     1      40.060 -12.458   0.422  1.00  0.00     0.099 A 
HETATM   11  C   UNL     1      40.319 -11.814  -0.804  1.00  0.00     0.100 A 
HETATM   12  C   UNL     1      40.353 -12.609  -1.974  1.00  0.00    -0.005 A 
HETATM   13  N   UNL     1      40.533 -10.479  -0.873  1.00  0.00    -0.257 NA
HETATM   14  C   UNL     1      40.612 -11.986  -3.203  1.00  0.00     0.015 A 
HETATM   15  C   UNL     1      40.130 -13.992  -1.908  1.00  0.00     0.014 A 
HETATM   16  C   UNL     1      40.834 -10.617  -3.255  1.00  0.00     0.020 A 
HETATM   17  C   UNL     1      40.786  -9.913  -2.071  1.00  0.00     0.117 A 
HETATM   18  C   UNL     1      39.875 -14.606  -0.688  1.00  0.00     0.004 A 
HETATM   19  C   UNL     1      39.840 -13.843   0.476  1.00  0.00     0.039 A 
ENDBRANCH   9  10
ENDBRANCH   8   9
ENDBRANCH   7   8
ENDBRANCH   6   7
ENDBRANCH   5   6
ENDBRANCH   2   5
BRANCH   1  20
HETATM   20  C   UNL     1      43.074 -14.526   5.429  1.00  0.00     0.102 A 
HETATM   21  N   UNL     1      43.556 -15.768   5.771  1.00  0.00    -0.351 N 
HETATM   22  C   UNL     1      43.539 -16.626   4.694  1.00  0.00     0.045 A 
HETATM   23  H   UNL     1      43.830 -16.049   6.698  1.00  0.00     0.166 HD
HETATM   24  C   UNL     1      43.835 -17.996   4.622  1.00  0.00     0.067 A 
HETATM   25  C   UNL     1      43.150 -15.877   3.589  1.00  0.00    -0.007 A 
HETATM   26  C   UNL     1      43.712 -18.620   3.374  1.00  0.00     0.070 A 
HETATM   27  C   UNL     1      43.347 -17.880   2.248  1.00  0.00     0.038 A 
HETATM   28  C   UNL     1      43.063 -16.511   2.337  1.00  0.00     0.016 A 
HETATM   29  C   UNL     1      42.900 -14.559   4.052  1.00  0.00     0.049 A 
BRANCH  26  30
HETATM   30  O   UNL     1      43.935 -19.950   3.130  1.00  0.00    -0.356 OA
HETATM   31  C   UNL     1      43.591 -20.425   1.836  1.00  0.00     0.210 C 
ENDBRANCH  26  30
ENDBRANCH   1  20
TORSDOF 8
ENDMDL
MODEL 8
REMARK VINA RESULT:      -7.9      2.733      5.260
REMARK  8 active torsions:
REMARK  status: ('A' for Active; 'I' for Inactive)
REMARK    1  A    between atoms: O_2  and  C_3 
REMARK    2  A    between atoms: C_11  and  C_12 
REMARK       I    between atoms: C_12  and  N_13 
REMARK    3  A    between atoms: N_13  and  C_14 
REMARK    4  A    between atoms: C_14  and  C_15 
REMARK    5  A    between atoms: C_15  and  C_16 
REMARK    6  A    between atoms: C_16  and  C_17 
REMARK    7  A    between atoms: C_17  and  O_18 
REMARK    8  A    between atoms: O_18  and  C_19 
ROOT
HETATM    1  C   UNL     1      45.514  -9.367   8.131  1.00  0.00     0.268 C 
HETATM    2  N   UNL     1      45.646 -10.439   7.288  1.00  0.00    -0.345 N 
HETATM    3  O   UNL     1      46.292  -8.430   7.946  1.00  0.00    -0.266 OA
HETATM    4  H   UNL     1      46.408 -10.290   6.640  1.00  0.00     0.163 HD
ENDROOT
BRANCH   2   5
HETATM    5  C   UNL     1      44.938 -11.691   7.182  1.00  0.00     0.217 C 
BRANCH   5   6
HETATM    6  C   UNL     1      44.241 -11.845   5.840  1.00  0.00    -0.085 C 
BRANCH   6   7
HETATM    7  C   UNL     1      43.643 -11.978   4.690  1.00  0.00    -0.078 C 
BRANCH   7   8
HETATM    8  C   UNL     1      42.945 -12.133   3.348  1.00  0.00     0.269 C 
BRANCH   8   9
HETATM    9  O   UNL     1      42.039 -13.223   3.426  1.00  0.00    -0.337 OA
BRANCH   9  10
HETATM   10  C   UNL     1      42.503 -14.474   3.075  1.00  0.00     0.099 A 
HETATM   11  C   UNL     1      42.594 -15.404   4.129  1.00  0.00     0.100 A 
HETATM   12  C   UNL     1      43.077 -16.699   3.829  1.00  0.00    -0.005 A 
HETATM   13  N   UNL     1      42.233 -15.080   5.394  1.00  0.00    -0.257 NA
HETATM   14  C   UNL     1      43.172 -17.638   4.865  1.00  0.00     0.015 A 
HETATM   15  C   UNL     1      43.454 -17.038   2.521  1.00  0.00     0.014 A 
HETATM   16  C   UNL     1      42.793 -17.292   6.154  1.00  0.00     0.020 A 
HETATM   17  C   UNL     1      42.332 -16.010   6.366  1.00  0.00     0.117 A 
HETATM   18  C   UNL     1      43.357 -16.104   1.497  1.00  0.00     0.004 A 
HETATM   19  C   UNL     1      42.883 -14.825   1.770  1.00  0.00     0.039 A 
ENDBRANCH   9  10
ENDBRANCH   8   9
ENDBRANCH   7   8
ENDBRANCH   6   7
ENDBRANCH   5   6
ENDBRANCH   2   5
BRANCH   1  20
HETATM   20  C   UNL     1      44.551  -9.364   9.211  1.00  0.00     0.102 A 
HETATM   21  N   UNL     1      43.339  -8.715   9.269  1.00  0.00    -0.351 N 
HETATM   22  C   UNL     1      42.641  -9.057  10.405  1.00  0.00     0.045 A 
HETATM   23  H   UNL     1      42.969  -8.113   8.552  1.00  0.00     0.166 HD
HETATM   24  C   UNL     1      41.338  -8.721  10.804  1.00  0.00     0.067 A 
HETATM   25  C   UNL     1      43.482  -9.859  11.169  1.00  0.00    -0.007 A 
HETATM   26  C   UNL     1      40.881  -9.237  12.022  1.00  0.00     0.070 A 
HETATM   27  C   UNL     1      41.719 -10.023  12.815  1.00  0.00     0.038 A 
HETATM   28  C   UNL     1      43.020 -10.342  12.405  1.00  0.00     0.016 A 
HETATM   29  C   UNL     1      44.686 -10.011  10.432  1.00  0.00     0.049 A 
BRANCH  26  30
HETATM   30  O   UNL     1      39.632  -9.031  12.549  1.00  0.00    -0.356 OA
HETATM   31  C   UNL     1      38.974  -7.829  12.174  1.00  0.00     0.210 C 
ENDBRANCH  26  30
ENDBRANCH   1  20
TORSDOF 8
ENDMDL
MODEL 9
REMARK VINA RESULT:      -7.8      3.241      8.952
REMARK  8 active torsions:
REMARK  status: ('A' for Active; 'I' for Inactive)
REMARK    1  A    between atoms: O_2  and  C_3 
REMARK    2  A    between atoms: C_11  and  C_12 
REMARK       I    between atoms: C_12  and  N_13 
REMARK    3  A    between atoms: N_13  and  C_14 
REMARK    4  A    between atoms: C_14  and  C_15 
REMARK    5  A    between atoms: C_15  and  C_16 
REMARK    6  A    between atoms: C_16  and  C_17 
REMARK    7  A    between atoms: C_17  and  O_18 
REMARK    8  A    between atoms: O_18  and  C_19 
ROOT
HETATM    1  C   UNL     1      40.700 -14.686   6.086  1.00  0.00     0.268 C 
HETATM    2  N   UNL     1      41.983 -14.690   6.566  1.00  0.00    -0.345 N 
HETATM    3  O   UNL     1      39.805 -14.805   6.923  1.00  0.00    -0.266 OA
HETATM    4  H   UNL     1      41.987 -14.820   7.569  1.00  0.00     0.163 HD
ENDROOT
BRANCH   2   5
HETATM    5  C   UNL     1      43.267 -14.571   5.921  1.00  0.00     0.217 C 
BRANCH   5   6
HETATM    6  C   UNL     1      44.045 -13.359   6.409  1.00  0.00    -0.085 C 
BRANCH   6   7
HETATM    7  C   UNL     1      44.712 -12.321   6.828  1.00  0.00    -0.078 C 
BRANCH   7   8
HETATM    8  C   UNL     1      45.490 -11.110   7.317  1.00  0.00     0.269 C 
BRANCH   8   9
HETATM    9  O   UNL     1      45.281 -10.964   8.714  1.00  0.00    -0.337 OA
BRANCH   9  10
HETATM   10  C   UNL     1      44.664  -9.813   9.157  1.00  0.00     0.099 A 
HETATM   11  C   UNL     1      43.998  -9.920  10.394  1.00  0.00     0.100 A 
HETATM   12  C   UNL     1      43.336  -8.773  10.890  1.00  0.00    -0.005 A 
HETATM   13  N   UNL     1      43.986 -11.079  11.095  1.00  0.00    -0.257 NA
HETATM   14  C   UNL     1      42.671  -8.860  12.121  1.00  0.00     0.015 A 
HETATM   15  C   UNL     1      43.344  -7.570  10.167  1.00  0.00     0.014 A 
HETATM   16  C   UNL     1      42.673 -10.053  12.829  1.00  0.00     0.020 A 
HETATM   17  C   UNL     1      43.341 -11.126  12.278  1.00  0.00     0.117 A 
HETATM   18  C   UNL     1      44.007  -7.488   8.948  1.00  0.00     0.004 A 
HETATM   19  C   UNL     1      44.665  -8.605   8.442  1.00  0.00     0.039 A 
ENDBRANCH   9  10
ENDBRANCH   8   9
ENDBRANCH   7   8
ENDBRANCH   6   7
ENDBRANCH   5   6
ENDBRANCH   2   5
BRANCH   1  20
HETATM   20  C   UNL     1      40.419 -14.601   4.669  1.00  0.00     0.102 A 
HETATM   21  N   UNL     1      40.025 -13.501   3.943  1.00  0.00    -0.351 N 
HETATM   22  C   UNL     1      39.984 -13.778   2.596  1.00  0.00     0.045 A 
HETATM   23  H   UNL     1      39.846 -12.588   4.326  1.00  0.00     0.166 HD
HETATM   24  C   UNL     1      39.744 -12.930   1.503  1.00  0.00     0.067 A 
HETATM   25  C   UNL     1      40.240 -15.138   2.455  1.00  0.00    -0.007 A 
HETATM   26  C   UNL     1      39.783 -13.497   0.223  1.00  0.00     0.070 A 
HETATM   27  C   UNL     1      40.014 -14.864   0.064  1.00  0.00     0.038 A 
HETATM   28  C   UNL     1      40.243 -15.698   1.166  1.00  0.00     0.016 A 
HETATM   29  C   UNL     1      40.472 -15.649   3.759  1.00  0.00     0.049 A 
BRANCH  26  30
HETATM   30  O   UNL     1      39.599 -12.813  -0.950  1.00  0.00    -0.356 OA
HETATM   31  C   UNL     1      40.676 -11.994  -1.384  1.00  0.00     0.210 C 
ENDBRANCH  26  30
ENDBRANCH   1  20
TORSDOF 8
ENDMDL
MODEL 10
REMARK VINA RESULT:      -7.7      2.703      4.187
REMARK  8 active torsions:
REMARK  status: ('A' for Active; 'I' for Inactive)
REMARK    1  A    between atoms: O_2  and  C_3 
REMARK    2  A    between atoms: C_11  and  C_12 
REMARK       I    between atoms: C_12  and  N_13 
REMARK    3  A    between atoms: N_13  and  C_14 
REMARK    4  A    between atoms: C_14  and  C_15 
REMARK    5  A    between atoms: C_15  and  C_16 
REMARK    6  A    between atoms: C_16  and  C_17 
REMARK    7  A    between atoms: C_17  and  O_18 
REMARK    8  A    between atoms: O_18  and  C_19 
ROOT
HETATM    1  C   UNL     1      41.407 -10.581   0.884  1.00  0.00     0.268 C 
HETATM    2  N   UNL     1      40.318 -11.263   0.410  1.00  0.00    -0.345 N 
HETATM    3  O   UNL     1      42.060  -9.951   0.050  1.00  0.00    -0.266 OA
HETATM    4  H   UNL     1      40.237 -11.153  -0.592  1.00  0.00     0.163 HD
ENDROOT
BRANCH   2   5
HETATM    5  C   UNL     1      39.326 -12.088   1.055  1.00  0.00     0.217 C 
BRANCH   5   6
HETATM    6  C   UNL     1      39.845 -13.485   1.352  1.00  0.00    -0.085 C 
BRANCH   6   7
HETATM    7  C   UNL     1      40.290 -14.683   1.607  1.00  0.00    -0.078 C 
BRANCH   7   8
HETATM    8  C   UNL     1      40.809 -16.081   1.905  1.00  0.00     0.269 C 
BRANCH   8   9
HETATM    9  O   UNL     1      42.228 -16.045   1.941  1.00  0.00    -0.337 OA
BRANCH   9  10
HETATM   10  C   UNL     1      42.878 -16.982   2.716  1.00  0.00     0.099 A 
HETATM   11  C   UNL     1      43.229 -16.557   4.013  1.00  0.00     0.100 A 
HETATM   12  C   UNL     1      43.909 -17.474   4.847  1.00  0.00    -0.005 A 
HETATM   13  N   UNL     1      42.928 -15.314   4.457  1.00  0.00    -0.257 NA
HETATM   14  C   UNL     1      44.264 -17.070   6.142  1.00  0.00     0.015 A 
HETATM   15  C   UNL     1      44.225 -18.763   4.391  1.00  0.00     0.014 A 
HETATM   16  C   UNL     1      43.944 -15.794   6.584  1.00  0.00     0.020 A 
HETATM   17  C   UNL     1      43.280 -14.960   5.710  1.00  0.00     0.117 A 
HETATM   18  C   UNL     1      43.870 -19.160   3.107  1.00  0.00     0.004 A 
HETATM   19  C   UNL     1      43.198 -18.274   2.270  1.00  0.00     0.039 A 
ENDBRANCH   9  10
ENDBRANCH   8   9
ENDBRANCH   7   8
ENDBRANCH   6   7
ENDBRANCH   5   6
ENDBRANCH   2   5
BRANCH   1  20
HETATM   20  C   UNL     1      41.797 -10.644   2.275  1.00  0.00     0.102 A 
HETATM   21  N   UNL     1      42.784 -11.412   2.848  1.00  0.00    -0.351 N 
HETATM   22  C   UNL     1      42.950 -11.103   4.179  1.00  0.00     0.045 A 
HETATM   23  H   UNL     1      43.362 -12.075   2.358  1.00  0.00     0.166 HD
HETATM   24  C   UNL     1      43.905 -11.557   5.104  1.00  0.00     0.067 A 
HETATM   25  C   UNL     1      41.953 -10.191   4.509  1.00  0.00    -0.007 A 
HETATM   26  C   UNL     1      43.839 -11.047   6.406  1.00  0.00     0.070 A 
HETATM   27  C   UNL     1      42.830 -10.151   6.762  1.00  0.00     0.038 A 
HETATM   28  C   UNL     1      41.881  -9.714   5.829  1.00  0.00     0.016 A 
HETATM   29  C   UNL     1      41.216  -9.943   3.322  1.00  0.00     0.049 A 
BRANCH  26  30
HETATM   30  O   UNL     1      44.703 -11.361   7.422  1.00  0.00    -0.356 OA
HETATM   31  C   UNL     1      44.395 -10.831   8.704  1.00  0.00     0.210 C 
ENDBRANCH  26  30
ENDBRANCH   1  20
TORSDOF 8
ENDMDL
