MODEL 1
REMARK VINA RESULT:      -9.6      0.000      0.000
REMARK  7 active torsions:
REMARK  status: ('A' for Active; 'I' for Inactive)
REMARK    1  A    between atoms: C_4  and  C_5 
REMARK    2  A    between atoms: C_5  and  N_6 
REMARK    3  A    between atoms: C_14  and  C_15 
REMARK    4  A    between atoms: C_18  and  O_19 
REMARK    5  A    between atoms: O_19  and  C_20 
REMARK    6  A    between atoms: C_20  and  C_21 
REMARK    7  A    between atoms: C_22  and  C_23 
ROOT
HETATM    1  N   UNL     1      44.125 -10.915   8.107  1.00  0.00    -0.063 N 
HETATM    2  H   UNL     1      43.786 -11.666   8.720  1.00  0.00     0.280 HD
HETATM    3  C   UNL     1      42.878 -10.370   7.427  1.00  0.00     0.282 C 
HETATM    4  C   UNL     1      42.270 -11.438   6.583  1.00  0.00     0.018 A 
HETATM    5  C   UNL     1      42.938 -12.559   6.125  1.00  0.00    -0.023 A 
HETATM    6  C   UNL     1      42.072 -13.393   5.346  1.00  0.00     0.073 A 
HETATM    7  C   UNL     1      40.804 -12.873   5.261  1.00  0.00     0.088 A 
HETATM    8  N   UNL     1      39.790 -13.484   4.620  1.00  0.00    -0.358 N 
HETATM    9  C   UNL     1      40.049 -14.608   3.746  1.00  0.00     0.219 C 
HETATM   10  N   UNL     1      41.326 -15.221   4.010  1.00  0.00    -0.332 N 
HETATM   11  C   UNL     1      42.361 -14.656   4.698  1.00  0.00     0.256 C 
HETATM   12  O   UNL     1      43.460 -15.196   4.766  1.00  0.00    -0.267 OA
HETATM   13  S   UNL     1      40.650 -11.384   6.068  1.00  0.00    -0.074 SA
HETATM   14  C   UNL     1      44.374 -12.823   6.479  1.00  0.00     0.068 C 
HETATM   15  C   UNL     1      45.050 -11.582   7.095  1.00  0.00     0.240 C 
HETATM   16  H   UNL     1      38.945 -12.962   4.404  1.00  0.00     0.162 HD
HETATM   17  H   UNL     1      41.550 -16.074   3.520  1.00  0.00     0.165 HD
ENDROOT
BRANCH   9  18
HETATM   18  C   UNL     1      39.878 -14.194   2.297  1.00  0.00    -0.016 A 
HETATM   19  C   UNL     1      40.117 -15.080   1.232  1.00  0.00     0.014 A 
HETATM   20  C   UNL     1      39.994 -14.657  -0.096  1.00  0.00     0.038 A 
HETATM   21  C   UNL     1      39.661 -13.334  -0.366  1.00  0.00     0.079 A 
HETATM   22  C   UNL     1      39.401 -12.442   0.673  1.00  0.00     0.038 A 
HETATM   23  C   UNL     1      39.518 -12.867   1.997  1.00  0.00     0.014 A 
BRANCH  21  24
HETATM   24  O   UNL     1      39.505 -12.813  -1.665  1.00  0.00    -0.276 OA
BRANCH  24  25
HETATM   25  C   UNL     1      40.537 -12.863  -2.591  1.00  0.00     0.288 C 
HETATM   26  O   UNL     1      40.814 -13.785  -3.343  1.00  0.00    -0.260 OA
BRANCH  25  27
HETATM   27  C   UNL     1      41.324 -11.610  -2.564  1.00  0.00     0.085 C 
HETATM   28  C   UNL     1      40.841 -10.426  -2.160  1.00  0.00     0.043 C 
BRANCH  28  29
HETATM   29  C   UNL     1      41.675  -9.277  -2.119  1.00  0.00     0.075 A 
HETATM   30  O   UNL     1      42.577  -9.010  -1.110  1.00  0.00    -0.323 OA
HETATM   31  C   UNL     1      43.195  -7.836  -1.386  1.00  0.00     0.142 A 
HETATM   32  C   UNL     1      42.722  -7.311  -2.560  1.00  0.00     0.027 A 
HETATM   33  C   UNL     1      41.754  -8.230  -3.031  1.00  0.00     0.039 A 
ENDBRANCH  28  29
ENDBRANCH  25  27
ENDBRANCH  24  25
ENDBRANCH  21  24
ENDBRANCH   9  18
BRANCH   1  34
HETATM   34  C   UNL     1      44.801  -9.925   9.019  1.00  0.00     0.273 C 
BRANCH  34  35
HETATM   35  C   UNL     1      44.112  -9.666  10.331  1.00  0.00    -0.033 A 
HETATM   36  C   UNL     1      43.714 -10.734  11.152  1.00  0.00     0.009 A 
HETATM   37  C   UNL     1      43.056 -10.492  12.358  1.00  0.00     0.001 A 
HETATM   38  C   UNL     1      42.794  -9.186  12.762  1.00  0.00     0.000 A 
HETATM   39  C   UNL     1      43.195  -8.117  11.964  1.00  0.00     0.001 A 
HETATM   40  C   UNL     1      43.853  -8.354  10.757  1.00  0.00     0.009 A 
ENDBRANCH  34  35
ENDBRANCH   1  34
TORSDOF 7
ENDMDL
MODEL 2
REMARK VINA RESULT:      -9.4      4.336      7.818
REMARK  7 active torsions:
REMARK  status: ('A' for Active; 'I' for Inactive)
REMARK    1  A    between atoms: C_4  and  C_5 
REMARK    2  A    between atoms: C_5  and  N_6 
REMARK    3  A    between atoms: C_14  and  C_15 
REMARK    4  A    between atoms: C_18  and  O_19 
REMARK    5  A    between atoms: O_19  and  C_20 
REMARK    6  A    between atoms: C_20  and  C_21 
REMARK    7  A    between atoms: C_22  and  C_23 
ROOT
HETATM    1  N   UNL     1      41.371  -6.242  12.985  1.00  0.00    -0.063 N 
HETATM    2  H   UNL     1      42.328  -6.249  13.358  1.00  0.00     0.280 HD
HETATM    3  C   UNL     1      41.008  -7.709  12.811  1.00  0.00     0.282 C 
HETATM    4  C   UNL     1      41.911  -8.324  11.797  1.00  0.00     0.018 A 
HETATM    5  C   UNL     1      42.634  -7.619  10.852  1.00  0.00    -0.023 A 
HETATM    6  C   UNL     1      43.410  -8.501  10.032  1.00  0.00     0.073 A 
HETATM    7  C   UNL     1      43.245  -9.814  10.398  1.00  0.00     0.088 A 
HETATM    8  N   UNL     1      43.895 -10.837   9.813  1.00  0.00    -0.358 N 
HETATM    9  C   UNL     1      44.610 -10.635   8.571  1.00  0.00     0.219 C 
HETATM   10  N   UNL     1      44.909  -9.245   8.335  1.00  0.00    -0.332 N 
HETATM   11  C   UNL     1      44.311  -8.180   8.943  1.00  0.00     0.256 C 
HETATM   12  O   UNL     1      44.534  -7.027   8.590  1.00  0.00    -0.267 OA
HETATM   13  S   UNL     1      42.146 -10.005  11.683  1.00  0.00    -0.074 SA
HETATM   14  C   UNL     1      42.596  -6.119  10.785  1.00  0.00     0.068 C 
HETATM   15  C   UNL     1      41.450  -5.536  11.636  1.00  0.00     0.240 C 
HETATM   16  H   UNL     1      43.577 -11.790   9.970  1.00  0.00     0.162 HD
HETATM   17  H   UNL     1      45.494  -9.016   7.545  1.00  0.00     0.165 HD
ENDROOT
BRANCH   9  18
HETATM   18  C   UNL     1      43.860 -11.283   7.423  1.00  0.00    -0.016 A 
HETATM   19  C   UNL     1      42.841 -10.614   6.722  1.00  0.00     0.014 A 
HETATM   20  C   UNL     1      42.135 -11.253   5.696  1.00  0.00     0.038 A 
HETATM   21  C   UNL     1      42.426 -12.577   5.387  1.00  0.00     0.079 A 
HETATM   22  C   UNL     1      43.444 -13.255   6.056  1.00  0.00     0.038 A 
HETATM   23  C   UNL     1      44.150 -12.614   7.074  1.00  0.00     0.014 A 
BRANCH  21  24
HETATM   24  O   UNL     1      41.780 -13.305   4.369  1.00  0.00    -0.276 OA
BRANCH  24  25
HETATM   25  C   UNL     1      42.361 -13.469   3.119  1.00  0.00     0.288 C 
HETATM   26  O   UNL     1      42.430 -12.644   2.221  1.00  0.00    -0.260 OA
BRANCH  25  27
HETATM   27  C   UNL     1      42.911 -14.834   2.974  1.00  0.00     0.085 C 
HETATM   28  C   UNL     1      42.457 -15.904   3.643  1.00  0.00     0.043 C 
BRANCH  28  29
HETATM   29  C   UNL     1      43.009 -17.193   3.413  1.00  0.00     0.075 A 
HETATM   30  O   UNL     1      43.873 -17.832   4.276  1.00  0.00    -0.323 OA
HETATM   31  C   UNL     1      44.202 -19.034   3.744  1.00  0.00     0.142 A 
HETATM   32  C   UNL     1      43.574 -19.211   2.538  1.00  0.00     0.027 A 
HETATM   33  C   UNL     1      42.810 -18.039   2.326  1.00  0.00     0.039 A 
ENDBRANCH  28  29
ENDBRANCH  25  27
ENDBRANCH  24  25
ENDBRANCH  21  24
ENDBRANCH   9  18
BRANCH   1  34
HETATM   34  C   UNL     1      40.541  -5.530  14.020  1.00  0.00     0.273 C 
BRANCH  34  35
HETATM   35  C   UNL     1      40.675  -6.037  15.431  1.00  0.00    -0.033 A 
HETATM   36  C   UNL     1      41.940  -6.311  15.974  1.00  0.00     0.009 A 
HETATM   37  C   UNL     1      42.061  -6.801  17.275  1.00  0.00     0.001 A 
HETATM   38  C   UNL     1      40.924  -7.017  18.048  1.00  0.00     0.000 A 
HETATM   39  C   UNL     1      39.664  -6.737  17.527  1.00  0.00     0.001 A 
HETATM   40  C   UNL     1      39.538  -6.246  16.227  1.00  0.00     0.009 A 
ENDBRANCH  34  35
ENDBRANCH   1  34
TORSDOF 7
ENDMDL
MODEL 3
REMARK VINA RESULT:      -9.3      5.239     12.993
REMARK  7 active torsions:
REMARK  status: ('A' for Active; 'I' for Inactive)
REMARK    1  A    between atoms: C_4  and  C_5 
REMARK    2  A    between atoms: C_5  and  N_6 
REMARK    3  A    between atoms: C_14  and  C_15 
REMARK    4  A    between atoms: C_18  and  O_19 
REMARK    5  A    between atoms: O_19  and  C_20 
REMARK    6  A    between atoms: C_20  and  C_21 
REMARK    7  A    between atoms: C_22  and  C_23 
ROOT
HETATM    1  N   UNL     1      41.780 -13.543   5.062  1.00  0.00    -0.063 N 
HETATM    2  H   UNL     1      42.451 -13.111   4.416  1.00  0.00     0.280 HD
HETATM    3  C   UNL     1      40.877 -12.404   5.509  1.00  0.00     0.282 C 
HETATM    4  C   UNL     1      41.683 -11.400   6.260  1.00  0.00     0.018 A 
HETATM    5  C   UNL     1      42.909 -11.652   6.848  1.00  0.00    -0.023 A 
HETATM    6  C   UNL     1      43.426 -10.478   7.486  1.00  0.00     0.073 A 
HETATM    7  C   UNL     1      42.579  -9.406   7.343  1.00  0.00     0.088 A 
HETATM    8  N   UNL     1      42.852  -8.175   7.816  1.00  0.00    -0.358 N 
HETATM    9  C   UNL     1      43.943  -7.972   8.745  1.00  0.00     0.219 C 
HETATM   10  N   UNL     1      44.893  -9.056   8.714  1.00  0.00    -0.332 N 
HETATM   11  C   UNL     1      44.674 -10.301   8.200  1.00  0.00     0.256 C 
HETATM   12  O   UNL     1      45.493 -11.205   8.331  1.00  0.00    -0.267 OA
HETATM   13  S   UNL     1      41.161  -9.798   6.491  1.00  0.00    -0.074 SA
HETATM   14  C   UNL     1      43.572 -12.996   6.748  1.00  0.00     0.068 C 
HETATM   15  C   UNL     1      42.603 -14.076   6.230  1.00  0.00     0.240 C 
HETATM   16  H   UNL     1      42.109  -7.484   7.875  1.00  0.00     0.162 HD
HETATM   17  H   UNL     1      45.739  -8.955   9.253  1.00  0.00     0.165 HD
ENDROOT
BRANCH   9  18
HETATM   18  C   UNL     1      43.402  -7.697  10.134  1.00  0.00    -0.016 A 
HETATM   19  C   UNL     1      42.708  -6.514  10.447  1.00  0.00     0.014 A 
HETATM   20  C   UNL     1      42.259  -6.267  11.749  1.00  0.00     0.038 A 
HETATM   21  C   UNL     1      42.529  -7.189  12.753  1.00  0.00     0.079 A 
HETATM   22  C   UNL     1      43.199  -8.378  12.464  1.00  0.00     0.038 A 
HETATM   23  C   UNL     1      43.640  -8.625  11.164  1.00  0.00     0.014 A 
BRANCH  21  24
HETATM   24  O   UNL     1      42.115  -7.038  14.091  1.00  0.00    -0.276 OA
BRANCH  24  25
HETATM   25  C   UNL     1      40.836  -7.396  14.494  1.00  0.00     0.288 C 
HETATM   26  O   UNL     1      39.845  -7.519  13.792  1.00  0.00    -0.260 OA
BRANCH  25  27
HETATM   27  C   UNL     1      40.793  -7.616  15.957  1.00  0.00     0.085 C 
HETATM   28  C   UNL     1      40.332  -6.718  16.839  1.00  0.00     0.043 C 
BRANCH  28  29
HETATM   29  C   UNL     1      40.279  -7.022  18.227  1.00  0.00     0.075 A 
HETATM   30  O   UNL     1      40.645  -6.146  19.226  1.00  0.00    -0.323 OA
HETATM   31  C   UNL     1      40.474  -6.763  20.421  1.00  0.00     0.142 A 
HETATM   32  C   UNL     1      40.002  -8.037  20.238  1.00  0.00     0.027 A 
HETATM   33  C   UNL     1      39.874  -8.204  18.839  1.00  0.00     0.039 A 
ENDBRANCH  28  29
ENDBRANCH  25  27
ENDBRANCH  24  25
ENDBRANCH  21  24
ENDBRANCH   9  18
BRANCH   1  34
HETATM   34  C   UNL     1      41.071 -14.600   4.257  1.00  0.00     0.273 C 
BRANCH  34  35
HETATM   35  C   UNL     1      41.956 -15.534   3.477  1.00  0.00    -0.033 A 
HETATM   36  C   UNL     1      42.518 -15.131   2.255  1.00  0.00     0.009 A 
HETATM   37  C   UNL     1      43.321 -16.006   1.522  1.00  0.00     0.001 A 
HETATM   38  C   UNL     1      43.575 -17.288   2.001  1.00  0.00     0.000 A 
HETATM   39  C   UNL     1      43.036 -17.697   3.218  1.00  0.00     0.001 A 
HETATM   40  C   UNL     1      42.233 -16.825   3.955  1.00  0.00     0.009 A 
ENDBRANCH  34  35
ENDBRANCH   1  34
TORSDOF 7
ENDMDL
MODEL 4
REMARK VINA RESULT:      -9.1      4.208      7.338
REMARK  7 active torsions:
REMARK  status: ('A' for Active; 'I' for Inactive)
REMARK    1  A    between atoms: C_4  and  C_5 
REMARK    2  A    between atoms: C_5  and  N_6 
REMARK    3  A    between atoms: C_14  and  C_15 
REMARK    4  A    between atoms: C_18  and  O_19 
REMARK    5  A    between atoms: O_19  and  C_20 
REMARK    6  A    between atoms: C_20  and  C_21 
REMARK    7  A    between atoms: C_22  and  C_23 
ROOT
HETATM    1  N   UNL     1      41.661  -8.788  13.153  1.00  0.00    -0.063 N 
HETATM    2  H   UNL     1      41.309  -7.866  12.866  1.00  0.00     0.280 HD
HETATM    3  C   UNL     1      42.868  -9.041  12.263  1.00  0.00     0.282 C 
HETATM    4  C   UNL     1      42.425  -9.120  10.841  1.00  0.00     0.018 A 
HETATM    5  C   UNL     1      41.130  -9.379  10.431  1.00  0.00    -0.023 A 
HETATM    6  C   UNL     1      41.033  -9.380   9.002  1.00  0.00     0.073 A 
HETATM    7  C   UNL     1      42.243  -9.117   8.408  1.00  0.00     0.088 A 
HETATM    8  N   UNL     1      42.414  -9.021   7.076  1.00  0.00    -0.358 N 
HETATM    9  C   UNL     1      41.373  -9.460   6.172  1.00  0.00     0.219 C 
HETATM   10  N   UNL     1      40.088  -9.544   6.820  1.00  0.00    -0.332 N 
HETATM   11  C   UNL     1      39.869  -9.592   8.166  1.00  0.00     0.256 C 
HETATM   12  O   UNL     1      38.752  -9.793   8.629  1.00  0.00    -0.267 OA
HETATM   13  S   UNL     1      43.497  -8.907   9.538  1.00  0.00    -0.074 SA
HETATM   14  C   UNL     1      40.014  -9.576  11.415  1.00  0.00     0.068 C 
HETATM   15  C   UNL     1      40.542  -9.779  12.849  1.00  0.00     0.240 C 
HETATM   16  H   UNL     1      43.353  -9.043   6.687  1.00  0.00     0.162 HD
HETATM   17  H   UNL     1      39.283  -9.743   6.245  1.00  0.00     0.165 HD
ENDROOT
BRANCH   9  18
HETATM   18  C   UNL     1      41.781 -10.754   5.494  1.00  0.00    -0.016 A 
HETATM   19  C   UNL     1      41.096 -11.963   5.714  1.00  0.00     0.014 A 
HETATM   20  C   UNL     1      41.522 -13.151   5.110  1.00  0.00     0.038 A 
HETATM   21  C   UNL     1      42.655 -13.141   4.305  1.00  0.00     0.079 A 
HETATM   22  C   UNL     1      43.340 -11.952   4.057  1.00  0.00     0.038 A 
HETATM   23  C   UNL     1      42.910 -10.768   4.655  1.00  0.00     0.014 A 
BRANCH  21  24
HETATM   24  O   UNL     1      43.160 -14.279   3.645  1.00  0.00    -0.276 OA
BRANCH  24  25
HETATM   25  C   UNL     1      42.529 -14.804   2.527  1.00  0.00     0.288 C 
HETATM   26  O   UNL     1      41.895 -14.194   1.680  1.00  0.00    -0.260 OA
BRANCH  25  27
HETATM   27  C   UNL     1      42.705 -16.272   2.468  1.00  0.00     0.085 C 
HETATM   28  C   UNL     1      43.497 -16.968   3.295  1.00  0.00     0.043 C 
BRANCH  28  29
HETATM   29  C   UNL     1      43.576 -18.385   3.205  1.00  0.00     0.075 A 
HETATM   30  O   UNL     1      43.974 -19.205   4.239  1.00  0.00    -0.323 OA
HETATM   31  C   UNL     1      43.937 -20.489   3.807  1.00  0.00     0.142 A 
HETATM   32  C   UNL     1      43.524 -20.542   2.501  1.00  0.00     0.027 A 
HETATM   33  C   UNL     1      43.290 -19.201   2.116  1.00  0.00     0.039 A 
ENDBRANCH  28  29
ENDBRANCH  25  27
ENDBRANCH  24  25
ENDBRANCH  21  24
ENDBRANCH   9  18
BRANCH   1  34
HETATM   34  C   UNL     1      42.001  -8.652  14.614  1.00  0.00     0.273 C 
BRANCH  34  35
HETATM   35  C   UNL     1      41.127  -7.720  15.407  1.00  0.00    -0.033 A 
HETATM   36  C   UNL     1      41.047  -7.832  16.805  1.00  0.00     0.009 A 
HETATM   37  C   UNL     1      40.218  -6.981  17.537  1.00  0.00     0.001 A 
HETATM   38  C   UNL     1      39.467  -6.007  16.885  1.00  0.00     0.000 A 
HETATM   39  C   UNL     1      39.547  -5.875  15.501  1.00  0.00     0.001 A 
HETATM   40  C   UNL     1      40.374  -6.724  14.765  1.00  0.00     0.009 A 
ENDBRANCH  34  35
ENDBRANCH   1  34
TORSDOF 7
ENDMDL
MODEL 5
REMARK VINA RESULT:      -8.7      5.259     12.338
REMARK  7 active torsions:
REMARK  status: ('A' for Active; 'I' for Inactive)
REMARK    1  A    between atoms: C_4  and  C_5 
REMARK    2  A    between atoms: C_5  and  N_6 
REMARK    3  A    between atoms: C_14  and  C_15 
REMARK    4  A    between atoms: C_18  and  O_19 
REMARK    5  A    between atoms: O_19  and  C_20 
REMARK    6  A    between atoms: C_20  and  C_21 
REMARK    7  A    between atoms: C_22  and  C_23 
ROOT
HETATM    1  N   UNL     1      42.134 -12.297   4.024  1.00  0.00    -0.063 N 
HETATM    2  H   UNL     1      42.905 -11.714   3.674  1.00  0.00     0.280 HD
HETATM    3  C   UNL     1      41.160 -11.317   4.661  1.00  0.00     0.282 C 
HETATM    4  C   UNL     1      41.818 -10.650   5.820  1.00  0.00     0.018 A 
HETATM    5  C   UNL     1      42.925 -11.139   6.489  1.00  0.00    -0.023 A 
HETATM    6  C   UNL     1      43.317 -10.260   7.550  1.00  0.00     0.073 A 
HETATM    7  C   UNL     1      42.501  -9.157   7.625  1.00  0.00     0.088 A 
HETATM    8  N   UNL     1      42.680  -8.158   8.510  1.00  0.00    -0.358 N 
HETATM    9  C   UNL     1      43.592  -8.320   9.622  1.00  0.00     0.219 C 
HETATM   10  N   UNL     1      44.540  -9.384   9.398  1.00  0.00    -0.332 N 
HETATM   11  C   UNL     1      44.421 -10.385   8.479  1.00  0.00     0.256 C 
HETATM   12  O   UNL     1      45.210 -11.323   8.443  1.00  0.00    -0.267 OA
HETATM   13  S   UNL     1      41.254  -9.182   6.469  1.00  0.00    -0.074 SA
HETATM   14  C   UNL     1      43.603 -12.411   6.069  1.00  0.00     0.068 C 
HETATM   15  C   UNL     1      42.745 -13.218   5.075  1.00  0.00     0.240 C 
HETATM   16  H   UNL     1      41.934  -7.486   8.667  1.00  0.00     0.162 HD
HETATM   17  H   UNL     1      45.280  -9.505  10.074  1.00  0.00     0.165 HD
ENDROOT
BRANCH   9  18
HETATM   18  C   UNL     1      42.817  -8.479  10.916  1.00  0.00    -0.016 A 
HETATM   19  C   UNL     1      41.427  -8.686  10.935  1.00  0.00     0.014 A 
HETATM   20  C   UNL     1      40.731  -8.784  12.145  1.00  0.00     0.038 A 
HETATM   21  C   UNL     1      41.421  -8.645  13.345  1.00  0.00     0.079 A 
HETATM   22  C   UNL     1      42.802  -8.458  13.351  1.00  0.00     0.038 A 
HETATM   23  C   UNL     1      43.495  -8.366  12.144  1.00  0.00     0.014 A 
BRANCH  21  24
HETATM   24  O   UNL     1      40.816  -8.736  14.613  1.00  0.00    -0.276 OA
BRANCH  24  25
HETATM   25  C   UNL     1      41.000  -7.751  15.573  1.00  0.00     0.288 C 
HETATM   26  O   UNL     1      41.674  -7.825  16.589  1.00  0.00    -0.260 OA
BRANCH  25  27
HETATM   27  C   UNL     1      40.241  -6.531  15.222  1.00  0.00     0.085 C 
HETATM   28  C   UNL     1      39.072  -6.186  15.781  1.00  0.00     0.043 C 
BRANCH  28  29
HETATM   29  C   UNL     1      38.426  -4.971  15.424  1.00  0.00     0.075 A 
HETATM   30  O   UNL     1      37.092  -4.873  15.090  1.00  0.00    -0.323 OA
HETATM   31  C   UNL     1      36.816  -3.577  14.802  1.00  0.00     0.142 A 
HETATM   32  C   UNL     1      37.942  -2.808  14.934  1.00  0.00     0.027 A 
HETATM   33  C   UNL     1      38.971  -3.694  15.334  1.00  0.00     0.039 A 
ENDBRANCH  28  29
ENDBRANCH  25  27
ENDBRANCH  24  25
ENDBRANCH  21  24
ENDBRANCH   9  18
BRANCH   1  34
HETATM   34  C   UNL     1      41.582 -13.002   2.814  1.00  0.00     0.273 C 
BRANCH  34  35
HETATM   35  C   UNL     1      42.032 -14.425   2.621  1.00  0.00    -0.033 A 
HETATM   36  C   UNL     1      43.194 -14.714   1.888  1.00  0.00     0.009 A 
HETATM   37  C   UNL     1      43.597 -16.035   1.692  1.00  0.00     0.001 A 
HETATM   38  C   UNL     1      42.851 -17.080   2.229  1.00  0.00     0.000 A 
HETATM   39  C   UNL     1      41.703 -16.808   2.970  1.00  0.00     0.001 A 
HETATM   40  C   UNL     1      41.297 -15.488   3.169  1.00  0.00     0.009 A 
ENDBRANCH  34  35
ENDBRANCH   1  34
TORSDOF 7
ENDMDL
MODEL 6
REMARK VINA RESULT:      -8.5      1.584      2.075
REMARK  7 active torsions:
REMARK  status: ('A' for Active; 'I' for Inactive)
REMARK    1  A    between atoms: C_4  and  C_5 
REMARK    2  A    between atoms: C_5  and  N_6 
REMARK    3  A    between atoms: C_14  and  C_15 
REMARK    4  A    between atoms: C_18  and  O_19 
REMARK    5  A    between atoms: O_19  and  C_20 
REMARK    6  A    between atoms: C_20  and  C_21 
REMARK    7  A    between atoms: C_22  and  C_23 
ROOT
HETATM    1  N   UNL     1      41.416  -9.064   8.661  1.00  0.00    -0.063 N 
HETATM    2  H   UNL     1      41.504  -9.931   9.204  1.00  0.00     0.280 HD
HETATM    3  C   UNL     1      40.131  -9.229   7.864  1.00  0.00     0.282 C 
HETATM    4  C   UNL     1      40.281 -10.370   6.917  1.00  0.00     0.018 A 
HETATM    5  C   UNL     1      41.490 -10.896   6.498  1.00  0.00    -0.023 A 
HETATM    6  C   UNL     1      41.291 -11.991   5.596  1.00  0.00     0.073 A 
HETATM    7  C   UNL     1      39.957 -12.243   5.386  1.00  0.00     0.088 A 
HETATM    8  N   UNL     1      39.503 -13.245   4.612  1.00  0.00    -0.358 N 
HETATM    9  C   UNL     1      40.404 -13.958   3.732  1.00  0.00     0.219 C 
HETATM   10  N   UNL     1      41.784 -13.795   4.118  1.00  0.00    -0.332 N 
HETATM   11  C   UNL     1      42.279 -12.824   4.940  1.00  0.00     0.256 C 
HETATM   12  O   UNL     1      43.484 -12.679   5.113  1.00  0.00    -0.267 OA
HETATM   13  S   UNL     1      38.945 -11.162   6.224  1.00  0.00    -0.074 SA
HETATM   14  C   UNL     1      42.800 -10.364   7.004  1.00  0.00     0.068 C 
HETATM   15  C   UNL     1      42.629  -9.020   7.738  1.00  0.00     0.240 C 
HETATM   16  H   UNL     1      38.529 -13.252   4.319  1.00  0.00     0.162 HD
HETATM   17  H   UNL     1      42.478 -14.337   3.626  1.00  0.00     0.165 HD
ENDROOT
BRANCH   9  18
HETATM   18  C   UNL     1      40.143 -13.571   2.289  1.00  0.00    -0.016 A 
HETATM   19  C   UNL     1      39.834 -12.252   1.913  1.00  0.00     0.014 A 
HETATM   20  C   UNL     1      39.553 -11.933   0.579  1.00  0.00     0.038 A 
HETATM   21  C   UNL     1      39.551 -12.939  -0.380  1.00  0.00     0.079 A 
HETATM   22  C   UNL     1      39.872 -14.251  -0.034  1.00  0.00     0.038 A 
HETATM   23  C   UNL     1      40.158 -14.566   1.295  1.00  0.00     0.014 A 
BRANCH  21  24
HETATM   24  O   UNL     1      39.290 -12.721  -1.747  1.00  0.00    -0.276 OA
BRANCH  24  25
HETATM   25  C   UNL     1      40.288 -12.850  -2.701  1.00  0.00     0.288 C 
HETATM   26  O   UNL     1      40.547 -13.836  -3.374  1.00  0.00    -0.260 OA
BRANCH  25  27
HETATM   27  C   UNL     1      41.064 -11.595  -2.820  1.00  0.00     0.085 C 
HETATM   28  C   UNL     1      40.528 -10.369  -2.738  1.00  0.00     0.043 C 
BRANCH  28  29
HETATM   29  C   UNL     1      41.348  -9.211  -2.815  1.00  0.00     0.075 A 
HETATM   30  O   UNL     1      41.524  -8.461  -3.958  1.00  0.00    -0.323 OA
HETATM   31  C   UNL     1      42.368  -7.439  -3.675  1.00  0.00     0.142 A 
HETATM   32  C   UNL     1      42.762  -7.493  -2.363  1.00  0.00     0.027 A 
HETATM   33  C   UNL     1      42.110  -8.621  -1.811  1.00  0.00     0.039 A 
ENDBRANCH  28  29
ENDBRANCH  25  27
ENDBRANCH  24  25
ENDBRANCH  21  24
ENDBRANCH   9  18
BRANCH   1  34
HETATM   34  C   UNL     1      41.361  -7.956   9.680  1.00  0.00     0.273 C 
BRANCH  34  35
HETATM   35  C   UNL     1      41.705  -8.345  11.092  1.00  0.00    -0.033 A 
HETATM   36  C   UNL     1      40.934  -9.296  11.779  1.00  0.00     0.009 A 
HETATM   37  C   UNL     1      41.241  -9.640  13.096  1.00  0.00     0.001 A 
HETATM   38  C   UNL     1      42.322  -9.043  13.739  1.00  0.00     0.000 A 
HETATM   39  C   UNL     1      43.104  -8.108  13.065  1.00  0.00     0.001 A 
HETATM   40  C   UNL     1      42.801  -7.762  11.748  1.00  0.00     0.009 A 
ENDBRANCH  34  35
ENDBRANCH   1  34
TORSDOF 7
ENDMDL
MODEL 7
REMARK VINA RESULT:      -8.5      3.445      6.970
REMARK  7 active torsions:
REMARK  status: ('A' for Active; 'I' for Inactive)
REMARK    1  A    between atoms: C_4  and  C_5 
REMARK    2  A    between atoms: C_5  and  N_6 
REMARK    3  A    between atoms: C_14  and  C_15 
REMARK    4  A    between atoms: C_18  and  O_19 
REMARK    5  A    between atoms: O_19  and  C_20 
REMARK    6  A    between atoms: C_20  and  C_21 
REMARK    7  A    between atoms: C_22  and  C_23 
ROOT
HETATM    1  N   UNL     1      41.534  -6.298  13.043  1.00  0.00    -0.063 N 
HETATM    2  H   UNL     1      42.491  -6.352  13.414  1.00  0.00     0.280 HD
HETATM    3  C   UNL     1      41.116  -7.744  12.826  1.00  0.00     0.282 C 
HETATM    4  C   UNL     1      41.994  -8.363  11.792  1.00  0.00     0.018 A 
HETATM    5  C   UNL     1      42.743  -7.657  10.867  1.00  0.00    -0.023 A 
HETATM    6  C   UNL     1      43.485  -8.544  10.021  1.00  0.00     0.073 A 
HETATM    7  C   UNL     1      43.270  -9.860  10.349  1.00  0.00     0.088 A 
HETATM    8  N   UNL     1      43.880 -10.890   9.731  1.00  0.00    -0.358 N 
HETATM    9  C   UNL     1      44.602 -10.678   8.495  1.00  0.00     0.219 C 
HETATM   10  N   UNL     1      44.953  -9.294   8.300  1.00  0.00    -0.332 N 
HETATM   11  C   UNL     1      44.396  -8.225   8.940  1.00  0.00     0.256 C 
HETATM   12  O   UNL     1      44.662  -7.072   8.621  1.00  0.00    -0.267 OA
HETATM   13  S   UNL     1      42.165 -10.047  11.628  1.00  0.00    -0.074 SA
HETATM   14  C   UNL     1      42.761  -6.156  10.846  1.00  0.00     0.068 C 
HETATM   15  C   UNL     1      41.639  -5.556  11.715  1.00  0.00     0.240 C 
HETATM   16  H   UNL     1      43.527 -11.834   9.861  1.00  0.00     0.162 HD
HETATM   17  H   UNL     1      45.546  -9.064   7.516  1.00  0.00     0.165 HD
ENDROOT
BRANCH   9  18
HETATM   18  C   UNL     1      43.827 -11.263   7.330  1.00  0.00    -0.016 A 
HETATM   19  C   UNL     1      43.011 -10.472   6.501  1.00  0.00     0.014 A 
HETATM   20  C   UNL     1      42.273 -11.046   5.461  1.00  0.00     0.038 A 
HETATM   21  C   UNL     1      42.323 -12.422   5.263  1.00  0.00     0.079 A 
HETATM   22  C   UNL     1      43.138 -13.224   6.060  1.00  0.00     0.038 A 
HETATM   23  C   UNL     1      43.879 -12.648   7.093  1.00  0.00     0.014 A 
BRANCH  21  24
HETATM   24  O   UNL     1      41.625 -13.094   4.241  1.00  0.00    -0.276 OA
BRANCH  24  25
HETATM   25  C   UNL     1      40.241 -13.043   4.157  1.00  0.00     0.288 C 
HETATM   26  O   UNL     1      39.444 -13.012   5.082  1.00  0.00    -0.260 OA
BRANCH  25  27
HETATM   27  C   UNL     1      39.803 -13.041   2.744  1.00  0.00     0.085 C 
HETATM   28  C   UNL     1      40.362 -13.788   1.782  1.00  0.00     0.043 C 
BRANCH  28  29
HETATM   29  C   UNL     1      39.852 -13.766   0.455  1.00  0.00     0.075 A 
HETATM   30  O   UNL     1      39.697 -14.886  -0.334  1.00  0.00    -0.323 OA
HETATM   31  C   UNL     1      39.195 -14.501  -1.532  1.00  0.00     0.142 A 
HETATM   32  C   UNL     1      39.013 -13.142  -1.560  1.00  0.00     0.027 A 
HETATM   33  C   UNL     1      39.429 -12.671  -0.292  1.00  0.00     0.039 A 
ENDBRANCH  28  29
ENDBRANCH  25  27
ENDBRANCH  24  25
ENDBRANCH  21  24
ENDBRANCH   9  18
BRANCH   1  34
HETATM   34  C   UNL     1      40.732  -5.586  14.100  1.00  0.00     0.273 C 
BRANCH  34  35
HETATM   35  C   UNL     1      40.829  -6.154  15.490  1.00  0.00    -0.033 A 
HETATM   36  C   UNL     1      39.676  -6.328  16.273  1.00  0.00     0.009 A 
HETATM   37  C   UNL     1      39.770  -6.833  17.570  1.00  0.00     0.001 A 
HETATM   38  C   UNL     1      41.012  -7.176  18.097  1.00  0.00     0.000 A 
HETATM   39  C   UNL     1      42.162  -7.021  17.328  1.00  0.00     0.001 A 
HETATM   40  C   UNL     1      42.073  -6.516  16.031  1.00  0.00     0.009 A 
ENDBRANCH  34  35
ENDBRANCH   1  34
TORSDOF 7
ENDMDL
MODEL 8
REMARK VINA RESULT:      -8.4      4.842     12.900
REMARK  7 active torsions:
REMARK  status: ('A' for Active; 'I' for Inactive)
REMARK    1  A    between atoms: C_4  and  C_5 
REMARK    2  A    between atoms: C_5  and  N_6 
REMARK    3  A    between atoms: C_14  and  C_15 
REMARK    4  A    between atoms: C_18  and  O_19 
REMARK    5  A    between atoms: O_19  and  C_20 
REMARK    6  A    between atoms: C_20  and  C_21 
REMARK    7  A    between atoms: C_22  and  C_23 
ROOT
HETATM    1  N   UNL     1      41.226 -13.681   4.351  1.00  0.00    -0.063 N 
HETATM    2  H   UNL     1      41.869 -13.207   3.704  1.00  0.00     0.280 HD
HETATM    3  C   UNL     1      40.381 -12.567   4.949  1.00  0.00     0.282 C 
HETATM    4  C   UNL     1      41.256 -11.650   5.733  1.00  0.00     0.018 A 
HETATM    5  C   UNL     1      42.508 -11.978   6.221  1.00  0.00    -0.023 A 
HETATM    6  C   UNL     1      43.093 -10.876   6.925  1.00  0.00     0.073 A 
HETATM    7  C   UNL     1      42.268  -9.778   6.928  1.00  0.00     0.088 A 
HETATM    8  N   UNL     1      42.600  -8.599   7.487  1.00  0.00    -0.358 N 
HETATM    9  C   UNL     1      43.749  -8.502   8.362  1.00  0.00     0.219 C 
HETATM   10  N   UNL     1      44.666  -9.599   8.179  1.00  0.00    -0.332 N 
HETATM   11  C   UNL     1      44.385 -10.789   7.574  1.00  0.00     0.256 C 
HETATM   12  O   UNL     1      45.186 -11.718   7.576  1.00  0.00    -0.267 OA
HETATM   13  S   UNL     1      40.791 -10.063   6.133  1.00  0.00    -0.074 SA
HETATM   14  C   UNL     1      43.128 -13.322   5.965  1.00  0.00     0.068 C 
HETATM   15  C   UNL     1      42.102 -14.332   5.415  1.00  0.00     0.240 C 
HETATM   16  H   UNL     1      41.880  -7.901   7.652  1.00  0.00     0.162 HD
HETATM   17  H   UNL     1      45.546  -9.564   8.672  1.00  0.00     0.165 HD
ENDROOT
BRANCH   9  18
HETATM   18  C   UNL     1      43.299  -8.339   9.801  1.00  0.00    -0.016 A 
HETATM   19  C   UNL     1      43.968  -8.962  10.870  1.00  0.00     0.014 A 
HETATM   20  C   UNL     1      43.504  -8.829  12.183  1.00  0.00     0.038 A 
HETATM   21  C   UNL     1      42.348  -8.096  12.430  1.00  0.00     0.079 A 
HETATM   22  C   UNL     1      41.678  -7.454  11.389  1.00  0.00     0.038 A 
HETATM   23  C   UNL     1      42.147  -7.582  10.081  1.00  0.00     0.014 A 
BRANCH  21  24
HETATM   24  O   UNL     1      41.805  -7.896  13.714  1.00  0.00    -0.276 OA
BRANCH  24  25
HETATM   25  C   UNL     1      42.098  -6.759  14.452  1.00  0.00     0.288 C 
HETATM   26  O   UNL     1      42.427  -5.663  14.025  1.00  0.00    -0.260 OA
BRANCH  25  27
HETATM   27  C   UNL     1      41.974  -7.030  15.901  1.00  0.00     0.085 C 
HETATM   28  C   UNL     1      40.847  -7.448  16.495  1.00  0.00     0.043 C 
BRANCH  28  29
HETATM   29  C   UNL     1      40.821  -7.733  17.887  1.00  0.00     0.075 A 
HETATM   30  O   UNL     1      41.931  -7.706  18.704  1.00  0.00    -0.323 OA
HETATM   31  C   UNL     1      41.546  -8.031  19.963  1.00  0.00     0.142 A 
HETATM   32  C   UNL     1      40.198  -8.277  20.002  1.00  0.00     0.027 A 
HETATM   33  C   UNL     1      39.732  -8.085  18.679  1.00  0.00     0.039 A 
ENDBRANCH  28  29
ENDBRANCH  25  27
ENDBRANCH  24  25
ENDBRANCH  21  24
ENDBRANCH   9  18
BRANCH   1  34
HETATM   34  C   UNL     1      40.443 -14.648   3.502  1.00  0.00     0.273 C 
BRANCH  34  35
HETATM   35  C   UNL     1      40.417 -14.355   2.027  1.00  0.00    -0.033 A 
HETATM   36  C   UNL     1      40.880 -13.123   1.535  1.00  0.00     0.009 A 
HETATM   37  C   UNL     1      40.835 -12.845   0.168  1.00  0.00     0.001 A 
HETATM   38  C   UNL     1      40.334 -13.791  -0.721  1.00  0.00     0.000 A 
HETATM   39  C   UNL     1      39.884 -15.022  -0.249  1.00  0.00     0.001 A 
HETATM   40  C   UNL     1      39.928 -15.305   1.116  1.00  0.00     0.009 A 
ENDBRANCH  34  35
ENDBRANCH   1  34
TORSDOF 7
ENDMDL
MODEL 9
REMARK VINA RESULT:      -8.3     18.312     20.637
REMARK  7 active torsions:
REMARK  status: ('A' for Active; 'I' for Inactive)
REMARK    1  A    between atoms: C_4  and  C_5 
REMARK    2  A    between atoms: C_5  and  N_6 
REMARK    3  A    between atoms: C_14  and  C_15 
REMARK    4  A    between atoms: C_18  and  O_19 
REMARK    5  A    between atoms: O_19  and  C_20 
REMARK    6  A    between atoms: C_20  and  C_21 
REMARK    7  A    between atoms: C_22  and  C_23 
ROOT
HETATM    1  N   UNL     1      50.699 -32.463   6.290  1.00  0.00    -0.063 N 
HETATM    2  H   UNL     1      50.362 -31.761   6.961  1.00  0.00     0.280 HD
HETATM    3  C   UNL     1      51.189 -31.658   5.096  1.00  0.00     0.282 C 
HETATM    4  C   UNL     1      50.041 -30.929   4.487  1.00  0.00     0.018 A 
HETATM    5  C   UNL     1      48.710 -31.261   4.665  1.00  0.00    -0.023 A 
HETATM    6  C   UNL     1      47.853 -30.360   3.953  1.00  0.00     0.073 A 
HETATM    7  C   UNL     1      48.570 -29.396   3.286  1.00  0.00     0.088 A 
HETATM    8  N   UNL     1      48.000 -28.405   2.575  1.00  0.00    -0.358 N 
HETATM    9  C   UNL     1      46.591 -28.455   2.248  1.00  0.00     0.219 C 
HETATM   10  N   UNL     1      45.865 -29.356   3.107  1.00  0.00    -0.332 N 
HETATM   11  C   UNL     1      46.406 -30.340   3.881  1.00  0.00     0.256 C 
HETATM   12  O   UNL     1      45.705 -31.146   4.482  1.00  0.00    -0.267 OA
HETATM   13  S   UNL     1      50.250 -29.581   3.471  1.00  0.00    -0.074 SA
HETATM   14  C   UNL     1      48.292 -32.405   5.544  1.00  0.00     0.068 C 
HETATM   15  C   UNL     1      49.484 -33.307   5.918  1.00  0.00     0.240 C 
HETATM   16  H   UNL     1      48.567 -27.858   1.933  1.00  0.00     0.162 HD
HETATM   17  H   UNL     1      44.860 -29.380   3.021  1.00  0.00     0.165 HD
ENDROOT
BRANCH   9  18
HETATM   18  C   UNL     1      46.407 -28.762   0.774  1.00  0.00    -0.016 A 
HETATM   19  C   UNL     1      45.515 -29.750   0.321  1.00  0.00     0.014 A 
HETATM   20  C   UNL     1      45.399 -30.043  -1.042  1.00  0.00     0.038 A 
HETATM   21  C   UNL     1      46.197 -29.367  -1.958  1.00  0.00     0.079 A 
HETATM   22  C   UNL     1      47.075 -28.370  -1.535  1.00  0.00     0.038 A 
HETATM   23  C   UNL     1      47.185 -28.075  -0.176  1.00  0.00     0.014 A 
BRANCH  21  24
HETATM   24  O   UNL     1      46.150 -29.581  -3.349  1.00  0.00    -0.276 OA
BRANCH  24  25
HETATM   25  C   UNL     1      44.952 -29.532  -4.047  1.00  0.00     0.288 C 
HETATM   26  O   UNL     1      43.942 -28.917  -3.741  1.00  0.00    -0.260 OA
BRANCH  25  27
HETATM   27  C   UNL     1      45.023 -30.363  -5.268  1.00  0.00     0.085 C 
HETATM   28  C   UNL     1      43.960 -30.703  -6.011  1.00  0.00     0.043 C 
BRANCH  28  29
HETATM   29  C   UNL     1      44.116 -31.466  -7.199  1.00  0.00     0.075 A 
HETATM   30  O   UNL     1      43.069 -31.993  -7.925  1.00  0.00    -0.323 OA
HETATM   31  C   UNL     1      43.578 -32.663  -8.988  1.00  0.00     0.142 A 
HETATM   32  C   UNL     1      44.947 -32.595  -8.986  1.00  0.00     0.027 A 
HETATM   33  C   UNL     1      45.293 -31.830  -7.847  1.00  0.00     0.039 A 
ENDBRANCH  28  29
ENDBRANCH  25  27
ENDBRANCH  24  25
ENDBRANCH  21  24
ENDBRANCH   9  18
BRANCH   1  34
HETATM   34  C   UNL     1      51.790 -33.213   7.007  1.00  0.00     0.273 C 
BRANCH  34  35
HETATM   35  C   UNL     1      52.586 -32.417   8.006  1.00  0.00    -0.033 A 
HETATM   36  C   UNL     1      53.516 -31.457   7.577  1.00  0.00     0.009 A 
HETATM   37  C   UNL     1      54.269 -30.736   8.505  1.00  0.00     0.001 A 
HETATM   38  C   UNL     1      54.099 -30.961   9.868  1.00  0.00     0.000 A 
HETATM   39  C   UNL     1      53.170 -31.901  10.308  1.00  0.00     0.001 A 
HETATM   40  C   UNL     1      52.415 -32.623   9.384  1.00  0.00     0.009 A 
ENDBRANCH  34  35
ENDBRANCH   1  34
TORSDOF 7
ENDMDL
MODEL 10
REMARK VINA RESULT:      -8.3      4.701      8.257
REMARK  7 active torsions:
REMARK  status: ('A' for Active; 'I' for Inactive)
REMARK    1  A    between atoms: C_4  and  C_5 
REMARK    2  A    between atoms: C_5  and  N_6 
REMARK    3  A    between atoms: C_14  and  C_15 
REMARK    4  A    between atoms: C_18  and  O_19 
REMARK    5  A    between atoms: O_19  and  C_20 
REMARK    6  A    between atoms: C_20  and  C_21 
REMARK    7  A    between atoms: C_22  and  C_23 
ROOT
HETATM    1  N   UNL     1      38.726  -6.167  12.032  1.00  0.00    -0.063 N 
HETATM    2  H   UNL     1      39.589  -5.826  12.473  1.00  0.00     0.280 HD
HETATM    3  C   UNL     1      38.850  -7.683  12.049  1.00  0.00     0.282 C 
HETATM    4  C   UNL     1      40.010  -8.093  11.206  1.00  0.00     0.018 A 
HETATM    5  C   UNL     1      40.588  -7.309  10.224  1.00  0.00    -0.023 A 
HETATM    6  C   UNL     1      41.687  -7.988   9.603  1.00  0.00     0.073 A 
HETATM    7  C   UNL     1      41.887  -9.234  10.145  1.00  0.00     0.088 A 
HETATM    8  N   UNL     1      42.881 -10.059   9.766  1.00  0.00    -0.358 N 
HETATM    9  C   UNL     1      43.641  -9.785   8.565  1.00  0.00     0.219 C 
HETATM   10  N   UNL     1      43.528  -8.409   8.151  1.00  0.00    -0.332 N 
HETATM   11  C   UNL     1      42.567  -7.526   8.549  1.00  0.00     0.256 C 
HETATM   12  O   UNL     1      42.468  -6.411   8.048  1.00  0.00    -0.267 OA
HETATM   13  S   UNL     1      40.756  -9.613  11.358  1.00  0.00    -0.074 SA
HETATM   14  C   UNL     1      40.103  -5.917   9.936  1.00  0.00     0.068 C 
HETATM   15  C   UNL     1      38.743  -5.634  10.604  1.00  0.00     0.240 C 
HETATM   16  H   UNL     1      42.853 -11.038  10.037  1.00  0.00     0.162 HD
HETATM   17  H   UNL     1      44.104  -8.100   7.382  1.00  0.00     0.165 HD
ENDROOT
BRANCH   9  18
HETATM   18  C   UNL     1      43.263 -10.766   7.472  1.00  0.00    -0.016 A 
HETATM   19  C   UNL     1      42.193 -10.530   6.591  1.00  0.00     0.014 A 
HETATM   20  C   UNL     1      41.839 -11.474   5.621  1.00  0.00     0.038 A 
HETATM   21  C   UNL     1      42.537 -12.675   5.546  1.00  0.00     0.079 A 
HETATM   22  C   UNL     1      43.613 -12.923   6.397  1.00  0.00     0.038 A 
HETATM   23  C   UNL     1      43.969 -11.978   7.359  1.00  0.00     0.014 A 
BRANCH  21  24
HETATM   24  O   UNL     1      42.265 -13.684   4.602  1.00  0.00    -0.276 OA
BRANCH  24  25
HETATM   25  C   UNL     1      42.977 -13.771   3.415  1.00  0.00     0.288 C 
HETATM   26  O   UNL     1      43.297 -12.855   2.674  1.00  0.00    -0.260 OA
BRANCH  25  27
HETATM   27  C   UNL     1      43.319 -15.179   3.113  1.00  0.00     0.085 C 
HETATM   28  C   UNL     1      42.749 -16.236   3.709  1.00  0.00     0.043 C 
BRANCH  28  29
HETATM   29  C   UNL     1      43.098 -17.560   3.330  1.00  0.00     0.075 A 
HETATM   30  O   UNL     1      42.640 -18.186   2.190  1.00  0.00    -0.323 OA
HETATM   31  C   UNL     1      43.165 -19.434   2.144  1.00  0.00     0.142 A 
HETATM   32  C   UNL     1      43.965 -19.657   3.236  1.00  0.00     0.027 A 
HETATM   33  C   UNL     1      43.926 -18.462   3.992  1.00  0.00     0.039 A 
ENDBRANCH  28  29
ENDBRANCH  25  27
ENDBRANCH  24  25
ENDBRANCH  21  24
ENDBRANCH   9  18
BRANCH   1  34
HETATM   34  C   UNL     1      37.604  -5.640  12.887  1.00  0.00     0.273 C 
BRANCH  34  35
HETATM   35  C   UNL     1      37.985  -5.202  14.275  1.00  0.00    -0.033 A 
HETATM   36  C   UNL     1      38.893  -5.955  15.037  1.00  0.00     0.009 A 
HETATM   37  C   UNL     1      39.229  -5.559  16.333  1.00  0.00     0.001 A 
HETATM   38  C   UNL     1      38.669  -4.408  16.878  1.00  0.00     0.000 A 
HETATM   39  C   UNL     1      37.777  -3.644  16.129  1.00  0.00     0.001 A 
HETATM   40  C   UNL     1      37.439  -4.036  14.833  1.00  0.00     0.009 A 
ENDBRANCH  34  35
ENDBRANCH   1  34
TORSDOF 7
ENDMDL
