MODEL 1
REMARK VINA RESULT:      -8.9      0.000      0.000
REMARK  4 active torsions:
REMARK  status: ('A' for Active; 'I' for Inactive)
REMARK    1  A    between atoms: C_6  and  C_7 
REMARK    2  A    between atoms: C_7  and  C_8 
REMARK    3  A    between atoms: C_18  and  N_19 
REMARK    4  A    between atoms: C_21  and  C_22 
ROOT
HETATM    1  C   UNL     1      43.224 -16.447   1.603  1.00  0.00     0.049 C 
HETATM    2  C   UNL     1      43.311 -16.864   3.045  1.00  0.00    -0.044 A 
HETATM    3  C   UNL     1      43.107 -15.986   4.145  1.00  0.00     0.033 A 
HETATM    4  C   UNL     1      43.246 -16.537   5.416  1.00  0.00     0.112 A 
HETATM    5  S   UNL     1      43.007 -15.414   6.670  1.00  0.00    -0.063 SA
HETATM    6  C   UNL     1      42.743 -14.133   5.570  1.00  0.00     0.085 A 
HETATM    7  C   UNL     1      42.770 -14.589   4.263  1.00  0.00     0.060 A 
HETATM    8  N   UNL     1      43.534 -17.817   5.726  1.00  0.00    -0.236 NA
HETATM    9  C   UNL     1      43.701 -18.640   4.665  1.00  0.00     0.142 A 
HETATM   10  C   UNL     1      43.598 -18.208   3.342  1.00  0.00     0.044 A 
ENDROOT
BRANCH   6  11
HETATM   11  C   UNL     1      42.430 -12.784   6.025  1.00  0.00     0.201 C 
HETATM   12  O   UNL     1      41.299 -12.302   5.937  1.00  0.00    -0.286 OA
BRANCH  11  13
HETATM   13  C   UNL     1      43.481 -11.896   6.597  1.00  0.00     0.018 A 
HETATM   14  C   UNL     1      43.071 -10.756   7.305  1.00  0.00     0.055 A 
HETATM   15  C   UNL     1      44.052  -9.921   7.796  1.00  0.00     0.106 A 
HETATM   16  C   UNL     1      45.388 -10.175   7.599  1.00  0.00     0.105 A 
HETATM   17  O   UNL     1      43.840  -8.779   8.504  1.00  0.00    -0.323 OA
HETATM   18  O   UNL     1      46.185  -9.227   8.159  1.00  0.00    -0.323 OA
HETATM   19  C   UNL     1      45.824 -11.277   6.893  1.00  0.00     0.040 A 
HETATM   20  C   UNL     1      45.197  -8.339   8.723  1.00  0.00     0.352 A 
HETATM   21  C   UNL     1      44.855 -12.143   6.376  1.00  0.00     0.018 A 
ENDBRANCH  11  13
ENDBRANCH   6  11
BRANCH   7  22
HETATM   22  N   UNL     1      42.511 -13.771   3.211  1.00  0.00    -0.397 N 
HETATM   23  H   UNL     1      41.534 -13.639   2.931  1.00  0.00     0.156 HD
HETATM   24  H   UNL     1      43.127 -13.746   2.406  1.00  0.00     0.156 HD
ENDBRANCH   7  22
BRANCH   9  25
HETATM   25  C   UNL     1      44.019 -20.110   4.917  1.00  0.00     0.434 C 
HETATM   26  F   UNL     1      45.346 -20.388   5.049  1.00  0.00    -0.165 F 
HETATM   27  F   UNL     1      43.424 -20.582   6.053  1.00  0.00    -0.165 F 
HETATM   28  F   UNL     1      43.568 -20.918   3.911  1.00  0.00    -0.165 F 
ENDBRANCH   9  25
TORSDOF 4
ENDMDL
MODEL 2
REMARK VINA RESULT:      -8.2      4.412      7.224
REMARK  4 active torsions:
REMARK  status: ('A' for Active; 'I' for Inactive)
REMARK    1  A    between atoms: C_6  and  C_7 
REMARK    2  A    between atoms: C_7  and  C_8 
REMARK    3  A    between atoms: C_18  and  N_19 
REMARK    4  A    between atoms: C_21  and  C_22 
ROOT
HETATM    1  C   UNL     1      40.551 -15.680   6.227  1.00  0.00     0.049 C 
HETATM    2  C   UNL     1      41.567 -16.078   5.193  1.00  0.00    -0.044 A 
HETATM    3  C   UNL     1      41.808 -15.358   3.990  1.00  0.00     0.033 A 
HETATM    4  C   UNL     1      42.773 -15.881   3.134  1.00  0.00     0.112 A 
HETATM    5  S   UNL     1      42.981 -14.970   1.713  1.00  0.00    -0.063 SA
HETATM    6  C   UNL     1      41.764 -13.858   2.160  1.00  0.00     0.085 A 
HETATM    7  C   UNL     1      41.263 -14.151   3.418  1.00  0.00     0.060 A 
HETATM    8  N   UNL     1      43.523 -16.984   3.323  1.00  0.00    -0.236 NA
HETATM    9  C   UNL     1      43.294 -17.641   4.484  1.00  0.00     0.142 A 
HETATM   10  C   UNL     1      42.347 -17.225   5.421  1.00  0.00     0.044 A 
ENDROOT
BRANCH   6  11
HETATM   11  C   UNL     1      41.426 -12.713   1.325  1.00  0.00     0.201 C 
HETATM   12  O   UNL     1      41.599 -11.550   1.695  1.00  0.00    -0.286 OA
BRANCH  11  13
HETATM   13  C   UNL     1      40.816 -12.890  -0.023  1.00  0.00     0.018 A 
HETATM   14  C   UNL     1      40.047 -14.040  -0.255  1.00  0.00     0.055 A 
HETATM   15  C   UNL     1      39.519 -14.213  -1.517  1.00  0.00     0.106 A 
HETATM   16  C   UNL     1      39.739 -13.306  -2.527  1.00  0.00     0.105 A 
HETATM   17  O   UNL     1      38.751 -15.261  -1.919  1.00  0.00    -0.323 OA
HETATM   18  O   UNL     1      39.135 -13.669  -3.689  1.00  0.00    -0.323 OA
HETATM   19  C   UNL     1      40.504 -12.175  -2.337  1.00  0.00     0.040 A 
HETATM   20  C   UNL     1      38.519 -14.914  -3.300  1.00  0.00     0.352 A 
HETATM   21  C   UNL     1      41.060 -11.971  -1.068  1.00  0.00     0.018 A 
ENDBRANCH  11  13
ENDBRANCH   6  11
BRANCH   7  22
HETATM   22  N   UNL     1      40.338 -13.364   4.025  1.00  0.00    -0.397 N 
HETATM   23  H   UNL     1      39.572 -13.822   4.530  1.00  0.00     0.156 HD
HETATM   24  H   UNL     1      40.028 -12.499   3.597  1.00  0.00     0.156 HD
ENDBRANCH   7  22
BRANCH   9  25
HETATM   25  C   UNL     1      44.104 -18.895   4.791  1.00  0.00     0.434 C 
HETATM   26  F   UNL     1      45.448 -18.760   4.617  1.00  0.00    -0.165 F 
HETATM   27  F   UNL     1      43.936 -19.318   6.080  1.00  0.00    -0.165 F 
HETATM   28  F   UNL     1      43.734 -19.956   4.013  1.00  0.00    -0.165 F 
ENDBRANCH   9  25
TORSDOF 4
ENDMDL
MODEL 3
REMARK VINA RESULT:      -8.2      4.015      5.505
REMARK  4 active torsions:
REMARK  status: ('A' for Active; 'I' for Inactive)
REMARK    1  A    between atoms: C_6  and  C_7 
REMARK    2  A    between atoms: C_7  and  C_8 
REMARK    3  A    between atoms: C_18  and  N_19 
REMARK    4  A    between atoms: C_21  and  C_22 
ROOT
HETATM    1  C   UNL     1      44.582 -16.780   5.947  1.00  0.00     0.049 C 
HETATM    2  C   UNL     1      43.811 -17.125   4.703  1.00  0.00    -0.044 A 
HETATM    3  C   UNL     1      42.899 -16.244   4.057  1.00  0.00     0.033 A 
HETATM    4  C   UNL     1      42.256 -16.736   2.925  1.00  0.00     0.112 A 
HETATM    5  S   UNL     1      41.170 -15.627   2.231  1.00  0.00    -0.063 SA
HETATM    6  C   UNL     1      41.482 -14.455   3.434  1.00  0.00     0.085 A 
HETATM    7  C   UNL     1      42.462 -14.893   4.309  1.00  0.00     0.060 A 
HETATM    8  N   UNL     1      42.413 -17.947   2.355  1.00  0.00    -0.236 NA
HETATM    9  C   UNL     1      43.302 -18.760   2.972  1.00  0.00     0.142 A 
HETATM   10  C   UNL     1      44.004 -18.389   4.120  1.00  0.00     0.044 A 
ENDROOT
BRANCH   6  11
HETATM   11  C   UNL     1      40.842 -13.146   3.415  1.00  0.00     0.201 C 
HETATM   12  O   UNL     1      40.414 -12.604   4.435  1.00  0.00    -0.286 OA
BRANCH  11  13
HETATM   13  C   UNL     1      40.640 -12.402   2.140  1.00  0.00     0.018 A 
HETATM   14  C   UNL     1      41.589 -11.433   1.781  1.00  0.00     0.055 A 
HETATM   15  C   UNL     1      41.371 -10.723   0.620  1.00  0.00     0.106 A 
HETATM   16  C   UNL     1      40.263 -10.938  -0.166  1.00  0.00     0.105 A 
HETATM   17  O   UNL     1      42.182  -9.754   0.119  1.00  0.00    -0.323 OA
HETATM   18  O   UNL     1      40.240 -10.130  -1.260  1.00  0.00    -0.323 OA
HETATM   19  C   UNL     1      39.303 -11.870   0.167  1.00  0.00     0.040 A 
HETATM   20  C   UNL     1      41.454  -9.375  -1.068  1.00  0.00     0.352 A 
HETATM   21  C   UNL     1      39.490 -12.605   1.343  1.00  0.00     0.018 A 
ENDBRANCH  11  13
ENDBRANCH   6  11
BRANCH   7  22
HETATM   22  N   UNL     1      42.938 -14.107   5.308  1.00  0.00    -0.397 N 
HETATM   23  H   UNL     1      43.005 -14.509   6.249  1.00  0.00     0.156 HD
HETATM   24  H   UNL     1      42.709 -13.120   5.349  1.00  0.00     0.156 HD
ENDBRANCH   7  22
BRANCH   9  25
HETATM   25  C   UNL     1      43.555 -20.147   2.393  1.00  0.00     0.434 C 
HETATM   26  F   UNL     1      44.609 -20.219   1.533  1.00  0.00    -0.165 F 
HETATM   27  F   UNL     1      43.801 -21.077   3.363  1.00  0.00    -0.165 F 
HETATM   28  F   UNL     1      42.478 -20.625   1.701  1.00  0.00    -0.165 F 
ENDBRANCH   9  25
TORSDOF 4
ENDMDL
MODEL 4
REMARK VINA RESULT:      -8.0      2.835      3.822
REMARK  4 active torsions:
REMARK  status: ('A' for Active; 'I' for Inactive)
REMARK    1  A    between atoms: C_6  and  C_7 
REMARK    2  A    between atoms: C_7  and  C_8 
REMARK    3  A    between atoms: C_18  and  N_19 
REMARK    4  A    between atoms: C_21  and  C_22 
ROOT
HETATM    1  C   UNL     1      43.949 -17.685   6.770  1.00  0.00     0.049 C 
HETATM    2  C   UNL     1      43.686 -17.664   5.290  1.00  0.00    -0.044 A 
HETATM    3  C   UNL     1      43.354 -16.493   4.553  1.00  0.00     0.033 A 
HETATM    4  C   UNL     1      43.124 -16.660   3.191  1.00  0.00     0.112 A 
HETATM    5  S   UNL     1      42.713 -15.215   2.394  1.00  0.00    -0.063 SA
HETATM    6  C   UNL     1      42.787 -14.309   3.841  1.00  0.00     0.085 A 
HETATM    7  C   UNL     1      43.194 -15.103   4.901  1.00  0.00     0.060 A 
HETATM    8  N   UNL     1      43.199 -17.803   2.482  1.00  0.00    -0.236 NA
HETATM    9  C   UNL     1      43.539 -18.900   3.197  1.00  0.00     0.142 A 
HETATM   10  C   UNL     1      43.786 -18.868   4.570  1.00  0.00     0.044 A 
ENDROOT
BRANCH   6  11
HETATM   11  C   UNL     1      42.546 -12.872   3.860  1.00  0.00     0.201 C 
HETATM   12  O   UNL     1      43.232 -12.078   3.212  1.00  0.00    -0.286 OA
BRANCH  11  13
HETATM   13  C   UNL     1      41.468 -12.278   4.698  1.00  0.00     0.018 A 
HETATM   14  C   UNL     1      41.814 -11.259   5.597  1.00  0.00     0.055 A 
HETATM   15  C   UNL     1      40.815 -10.743   6.396  1.00  0.00     0.106 A 
HETATM   16  C   UNL     1      39.522 -11.208   6.333  1.00  0.00     0.105 A 
HETATM   17  O   UNL     1      40.966  -9.756   7.318  1.00  0.00    -0.323 OA
HETATM   18  O   UNL     1      38.699 -10.569   7.206  1.00  0.00    -0.323 OA
HETATM   19  C   UNL     1      39.153 -12.220   5.472  1.00  0.00     0.040 A 
HETATM   20  C   UNL     1      39.623  -9.656   7.834  1.00  0.00     0.352 A 
HETATM   21  C   UNL     1      40.144 -12.770   4.651  1.00  0.00     0.018 A 
ENDBRANCH  11  13
ENDBRANCH   6  11
BRANCH   7  22
HETATM   22  N   UNL     1      43.401 -14.593   6.142  1.00  0.00    -0.397 N 
HETATM   23  H   UNL     1      42.593 -14.229   6.656  1.00  0.00     0.156 HD
HETATM   24  H   UNL     1      44.238 -14.061   6.354  1.00  0.00     0.156 HD
ENDBRANCH   7  22
BRANCH   9  25
HETATM   25  C   UNL     1      43.659 -20.239   2.478  1.00  0.00     0.434 C 
HETATM   26  F   UNL     1      43.949 -21.294   3.290  1.00  0.00    -0.165 F 
HETATM   27  F   UNL     1      42.512 -20.580   1.820  1.00  0.00    -0.165 F 
HETATM   28  F   UNL     1      44.635 -20.228   1.521  1.00  0.00    -0.165 F 
ENDBRANCH   9  25
TORSDOF 4
ENDMDL
MODEL 5
REMARK VINA RESULT:      -8.0      4.609      6.772
REMARK  4 active torsions:
REMARK  status: ('A' for Active; 'I' for Inactive)
REMARK    1  A    between atoms: C_6  and  C_7 
REMARK    2  A    between atoms: C_7  and  C_8 
REMARK    3  A    between atoms: C_18  and  N_19 
REMARK    4  A    between atoms: C_21  and  C_22 
ROOT
HETATM    1  C   UNL     1      41.492 -15.911   6.989  1.00  0.00     0.049 C 
HETATM    2  C   UNL     1      41.977 -16.429   5.663  1.00  0.00    -0.044 A 
HETATM    3  C   UNL     1      41.595 -15.886   4.405  1.00  0.00     0.033 A 
HETATM    4  C   UNL     1      42.125 -16.502   3.275  1.00  0.00     0.112 A 
HETATM    5  S   UNL     1      41.600 -15.804   1.816  1.00  0.00    -0.063 SA
HETATM    6  C   UNL     1      40.611 -14.672   2.628  1.00  0.00     0.085 A 
HETATM    7  C   UNL     1      40.747 -14.791   4.001  1.00  0.00     0.060 A 
HETATM    8  N   UNL     1      42.977 -17.545   3.235  1.00  0.00    -0.236 NA
HETATM    9  C   UNL     1      43.346 -18.030   4.443  1.00  0.00     0.142 A 
HETATM   10  C   UNL     1      42.878 -17.508   5.649  1.00  0.00     0.044 A 
ENDROOT
BRANCH   6  11
HETATM   11  C   UNL     1      39.837 -13.671   1.905  1.00  0.00     0.201 C 
HETATM   12  O   UNL     1      38.974 -12.981   2.451  1.00  0.00    -0.286 OA
BRANCH  11  13
HETATM   13  C   UNL     1      40.027 -13.453   0.444  1.00  0.00     0.018 A 
HETATM   14  C   UNL     1      40.599 -12.242   0.024  1.00  0.00     0.055 A 
HETATM   15  C   UNL     1      40.734 -12.034  -1.332  1.00  0.00     0.106 A 
HETATM   16  C   UNL     1      40.319 -12.965  -2.254  1.00  0.00     0.105 A 
HETATM   17  O   UNL     1      41.266 -10.927  -1.916  1.00  0.00    -0.323 OA
HETATM   18  O   UNL     1      40.539 -12.561  -3.534  1.00  0.00    -0.323 OA
HETATM   19  C   UNL     1      39.738 -14.157  -1.876  1.00  0.00     0.040 A 
HETATM   20  C   UNL     1      41.131 -11.264  -3.312  1.00  0.00     0.352 A 
HETATM   21  C   UNL     1      39.580 -14.398  -0.507  1.00  0.00     0.018 A 
ENDBRANCH  11  13
ENDBRANCH   6  11
BRANCH   7  22
HETATM   22  N   UNL     1      40.119 -13.950   4.862  1.00  0.00    -0.397 N 
HETATM   23  H   UNL     1      40.069 -14.219   5.850  1.00  0.00     0.156 HD
HETATM   24  H   UNL     1      39.290 -13.440   4.580  1.00  0.00     0.156 HD
ENDBRANCH   7  22
BRANCH   9  25
HETATM   25  C   UNL     1      44.318 -19.204   4.499  1.00  0.00     0.434 C 
HETATM   26  F   UNL     1      44.135 -20.138   3.525  1.00  0.00    -0.165 F 
HETATM   27  F   UNL     1      45.620 -18.805   4.392  1.00  0.00    -0.165 F 
HETATM   28  F   UNL     1      44.244 -19.883   5.683  1.00  0.00    -0.165 F 
ENDBRANCH   9  25
TORSDOF 4
ENDMDL
MODEL 6
REMARK VINA RESULT:      -7.5      5.543      6.886
REMARK  4 active torsions:
REMARK  status: ('A' for Active; 'I' for Inactive)
REMARK    1  A    between atoms: C_6  and  C_7 
REMARK    2  A    between atoms: C_7  and  C_8 
REMARK    3  A    between atoms: C_18  and  N_19 
REMARK    4  A    between atoms: C_21  and  C_22 
ROOT
HETATM    1  C   UNL     1      37.757 -11.221   1.494  1.00  0.00     0.049 C 
HETATM    2  C   UNL     1      38.700 -12.119   0.742  1.00  0.00    -0.044 A 
HETATM    3  C   UNL     1      39.567 -13.064   1.358  1.00  0.00     0.033 A 
HETATM    4  C   UNL     1      40.388 -13.801   0.510  1.00  0.00     0.112 A 
HETATM    5  S   UNL     1      41.405 -14.888   1.330  1.00  0.00    -0.063 SA
HETATM    6  C   UNL     1      40.821 -14.396   2.859  1.00  0.00     0.085 A 
HETATM    7  C   UNL     1      39.808 -13.461   2.724  1.00  0.00     0.060 A 
HETATM    8  N   UNL     1      40.442 -13.738  -0.835  1.00  0.00    -0.236 NA
HETATM    9  C   UNL     1      39.593 -12.850  -1.402  1.00  0.00     0.142 A 
HETATM   10  C   UNL     1      38.726 -12.045  -0.661  1.00  0.00     0.044 A 
ENDROOT
BRANCH   6  11
HETATM   11  C   UNL     1      41.298 -15.003   4.094  1.00  0.00     0.201 C 
HETATM   12  O   UNL     1      40.962 -16.135   4.448  1.00  0.00    -0.286 OA
BRANCH  11  13
HETATM   13  C   UNL     1      42.202 -14.266   5.021  1.00  0.00     0.018 A 
HETATM   14  C   UNL     1      42.843 -13.113   4.543  1.00  0.00     0.055 A 
HETATM   15  C   UNL     1      43.707 -12.461   5.397  1.00  0.00     0.106 A 
HETATM   16  C   UNL     1      43.950 -12.916   6.671  1.00  0.00     0.105 A 
HETATM   17  O   UNL     1      44.410 -11.334   5.106  1.00  0.00    -0.323 OA
HETATM   18  O   UNL     1      44.835 -12.131   7.342  1.00  0.00    -0.323 OA
HETATM   19  C   UNL     1      43.349 -14.054   7.166  1.00  0.00     0.040 A 
HETATM   20  C   UNL     1      45.130 -11.136   6.340  1.00  0.00     0.352 A 
HETATM   21  C   UNL     1      42.470 -14.744   6.324  1.00  0.00     0.018 A 
ENDBRANCH  11  13
ENDBRANCH   6  11
BRANCH   7  22
HETATM   22  N   UNL     1      39.132 -12.974   3.795  1.00  0.00    -0.397 N 
HETATM   23  H   UNL     1      39.467 -13.223   4.731  1.00  0.00     0.156 HD
HETATM   24  H   UNL     1      38.122 -12.889   3.780  1.00  0.00     0.156 HD
ENDBRANCH   7  22
BRANCH   9  25
HETATM   25  C   UNL     1      39.575 -12.715  -2.921  1.00  0.00     0.434 C 
HETATM   26  F   UNL     1      38.996 -13.760  -3.575  1.00  0.00    -0.165 F 
HETATM   27  F   UNL     1      38.904 -11.599  -3.334  1.00  0.00    -0.165 F 
HETATM   28  F   UNL     1      40.830 -12.597  -3.446  1.00  0.00    -0.165 F 
ENDBRANCH   9  25
TORSDOF 4
ENDMDL
MODEL 7
REMARK VINA RESULT:      -7.4     16.217     17.802
REMARK  4 active torsions:
REMARK  status: ('A' for Active; 'I' for Inactive)
REMARK    1  A    between atoms: C_6  and  C_7 
REMARK    2  A    between atoms: C_7  and  C_8 
REMARK    3  A    between atoms: C_18  and  N_19 
REMARK    4  A    between atoms: C_21  and  C_22 
ROOT
HETATM    1  C   UNL     1      46.177 -31.485   5.701  1.00  0.00     0.049 C 
HETATM    2  C   UNL     1      47.101 -31.019   4.611  1.00  0.00    -0.044 A 
HETATM    3  C   UNL     1      46.664 -30.479   3.369  1.00  0.00     0.033 A 
HETATM    4  C   UNL     1      47.658 -30.115   2.465  1.00  0.00     0.112 A 
HETATM    5  S   UNL     1      47.047 -29.500   1.002  1.00  0.00    -0.063 SA
HETATM    6  C   UNL     1      45.427 -29.729   1.497  1.00  0.00     0.085 A 
HETATM    7  C   UNL     1      45.369 -30.203   2.797  1.00  0.00     0.060 A 
HETATM    8  N   UNL     1      48.991 -30.196   2.638  1.00  0.00    -0.236 NA
HETATM    9  C   UNL     1      49.385 -30.690   3.834  1.00  0.00     0.142 A 
HETATM   10  C   UNL     1      48.488 -31.100   4.822  1.00  0.00     0.044 A 
ENDROOT
BRANCH   6  11
HETATM   11  C   UNL     1      44.305 -29.350   0.648  1.00  0.00     0.201 C 
HETATM   12  O   UNL     1      43.184 -29.110   1.101  1.00  0.00    -0.286 OA
BRANCH  11  13
HETATM   13  C   UNL     1      44.448 -29.264  -0.833  1.00  0.00     0.018 A 
HETATM   14  C   UNL     1      44.175 -30.412  -1.592  1.00  0.00     0.055 A 
HETATM   15  C   UNL     1      44.348 -30.333  -2.957  1.00  0.00     0.106 A 
HETATM   16  C   UNL     1      44.782 -29.180  -3.568  1.00  0.00     0.105 A 
HETATM   17  O   UNL     1      44.131 -31.340  -3.844  1.00  0.00    -0.323 OA
HETATM   18  O   UNL     1      44.890 -29.318  -4.917  1.00  0.00    -0.323 OA
HETATM   19  C   UNL     1      45.075 -28.040  -2.850  1.00  0.00     0.040 A 
HETATM   20  C   UNL     1      44.485 -30.692  -5.084  1.00  0.00     0.352 A 
HETATM   21  C   UNL     1      44.915 -28.088  -1.460  1.00  0.00     0.018 A 
ENDBRANCH  11  13
ENDBRANCH   6  11
BRANCH   7  22
HETATM   22  N   UNL     1      44.190 -30.392   3.441  1.00  0.00    -0.397 N 
HETATM   23  H   UNL     1      43.903 -29.696   4.137  1.00  0.00     0.156 HD
HETATM   24  H   UNL     1      43.884 -31.321   3.707  1.00  0.00     0.156 HD
ENDBRANCH   7  22
BRANCH   9  25
HETATM   25  C   UNL     1      50.877 -30.809   4.126  1.00  0.00     0.434 C 
HETATM   26  F   UNL     1      51.241 -30.424   5.381  1.00  0.00    -0.165 F 
HETATM   27  F   UNL     1      51.333 -32.089   3.982  1.00  0.00    -0.165 F 
HETATM   28  F   UNL     1      51.635 -30.058   3.272  1.00  0.00    -0.165 F 
ENDBRANCH   9  25
TORSDOF 4
ENDMDL
MODEL 8
REMARK VINA RESULT:      -7.4      3.649      4.558
REMARK  4 active torsions:
REMARK  status: ('A' for Active; 'I' for Inactive)
REMARK    1  A    between atoms: C_6  and  C_7 
REMARK    2  A    between atoms: C_7  and  C_8 
REMARK    3  A    between atoms: C_18  and  N_19 
REMARK    4  A    between atoms: C_21  and  C_22 
ROOT
HETATM    1  C   UNL     1      41.091 -15.930   6.328  1.00  0.00     0.049 C 
HETATM    2  C   UNL     1      41.412 -15.046   5.154  1.00  0.00    -0.044 A 
HETATM    3  C   UNL     1      42.329 -13.960   5.199  1.00  0.00     0.033 A 
HETATM    4  C   UNL     1      42.491 -13.234   4.022  1.00  0.00     0.112 A 
HETATM    5  S   UNL     1      43.587 -11.942   4.170  1.00  0.00    -0.063 SA
HETATM    6  C   UNL     1      43.866 -12.272   5.824  1.00  0.00     0.085 A 
HETATM    7  C   UNL     1      43.176 -13.404   6.225  1.00  0.00     0.060 A 
HETATM    8  N   UNL     1      41.892 -13.454   2.835  1.00  0.00    -0.236 NA
HETATM    9  C   UNL     1      41.041 -14.506   2.809  1.00  0.00     0.142 A 
HETATM   10  C   UNL     1      40.785 -15.307   3.923  1.00  0.00     0.044 A 
ENDROOT
BRANCH   6  11
HETATM   11  C   UNL     1      44.803 -11.486   6.615  1.00  0.00     0.201 C 
HETATM   12  O   UNL     1      46.018 -11.497   6.405  1.00  0.00    -0.286 OA
BRANCH  11  13
HETATM   13  C   UNL     1      44.340 -10.645   7.754  1.00  0.00     0.018 A 
HETATM   14  C   UNL     1      43.067 -10.061   7.670  1.00  0.00     0.055 A 
HETATM   15  C   UNL     1      42.664  -9.252   8.712  1.00  0.00     0.106 A 
HETATM   16  C   UNL     1      43.473  -9.008   9.797  1.00  0.00     0.105 A 
HETATM   17  O   UNL     1      41.469  -8.609   8.801  1.00  0.00    -0.323 OA
HETATM   18  O   UNL     1      42.887  -8.183  10.704  1.00  0.00    -0.323 OA
HETATM   19  C   UNL     1      44.735  -9.553   9.902  1.00  0.00     0.040 A 
HETATM   20  C   UNL     1      41.621  -7.926  10.063  1.00  0.00     0.352 A 
HETATM   21  C   UNL     1      45.178 -10.374   8.859  1.00  0.00     0.018 A 
ENDBRANCH  11  13
ENDBRANCH   6  11
BRANCH   7  22
HETATM   22  N   UNL     1      43.297 -13.913   7.478  1.00  0.00    -0.397 N 
HETATM   23  H   UNL     1      43.727 -14.838   7.583  1.00  0.00     0.156 HD
HETATM   24  H   UNL     1      42.575 -13.765   8.173  1.00  0.00     0.156 HD
ENDBRANCH   7  22
BRANCH   9  25
HETATM   25  C   UNL     1      40.325 -14.841   1.506  1.00  0.00     0.434 C 
HETATM   26  F   UNL     1      41.150 -15.155   0.469  1.00  0.00    -0.165 F 
HETATM   27  F   UNL     1      39.474 -15.902   1.639  1.00  0.00    -0.165 F 
HETATM   28  F   UNL     1      39.547 -13.809   1.061  1.00  0.00    -0.165 F 
ENDBRANCH   9  25
TORSDOF 4
ENDMDL
MODEL 9
REMARK VINA RESULT:      -7.4     15.630     17.252
REMARK  4 active torsions:
REMARK  status: ('A' for Active; 'I' for Inactive)
REMARK    1  A    between atoms: C_6  and  C_7 
REMARK    2  A    between atoms: C_7  and  C_8 
REMARK    3  A    between atoms: C_18  and  N_19 
REMARK    4  A    between atoms: C_21  and  C_22 
ROOT
HETATM    1  C   UNL     1      42.848 -29.199   0.723  1.00  0.00     0.049 C 
HETATM    2  C   UNL     1      44.080 -29.167  -0.138  1.00  0.00    -0.044 A 
HETATM    3  C   UNL     1      45.401 -29.005   0.363  1.00  0.00     0.033 A 
HETATM    4  C   UNL     1      46.425 -28.978  -0.580  1.00  0.00     0.112 A 
HETATM    5  S   UNL     1      47.967 -28.759   0.104  1.00  0.00    -0.063 SA
HETATM    6  C   UNL     1      47.331 -28.653   1.686  1.00  0.00     0.085 A 
HETATM    7  C   UNL     1      45.961 -28.856   1.684  1.00  0.00     0.060 A 
HETATM    8  N   UNL     1      46.311 -29.108  -1.916  1.00  0.00    -0.236 NA
HETATM    9  C   UNL     1      45.049 -29.284  -2.369  1.00  0.00     0.142 A 
HETATM   10  C   UNL     1      43.935 -29.320  -1.528  1.00  0.00     0.044 A 
ENDROOT
BRANCH   6  11
HETATM   11  C   UNL     1      48.192 -28.478   2.849  1.00  0.00     0.201 C 
HETATM   12  O   UNL     1      48.550 -27.367   3.246  1.00  0.00    -0.286 OA
BRANCH  11  13
HETATM   13  C   UNL     1      48.718 -29.648   3.606  1.00  0.00     0.018 A 
HETATM   14  C   UNL     1      50.065 -29.631   4.000  1.00  0.00     0.055 A 
HETATM   15  C   UNL     1      50.551 -30.735   4.666  1.00  0.00     0.106 A 
HETATM   16  C   UNL     1      49.760 -31.828   4.935  1.00  0.00     0.105 A 
HETATM   17  O   UNL     1      51.823 -30.891   5.121  1.00  0.00    -0.323 OA
HETATM   18  O   UNL     1      50.435 -32.806   5.594  1.00  0.00    -0.323 OA
HETATM   19  C   UNL     1      48.438 -31.883   4.548  1.00  0.00     0.040 A 
HETATM   20  C   UNL     1      51.745 -32.211   5.701  1.00  0.00     0.352 A 
HETATM   21  C   UNL     1      47.914 -30.781   3.864  1.00  0.00     0.018 A 
ENDBRANCH  11  13
ENDBRANCH   6  11
BRANCH   7  22
HETATM   22  N   UNL     1      45.238 -28.895   2.832  1.00  0.00    -0.397 N 
HETATM   23  H   UNL     1      44.289 -29.281   2.792  1.00  0.00     0.156 HD
HETATM   24  H   UNL     1      45.299 -28.146   3.512  1.00  0.00     0.156 HD
ENDBRANCH   7  22
BRANCH   9  25
HETATM   25  C   UNL     1      44.821 -29.452  -3.867  1.00  0.00     0.434 C 
HETATM   26  F   UNL     1      45.139 -28.359  -4.615  1.00  0.00    -0.165 F 
HETATM   27  F   UNL     1      45.547 -30.485  -4.389  1.00  0.00    -0.165 F 
HETATM   28  F   UNL     1      43.519 -29.740  -4.165  1.00  0.00    -0.165 F 
ENDBRANCH   9  25
TORSDOF 4
ENDMDL
MODEL 10
REMARK VINA RESULT:      -7.3      4.735      6.498
REMARK  4 active torsions:
REMARK  status: ('A' for Active; 'I' for Inactive)
REMARK    1  A    between atoms: C_6  and  C_7 
REMARK    2  A    between atoms: C_7  and  C_8 
REMARK    3  A    between atoms: C_18  and  N_19 
REMARK    4  A    between atoms: C_21  and  C_22 
ROOT
HETATM    1  C   UNL     1      40.078 -14.350   6.020  1.00  0.00     0.049 C 
HETATM    2  C   UNL     1      41.153 -15.002   5.195  1.00  0.00    -0.044 A 
HETATM    3  C   UNL     1      41.170 -15.016   3.772  1.00  0.00     0.033 A 
HETATM    4  C   UNL     1      42.233 -15.683   3.170  1.00  0.00     0.112 A 
HETATM    5  S   UNL     1      42.163 -15.670   1.471  1.00  0.00    -0.063 SA
HETATM    6  C   UNL     1      40.689 -14.805   1.465  1.00  0.00     0.085 A 
HETATM    7  C   UNL     1      40.304 -14.474   2.754  1.00  0.00     0.060 A 
HETATM    8  N   UNL     1      43.262 -16.302   3.780  1.00  0.00    -0.236 NA
HETATM    9  C   UNL     1      43.239 -16.256   5.132  1.00  0.00     0.142 A 
HETATM   10  C   UNL     1      42.224 -15.628   5.856  1.00  0.00     0.044 A 
ENDROOT
BRANCH   6  11
HETATM   11  C   UNL     1      40.037 -14.409   0.224  1.00  0.00     0.201 C 
HETATM   12  O   UNL     1      39.413 -15.206  -0.479  1.00  0.00    -0.286 OA
BRANCH  11  13
HETATM   13  C   UNL     1      40.120 -13.010  -0.282  1.00  0.00     0.018 A 
HETATM   14  C   UNL     1      41.087 -12.161   0.274  1.00  0.00     0.055 A 
HETATM   15  C   UNL     1      41.129 -10.858  -0.174  1.00  0.00     0.106 A 
HETATM   16  C   UNL     1      40.255 -10.388  -1.125  1.00  0.00     0.105 A 
HETATM   17  O   UNL     1      41.997  -9.900   0.250  1.00  0.00    -0.323 OA
HETATM   18  O   UNL     1      40.464  -9.078  -1.420  1.00  0.00    -0.323 OA
HETATM   19  C   UNL     1      39.281 -11.192  -1.680  1.00  0.00     0.040 A 
HETATM   20  C   UNL     1      41.564  -8.772  -0.538  1.00  0.00     0.352 A 
HETATM   21  C   UNL     1      39.207 -12.520  -1.243  1.00  0.00     0.018 A 
ENDBRANCH  11  13
ENDBRANCH   6  11
BRANCH   7  22
HETATM   22  N   UNL     1      39.204 -13.720   3.005  1.00  0.00    -0.397 N 
HETATM   23  H   UNL     1      39.255 -13.028   3.760  1.00  0.00     0.156 HD
HETATM   24  H   UNL     1      38.274 -14.115   2.935  1.00  0.00     0.156 HD
ENDBRANCH   7  22
BRANCH   9  25
HETATM   25  C   UNL     1      44.369 -16.920   5.911  1.00  0.00     0.434 C 
HETATM   26  F   UNL     1      45.281 -16.055   6.435  1.00  0.00    -0.165 F 
HETATM   27  F   UNL     1      43.909 -17.660   6.963  1.00  0.00    -0.165 F 
HETATM   28  F   UNL     1      45.086 -17.794   5.142  1.00  0.00    -0.165 F 
ENDBRANCH   9  25
TORSDOF 4
ENDMDL
