MODEL 1
REMARK VINA RESULT:      -8.3      0.000      0.000
REMARK  5 active torsions:
REMARK  status: ('A' for Active; 'I' for Inactive)
REMARK    1  A    between atoms: C_6  and  C_7 
REMARK    2  A    between atoms: C_7  and  C_8 
REMARK    3  A    between atoms: C_8  and  C_9 
REMARK    4  A    between atoms: C_9  and  N_10 
REMARK       I    between atoms: N_10  and  C_11 
REMARK    5  A    between atoms: C_11  and  C_12 
ROOT
HETATM    1  N   UNL     1      40.946 -13.544   3.595  1.00  0.00    -0.356 N 
HETATM    2  C   UNL     1      41.439 -13.216   2.349  1.00  0.00     0.272 C 
HETATM    3  O   UNL     1      42.398 -12.466   2.185  1.00  0.00    -0.266 OA
HETATM    4  H   UNL     1      40.188 -14.224   3.591  1.00  0.00     0.162 HD
ENDROOT
BRANCH   1   5
HETATM    5  C   UNL     1      41.530 -13.078   4.826  1.00  0.00     0.123 C 
BRANCH   5   6
HETATM    6  C   UNL     1      41.839 -14.229   5.779  1.00  0.00     0.027 C 
BRANCH   6   7
HETATM    7  C   UNL     1      43.282 -14.698   5.611  1.00  0.00     0.080 C 
BRANCH   7   8
HETATM    8  C   UNL     1      43.359 -15.979   4.857  1.00  0.00     0.105 A 
HETATM    9  N   UNL     1      42.929 -16.194   3.631  1.00  0.00    -0.233 NA
HETATM   10  C   UNL     1      43.190 -17.518   3.374  1.00  0.00     0.085 A 
HETATM   11  C   UNL     1      43.797 -18.126   4.467  1.00  0.00     0.062 A 
HETATM   12  C   UNL     1      42.933 -18.277   2.223  1.00  0.00     0.034 A 
HETATM   13  C   UNL     1      44.169 -19.472   4.487  1.00  0.00     0.032 A 
HETATM   14  N   UNL     1      43.900 -17.122   5.394  1.00  0.00    -0.343 N 
HETATM   15  C   UNL     1      43.901 -20.215   3.331  1.00  0.00     0.002 A 
HETATM   16  C   UNL     1      43.294 -19.630   2.215  1.00  0.00     0.002 A 
HETATM   17  H   UNL     1      44.300 -17.208   6.318  1.00  0.00     0.167 HD
ENDBRANCH   7   8
ENDBRANCH   6   7
ENDBRANCH   5   6
ENDBRANCH   1   5
BRANCH   2  18
HETATM   18  C   UNL     1      40.700 -13.870   1.249  1.00  0.00     0.152 A 
HETATM   19  N   UNL     1      40.316 -15.162   1.359  1.00  0.00    -0.169 NA
HETATM   20  N   UNL     1      39.695 -15.425   0.202  1.00  0.00    -0.281 N 
HETATM   21  H   UNL     1      39.323 -16.359   0.059  1.00  0.00     0.189 HD
HETATM   22  C   UNL     1      39.663 -14.370  -0.661  1.00  0.00     0.036 A 
HETATM   23  C   UNL     1      40.298 -13.328  -0.010  1.00  0.00     0.002 A 
HETATM   24  C   UNL     1      39.062 -14.484  -2.019  1.00  0.00     0.059 C 
HETATM   25  C   UNL     1      40.485 -11.954  -0.552  1.00  0.00     0.043 C 
HETATM   26  C   UNL     1      41.259 -11.914  -1.872  1.00  0.00     0.005 C 
HETATM   27  C   UNL     1      40.792 -12.861  -2.991  1.00  0.00     0.001 C 
HETATM   28  C   UNL     1      39.320 -13.279  -2.932  1.00  0.00     0.006 C 
ENDBRANCH   2  18
TORSDOF 5
ENDMDL
MODEL 2
REMARK VINA RESULT:      -8.1      4.557      8.410
REMARK  5 active torsions:
REMARK  status: ('A' for Active; 'I' for Inactive)
REMARK    1  A    between atoms: C_6  and  C_7 
REMARK    2  A    between atoms: C_7  and  C_8 
REMARK    3  A    between atoms: C_8  and  C_9 
REMARK    4  A    between atoms: C_9  and  N_10 
REMARK       I    between atoms: N_10  and  C_11 
REMARK    5  A    between atoms: C_11  and  C_12 
ROOT
HETATM    1  N   UNL     1      43.187 -14.751   5.463  1.00  0.00    -0.356 N 
HETATM    2  C   UNL     1      42.823 -16.065   5.669  1.00  0.00     0.272 C 
HETATM    3  O   UNL     1      42.602 -16.532   6.783  1.00  0.00    -0.266 OA
HETATM    4  H   UNL     1      43.278 -14.478   4.486  1.00  0.00     0.162 HD
ENDROOT
BRANCH   1   5
HETATM    5  C   UNL     1      43.303 -13.784   6.525  1.00  0.00     0.123 C 
BRANCH   5   6
HETATM    6  C   UNL     1      43.764 -12.425   6.008  1.00  0.00     0.027 C 
BRANCH   6   7
HETATM    7  C   UNL     1      44.952 -11.913   6.817  1.00  0.00     0.080 C 
BRANCH   7   8
HETATM    8  C   UNL     1      44.512 -11.079   7.970  1.00  0.00     0.105 A 
HETATM    9  N   UNL     1      45.229 -10.769   9.031  1.00  0.00    -0.233 NA
HETATM   10  C   UNL     1      44.403 -10.013   9.826  1.00  0.00     0.085 A 
HETATM   11  C   UNL     1      43.154  -9.852   9.237  1.00  0.00     0.062 A 
HETATM   12  C   UNL     1      44.651  -9.425  11.076  1.00  0.00     0.034 A 
HETATM   13  C   UNL     1      42.114  -9.133   9.828  1.00  0.00     0.032 A 
HETATM   14  N   UNL     1      43.253 -10.535   8.052  1.00  0.00    -0.343 N 
HETATM   15  C   UNL     1      42.378  -8.557  11.077  1.00  0.00     0.002 A 
HETATM   16  C   UNL     1      43.625  -8.698  11.692  1.00  0.00     0.002 A 
HETATM   17  H   UNL     1      42.523 -10.628   7.360  1.00  0.00     0.167 HD
ENDBRANCH   7   8
ENDBRANCH   6   7
ENDBRANCH   5   6
ENDBRANCH   1   5
BRANCH   2  18
HETATM   18  C   UNL     1      42.717 -16.834   4.412  1.00  0.00     0.152 A 
HETATM   19  N   UNL     1      41.818 -16.476   3.466  1.00  0.00    -0.169 NA
HETATM   20  N   UNL     1      41.984 -17.377   2.490  1.00  0.00    -0.281 N 
HETATM   21  H   UNL     1      41.396 -17.306   1.665  1.00  0.00     0.189 HD
HETATM   22  C   UNL     1      42.943 -18.310   2.755  1.00  0.00     0.036 A 
HETATM   23  C   UNL     1      43.456 -17.985   3.997  1.00  0.00     0.002 A 
HETATM   24  C   UNL     1      43.236 -19.425   1.812  1.00  0.00     0.059 C 
HETATM   25  C   UNL     1      44.552 -18.708   4.699  1.00  0.00     0.043 C 
HETATM   26  C   UNL     1      44.248 -20.187   4.950  1.00  0.00     0.005 C 
HETATM   27  C   UNL     1      43.752 -21.018   3.755  1.00  0.00     0.001 C 
HETATM   28  C   UNL     1      44.171 -20.504   2.374  1.00  0.00     0.006 C 
ENDBRANCH   2  18
TORSDOF 5
ENDMDL
MODEL 3
REMARK VINA RESULT:      -8.1      3.487      6.927
REMARK  5 active torsions:
REMARK  status: ('A' for Active; 'I' for Inactive)
REMARK    1  A    between atoms: C_6  and  C_7 
REMARK    2  A    between atoms: C_7  and  C_8 
REMARK    3  A    between atoms: C_8  and  C_9 
REMARK    4  A    between atoms: C_9  and  N_10 
REMARK       I    between atoms: N_10  and  C_11 
REMARK    5  A    between atoms: C_11  and  C_12 
ROOT
HETATM    1  N   UNL     1      42.453 -12.507   4.130  1.00  0.00    -0.356 N 
HETATM    2  C   UNL     1      43.392 -11.592   4.560  1.00  0.00     0.272 C 
HETATM    3  O   UNL     1      44.328 -11.214   3.861  1.00  0.00    -0.266 OA
HETATM    4  H   UNL     1      41.695 -12.685   4.785  1.00  0.00     0.162 HD
ENDROOT
BRANCH   1   5
HETATM    5  C   UNL     1      42.451 -13.077   2.807  1.00  0.00     0.123 C 
BRANCH   5   6
HETATM    6  C   UNL     1      43.434 -14.237   2.686  1.00  0.00     0.027 C 
BRANCH   6   7
HETATM    7  C   UNL     1      42.804 -15.404   1.931  1.00  0.00     0.080 C 
BRANCH   7   8
HETATM    8  C   UNL     1      43.107 -16.708   2.582  1.00  0.00     0.105 A 
HETATM    9  N   UNL     1      43.449 -16.895   3.840  1.00  0.00    -0.233 NA
HETATM   10  C   UNL     1      43.652 -18.247   3.971  1.00  0.00     0.085 A 
HETATM   11  C   UNL     1      43.426 -18.903   2.766  1.00  0.00     0.062 A 
HETATM   12  C   UNL     1      44.036 -18.993   5.095  1.00  0.00     0.034 A 
HETATM   13  C   UNL     1      43.564 -20.283   2.606  1.00  0.00     0.032 A 
HETATM   14  N   UNL     1      43.073 -17.901   1.900  1.00  0.00    -0.343 N 
HETATM   15  C   UNL     1      43.952 -21.011   3.738  1.00  0.00     0.002 A 
HETATM   16  C   UNL     1      44.184 -20.379   4.964  1.00  0.00     0.002 A 
HETATM   17  H   UNL     1      42.834 -18.017   0.925  1.00  0.00     0.167 HD
ENDBRANCH   7   8
ENDBRANCH   6   7
ENDBRANCH   5   6
ENDBRANCH   1   5
BRANCH   2  18
HETATM   18  C   UNL     1      43.138 -11.115   5.935  1.00  0.00     0.152 A 
HETATM   19  N   UNL     1      41.900 -10.710   6.300  1.00  0.00    -0.169 NA
HETATM   20  N   UNL     1      42.033 -10.341   7.580  1.00  0.00    -0.281 N 
HETATM   21  H   UNL     1      41.215  -9.989   8.066  1.00  0.00     0.189 HD
HETATM   22  C   UNL     1      43.299 -10.479   8.067  1.00  0.00     0.036 A 
HETATM   23  C   UNL     1      44.052 -10.995   7.028  1.00  0.00     0.002 A 
HETATM   24  C   UNL     1      43.656 -10.072   9.455  1.00  0.00     0.059 C 
HETATM   25  C   UNL     1      45.499 -11.340   7.093  1.00  0.00     0.043 C 
HETATM   26  C   UNL     1      46.395 -10.158   7.469  1.00  0.00     0.005 C 
HETATM   27  C   UNL     1      45.996  -9.336   8.706  1.00  0.00     0.001 C 
HETATM   28  C   UNL     1      45.161 -10.080   9.752  1.00  0.00     0.006 C 
ENDBRANCH   2  18
TORSDOF 5
ENDMDL
MODEL 4
REMARK VINA RESULT:      -8.0      5.623      8.829
REMARK  5 active torsions:
REMARK  status: ('A' for Active; 'I' for Inactive)
REMARK    1  A    between atoms: C_6  and  C_7 
REMARK    2  A    between atoms: C_7  and  C_8 
REMARK    3  A    between atoms: C_8  and  C_9 
REMARK    4  A    between atoms: C_9  and  N_10 
REMARK       I    between atoms: N_10  and  C_11 
REMARK    5  A    between atoms: C_11  and  C_12 
ROOT
HETATM    1  N   UNL     1      43.768 -11.641   7.899  1.00  0.00    -0.356 N 
HETATM    2  C   UNL     1      44.588 -10.714   8.507  1.00  0.00     0.272 C 
HETATM    3  O   UNL     1      45.584 -10.242   7.964  1.00  0.00    -0.266 OA
HETATM    4  H   UNL     1      42.943 -11.902   8.435  1.00  0.00     0.162 HD
ENDROOT
BRANCH   1   5
HETATM    5  C   UNL     1      43.968 -12.116   6.554  1.00  0.00     0.123 C 
BRANCH   5   6
HETATM    6  C   UNL     1      43.035 -13.275   6.216  1.00  0.00     0.027 C 
BRANCH   6   7
HETATM    7  C   UNL     1      43.607 -14.596   6.723  1.00  0.00     0.080 C 
BRANCH   7   8
HETATM    8  C   UNL     1      43.574 -15.649   5.670  1.00  0.00     0.105 A 
HETATM    9  N   UNL     1      42.908 -15.602   4.535  1.00  0.00    -0.233 NA
HETATM   10  C   UNL     1      43.159 -16.798   3.910  1.00  0.00     0.085 A 
HETATM   11  C   UNL     1      44.002 -17.594   4.678  1.00  0.00     0.062 A 
HETATM   12  C   UNL     1      42.697 -17.280   2.676  1.00  0.00     0.034 A 
HETATM   13  C   UNL     1      44.419 -18.868   4.288  1.00  0.00     0.032 A 
HETATM   14  N   UNL     1      44.257 -16.835   5.790  1.00  0.00    -0.343 N 
HETATM   15  C   UNL     1      43.945 -19.335   3.055  1.00  0.00     0.002 A 
HETATM   16  C   UNL     1      43.100 -18.556   2.260  1.00  0.00     0.002 A 
HETATM   17  H   UNL     1      44.842 -17.104   6.569  1.00  0.00     0.167 HD
ENDBRANCH   7   8
ENDBRANCH   6   7
ENDBRANCH   5   6
ENDBRANCH   1   5
BRANCH   2  18
HETATM   18  C   UNL     1      44.133 -10.348   9.864  1.00  0.00     0.152 A 
HETATM   19  N   UNL     1      44.012 -11.295  10.822  1.00  0.00    -0.169 NA
HETATM   20  N   UNL     1      43.575 -10.628  11.898  1.00  0.00    -0.281 N 
HETATM   21  H   UNL     1      43.404 -11.151  12.751  1.00  0.00     0.189 HD
HETATM   22  C   UNL     1      43.397  -9.293  11.686  1.00  0.00     0.036 A 
HETATM   23  C   UNL     1      43.763  -9.064  10.372  1.00  0.00     0.002 A 
HETATM   24  C   UNL     1      42.867  -8.392  12.748  1.00  0.00     0.059 C 
HETATM   25  C   UNL     1      43.760  -7.742   9.689  1.00  0.00     0.043 C 
HETATM   26  C   UNL     1      42.389  -7.061   9.674  1.00  0.00     0.005 C 
HETATM   27  C   UNL     1      41.636  -6.962  11.011  1.00  0.00     0.001 C 
HETATM   28  C   UNL     1      42.514  -6.979  12.266  1.00  0.00     0.006 C 
ENDBRANCH   2  18
TORSDOF 5
ENDMDL
MODEL 5
REMARK VINA RESULT:      -7.9      1.870      6.664
REMARK  5 active torsions:
REMARK  status: ('A' for Active; 'I' for Inactive)
REMARK    1  A    between atoms: C_6  and  C_7 
REMARK    2  A    between atoms: C_7  and  C_8 
REMARK    3  A    between atoms: C_8  and  C_9 
REMARK    4  A    between atoms: C_9  and  N_10 
REMARK       I    between atoms: N_10  and  C_11 
REMARK    5  A    between atoms: C_11  and  C_12 
ROOT
HETATM    1  N   UNL     1      40.964 -13.033   5.014  1.00  0.00    -0.356 N 
HETATM    2  C   UNL     1      40.798 -14.133   5.830  1.00  0.00     0.272 C 
HETATM    3  O   UNL     1      39.840 -14.266   6.587  1.00  0.00    -0.266 OA
HETATM    4  H   UNL     1      41.767 -13.078   4.391  1.00  0.00     0.162 HD
ENDROOT
BRANCH   1   5
HETATM    5  C   UNL     1      40.013 -11.954   4.935  1.00  0.00     0.123 C 
BRANCH   5   6
HETATM    6  C   UNL     1      39.290 -11.932   3.591  1.00  0.00     0.027 C 
BRANCH   6   7
HETATM    7  C   UNL     1      39.414 -13.280   2.888  1.00  0.00     0.080 C 
BRANCH   7   8
HETATM    8  C   UNL     1      39.812 -13.122   1.462  1.00  0.00     0.105 A 
HETATM    9  N   UNL     1      40.478 -12.112   0.942  1.00  0.00    -0.233 NA
HETATM   10  C   UNL     1      40.586 -12.391  -0.398  1.00  0.00     0.085 A 
HETATM   11  C   UNL     1      39.977 -13.603  -0.705  1.00  0.00     0.062 A 
HETATM   12  C   UNL     1      41.194 -11.652  -1.424  1.00  0.00     0.034 A 
HETATM   13  C   UNL     1      39.931 -14.134  -1.996  1.00  0.00     0.032 A 
HETATM   14  N   UNL     1      39.498 -14.051   0.499  1.00  0.00    -0.343 N 
HETATM   15  C   UNL     1      40.539 -13.380  -3.007  1.00  0.00     0.002 A 
HETATM   16  C   UNL     1      41.162 -12.160  -2.729  1.00  0.00     0.002 A 
HETATM   17  H   UNL     1      38.996 -14.914   0.652  1.00  0.00     0.167 HD
ENDBRANCH   7   8
ENDBRANCH   6   7
ENDBRANCH   5   6
ENDBRANCH   1   5
BRANCH   2  18
HETATM   18  C   UNL     1      41.882 -15.125   5.682  1.00  0.00     0.152 A 
HETATM   19  N   UNL     1      42.891 -15.174   6.582  1.00  0.00    -0.169 NA
HETATM   20  N   UNL     1      43.683 -16.160   6.142  1.00  0.00    -0.281 N 
HETATM   21  H   UNL     1      44.524 -16.372   6.671  1.00  0.00     0.189 HD
HETATM   22  C   UNL     1      43.245 -16.752   4.995  1.00  0.00     0.036 A 
HETATM   23  C   UNL     1      42.063 -16.114   4.666  1.00  0.00     0.002 A 
HETATM   24  C   UNL     1      44.019 -17.833   4.324  1.00  0.00     0.059 C 
HETATM   25  C   UNL     1      41.200 -16.437   3.496  1.00  0.00     0.043 C 
HETATM   26  C   UNL     1      41.918 -16.312   2.151  1.00  0.00     0.005 C 
HETATM   27  C   UNL     1      43.279 -17.015   2.009  1.00  0.00     0.001 C 
HETATM   28  C   UNL     1      43.500 -18.217   2.932  1.00  0.00     0.006 C 
ENDBRANCH   2  18
TORSDOF 5
ENDMDL
MODEL 6
REMARK VINA RESULT:      -7.9      5.273      8.386
REMARK  5 active torsions:
REMARK  status: ('A' for Active; 'I' for Inactive)
REMARK    1  A    between atoms: C_6  and  C_7 
REMARK    2  A    between atoms: C_7  and  C_8 
REMARK    3  A    between atoms: C_8  and  C_9 
REMARK    4  A    between atoms: C_9  and  N_10 
REMARK       I    between atoms: N_10  and  C_11 
REMARK    5  A    between atoms: C_11  and  C_12 
ROOT
HETATM    1  N   UNL     1      44.508 -12.481   6.435  1.00  0.00    -0.356 N 
HETATM    2  C   UNL     1      43.287 -13.026   6.096  1.00  0.00     0.272 C 
HETATM    3  O   UNL     1      42.237 -12.391   6.136  1.00  0.00    -0.266 OA
HETATM    4  H   UNL     1      45.307 -13.097   6.297  1.00  0.00     0.162 HD
ENDROOT
BRANCH   1   5
HETATM    5  C   UNL     1      44.682 -11.105   6.826  1.00  0.00     0.123 C 
BRANCH   5   6
HETATM    6  C   UNL     1      46.112 -10.818   7.273  1.00  0.00     0.027 C 
BRANCH   6   7
HETATM    7  C   UNL     1      46.178  -9.520   8.072  1.00  0.00     0.080 C 
BRANCH   7   8
HETATM    8  C   UNL     1      45.236  -9.536   9.226  1.00  0.00     0.105 A 
HETATM    9  N   UNL     1      45.040 -10.533  10.063  1.00  0.00    -0.233 NA
HETATM   10  C   UNL     1      44.071 -10.100  10.934  1.00  0.00     0.085 A 
HETATM   11  C   UNL     1      43.668  -8.805  10.626  1.00  0.00     0.062 A 
HETATM   12  C   UNL     1      43.480 -10.761  12.020  1.00  0.00     0.034 A 
HETATM   13  C   UNL     1      42.690  -8.115  11.343  1.00  0.00     0.032 A 
HETATM   14  N   UNL     1      44.431  -8.467   9.538  1.00  0.00    -0.343 N 
HETATM   15  C   UNL     1      42.107  -8.792  12.422  1.00  0.00     0.002 A 
HETATM   16  C   UNL     1      42.494 -10.092  12.758  1.00  0.00     0.002 A 
HETATM   17  H   UNL     1      44.403  -7.585   9.046  1.00  0.00     0.167 HD
ENDBRANCH   7   8
ENDBRANCH   6   7
ENDBRANCH   5   6
ENDBRANCH   1   5
BRANCH   2  18
HETATM   18  C   UNL     1      43.388 -14.438   5.673  1.00  0.00     0.152 A 
HETATM   19  N   UNL     1      43.975 -15.352   6.478  1.00  0.00    -0.169 NA
HETATM   20  N   UNL     1      43.903 -16.499   5.790  1.00  0.00    -0.281 N 
HETATM   21  H   UNL     1      44.297 -17.335   6.209  1.00  0.00     0.189 HD
HETATM   22  C   UNL     1      43.305 -16.376   4.571  1.00  0.00     0.036 A 
HETATM   23  C   UNL     1      42.941 -15.046   4.459  1.00  0.00     0.002 A 
HETATM   24  C   UNL     1      43.180 -17.529   3.638  1.00  0.00     0.059 C 
HETATM   25  C   UNL     1      42.230 -14.437   3.302  1.00  0.00     0.043 C 
HETATM   26  C   UNL     1      42.974 -14.590   1.973  1.00  0.00     0.005 C 
HETATM   27  C   UNL     1      43.471 -15.998   1.602  1.00  0.00     0.001 C 
HETATM   28  C   UNL     1      42.695 -17.159   2.230  1.00  0.00     0.006 C 
ENDBRANCH   2  18
TORSDOF 5
ENDMDL
MODEL 7
REMARK VINA RESULT:      -7.7      5.671      9.042
REMARK  5 active torsions:
REMARK  status: ('A' for Active; 'I' for Inactive)
REMARK    1  A    between atoms: C_6  and  C_7 
REMARK    2  A    between atoms: C_7  and  C_8 
REMARK    3  A    between atoms: C_8  and  C_9 
REMARK    4  A    between atoms: C_9  and  N_10 
REMARK       I    between atoms: N_10  and  C_11 
REMARK    5  A    between atoms: C_11  and  C_12 
ROOT
HETATM    1  N   UNL     1      43.581 -11.197   7.695  1.00  0.00    -0.356 N 
HETATM    2  C   UNL     1      44.496 -10.563   8.510  1.00  0.00     0.272 C 
HETATM    3  O   UNL     1      45.586 -11.050   8.798  1.00  0.00    -0.266 OA
HETATM    4  H   UNL     1      42.745 -10.655   7.485  1.00  0.00     0.162 HD
ENDROOT
BRANCH   1   5
HETATM    5  C   UNL     1      43.827 -12.469   7.066  1.00  0.00     0.123 C 
BRANCH   5   6
HETATM    6  C   UNL     1      42.689 -12.871   6.132  1.00  0.00     0.027 C 
BRANCH   6   7
HETATM    7  C   UNL     1      42.080 -14.202   6.563  1.00  0.00     0.080 C 
BRANCH   7   8
HETATM    8  C   UNL     1      42.480 -15.309   5.651  1.00  0.00     0.105 A 
HETATM    9  N   UNL     1      43.432 -16.194   5.863  1.00  0.00    -0.233 NA
HETATM   10  C   UNL     1      43.451 -16.992   4.745  1.00  0.00     0.085 A 
HETATM   11  C   UNL     1      42.485 -16.589   3.830  1.00  0.00     0.062 A 
HETATM   12  C   UNL     1      44.271 -18.087   4.437  1.00  0.00     0.034 A 
HETATM   13  C   UNL     1      42.283 -17.219   2.600  1.00  0.00     0.032 A 
HETATM   14  N   UNL     1      41.876 -15.520   4.435  1.00  0.00    -0.343 N 
HETATM   15  C   UNL     1      43.114 -18.307   2.308  1.00  0.00     0.002 A 
HETATM   16  C   UNL     1      44.092 -18.737   3.210  1.00  0.00     0.002 A 
HETATM   17  H   UNL     1      41.116 -14.976   4.050  1.00  0.00     0.167 HD
ENDBRANCH   7   8
ENDBRANCH   6   7
ENDBRANCH   5   6
ENDBRANCH   1   5
BRANCH   2  18
HETATM   18  C   UNL     1      44.028  -9.243   8.979  1.00  0.00     0.152 A 
HETATM   19  N   UNL     1      44.369  -8.119   8.309  1.00  0.00    -0.169 NA
HETATM   20  N   UNL     1      43.795  -7.129   9.003  1.00  0.00    -0.281 N 
HETATM   21  H   UNL     1      43.928  -6.176   8.679  1.00  0.00     0.189 HD
HETATM   22  C   UNL     1      43.102  -7.550  10.099  1.00  0.00     0.036 A 
HETATM   23  C   UNL     1      43.218  -8.929  10.114  1.00  0.00     0.002 A 
HETATM   24  C   UNL     1      42.439  -6.592  11.026  1.00  0.00     0.059 C 
HETATM   25  C   UNL     1      42.600  -9.839  11.117  1.00  0.00     0.043 C 
HETATM   26  C   UNL     1      43.033  -9.551  12.556  1.00  0.00     0.005 C 
HETATM   27  C   UNL     1      42.940  -8.095  13.043  1.00  0.00     0.001 C 
HETATM   28  C   UNL     1      41.909  -7.222  12.321  1.00  0.00     0.006 C 
ENDBRANCH   2  18
TORSDOF 5
ENDMDL
MODEL 8
REMARK VINA RESULT:      -7.6      3.584      7.120
REMARK  5 active torsions:
REMARK  status: ('A' for Active; 'I' for Inactive)
REMARK    1  A    between atoms: C_6  and  C_7 
REMARK    2  A    between atoms: C_7  and  C_8 
REMARK    3  A    between atoms: C_8  and  C_9 
REMARK    4  A    between atoms: C_9  and  N_10 
REMARK       I    between atoms: N_10  and  C_11 
REMARK    5  A    between atoms: C_11  and  C_12 
ROOT
HETATM    1  N   UNL     1      40.570 -13.262   4.744  1.00  0.00    -0.356 N 
HETATM    2  C   UNL     1      40.515 -14.227   5.727  1.00  0.00     0.272 C 
HETATM    3  O   UNL     1      39.693 -14.208   6.640  1.00  0.00    -0.266 OA
HETATM    4  H   UNL     1      41.257 -13.432   4.013  1.00  0.00     0.162 HD
ENDROOT
BRANCH   1   5
HETATM    5  C   UNL     1      39.645 -12.160   4.662  1.00  0.00     0.123 C 
BRANCH   5   6
HETATM    6  C   UNL     1      40.334 -10.821   4.910  1.00  0.00     0.027 C 
BRANCH   6   7
HETATM    7  C   UNL     1      40.418 -10.526   6.405  1.00  0.00     0.080 C 
BRANCH   7   8
HETATM    8  C   UNL     1      41.827 -10.347   6.852  1.00  0.00     0.105 A 
HETATM    9  N   UNL     1      42.287  -9.391   7.631  1.00  0.00    -0.233 NA
HETATM   10  C   UNL     1      43.636  -9.620   7.742  1.00  0.00     0.085 A 
HETATM   11  C   UNL     1      44.010 -10.746   7.017  1.00  0.00     0.062 A 
HETATM   12  C   UNL     1      44.614  -8.904   8.448  1.00  0.00     0.034 A 
HETATM   13  C   UNL     1      45.325 -11.211   6.947  1.00  0.00     0.032 A 
HETATM   14  N   UNL     1      42.838 -11.194   6.466  1.00  0.00    -0.343 N 
HETATM   15  C   UNL     1      46.288 -10.481   7.654  1.00  0.00     0.002 A 
HETATM   16  C   UNL     1      45.941  -9.347   8.394  1.00  0.00     0.002 A 
HETATM   17  H   UNL     1      42.735 -12.006   5.872  1.00  0.00     0.167 HD
ENDBRANCH   7   8
ENDBRANCH   6   7
ENDBRANCH   5   6
ENDBRANCH   1   5
BRANCH   2  18
HETATM   18  C   UNL     1      41.536 -15.281   5.553  1.00  0.00     0.152 A 
HETATM   19  N   UNL     1      42.411 -15.555   6.547  1.00  0.00    -0.169 NA
HETATM   20  N   UNL     1      43.181 -16.533   6.054  1.00  0.00    -0.281 N 
HETATM   21  H   UNL     1      43.928 -16.897   6.637  1.00  0.00     0.189 HD
HETATM   22  C   UNL     1      42.856 -16.905   4.783  1.00  0.00     0.036 A 
HETATM   23  C   UNL     1      41.776 -16.121   4.422  1.00  0.00     0.002 A 
HETATM   24  C   UNL     1      43.632 -17.941   4.045  1.00  0.00     0.059 C 
HETATM   25  C   UNL     1      41.054 -16.187   3.122  1.00  0.00     0.043 C 
HETATM   26  C   UNL     1      41.949 -15.929   1.908  1.00  0.00     0.005 C 
HETATM   27  C   UNL     1      43.262 -16.724   1.818  1.00  0.00     0.001 C 
HETATM   28  C   UNL     1      43.274 -18.065   2.558  1.00  0.00     0.006 C 
ENDBRANCH   2  18
TORSDOF 5
ENDMDL
MODEL 9
REMARK VINA RESULT:      -7.6      1.888      2.473
REMARK  5 active torsions:
REMARK  status: ('A' for Active; 'I' for Inactive)
REMARK    1  A    between atoms: C_6  and  C_7 
REMARK    2  A    between atoms: C_7  and  C_8 
REMARK    3  A    between atoms: C_8  and  C_9 
REMARK    4  A    between atoms: C_9  and  N_10 
REMARK       I    between atoms: N_10  and  C_11 
REMARK    5  A    between atoms: C_11  and  C_12 
ROOT
HETATM    1  N   UNL     1      40.650 -11.698   2.980  1.00  0.00    -0.356 N 
HETATM    2  C   UNL     1      41.697 -11.301   2.175  1.00  0.00     0.272 C 
HETATM    3  O   UNL     1      42.799 -10.985   2.617  1.00  0.00    -0.266 OA
HETATM    4  H   UNL     1      39.812 -11.993   2.481  1.00  0.00     0.162 HD
ENDROOT
BRANCH   1   5
HETATM    5  C   UNL     1      40.753 -11.826   4.411  1.00  0.00     0.123 C 
BRANCH   5   6
HETATM    6  C   UNL     1      41.097 -13.252   4.831  1.00  0.00     0.027 C 
BRANCH   6   7
HETATM    7  C   UNL     1      40.569 -14.258   3.812  1.00  0.00     0.080 C 
BRANCH   7   8
HETATM    8  C   UNL     1      41.477 -15.430   3.676  1.00  0.00     0.105 A 
HETATM    9  N   UNL     1      41.485 -16.305   2.692  1.00  0.00    -0.233 NA
HETATM   10  C   UNL     1      42.466 -17.211   3.011  1.00  0.00     0.085 A 
HETATM   11  C   UNL     1      43.075 -16.882   4.216  1.00  0.00     0.062 A 
HETATM   12  C   UNL     1      42.896 -18.351   2.316  1.00  0.00     0.034 A 
HETATM   13  C   UNL     1      44.104 -17.634   4.787  1.00  0.00     0.032 A 
HETATM   14  N   UNL     1      42.431 -15.739   4.615  1.00  0.00    -0.343 N 
HETATM   15  C   UNL     1      44.517 -18.770   4.081  1.00  0.00     0.002 A 
HETATM   16  C   UNL     1      43.926 -19.125   2.865  1.00  0.00     0.002 A 
HETATM   17  H   UNL     1      42.621 -15.216   5.458  1.00  0.00     0.167 HD
ENDBRANCH   7   8
ENDBRANCH   6   7
ENDBRANCH   5   6
ENDBRANCH   1   5
BRANCH   2  18
HETATM   18  C   UNL     1      41.351 -11.310   0.739  1.00  0.00     0.152 A 
HETATM   19  N   UNL     1      41.216 -10.147   0.061  1.00  0.00    -0.169 NA
HETATM   20  N   UNL     1      40.896 -10.522  -1.184  1.00  0.00    -0.281 N 
HETATM   21  H   UNL     1      40.736  -9.797  -1.877  1.00  0.00     0.189 HD
HETATM   22  C   UNL     1      40.808 -11.872  -1.350  1.00  0.00     0.036 A 
HETATM   23  C   UNL     1      41.111 -12.427  -0.120  1.00  0.00     0.002 A 
HETATM   24  C   UNL     1      40.411 -12.479  -2.651  1.00  0.00     0.059 C 
HETATM   25  C   UNL     1      41.168 -13.883   0.183  1.00  0.00     0.043 C 
HETATM   26  C   UNL     1      39.855 -14.620  -0.090  1.00  0.00     0.005 C 
HETATM   27  C   UNL     1      39.192 -14.395  -1.460  1.00  0.00     0.001 C 
HETATM   28  C   UNL     1      40.139 -13.988  -2.593  1.00  0.00     0.006 C 
ENDBRANCH   2  18
TORSDOF 5
ENDMDL
MODEL 10
REMARK VINA RESULT:      -7.5      1.649      7.141
REMARK  5 active torsions:
REMARK  status: ('A' for Active; 'I' for Inactive)
REMARK    1  A    between atoms: C_6  and  C_7 
REMARK    2  A    between atoms: C_7  and  C_8 
REMARK    3  A    between atoms: C_8  and  C_9 
REMARK    4  A    between atoms: C_9  and  N_10 
REMARK       I    between atoms: N_10  and  C_11 
REMARK    5  A    between atoms: C_11  and  C_12 
ROOT
HETATM    1  N   UNL     1      42.977 -13.328   4.215  1.00  0.00    -0.356 N 
HETATM    2  C   UNL     1      42.494 -14.060   5.281  1.00  0.00     0.272 C 
HETATM    3  O   UNL     1      41.580 -13.668   6.002  1.00  0.00    -0.266 OA
HETATM    4  H   UNL     1      43.692 -13.796   3.662  1.00  0.00     0.162 HD
ENDROOT
BRANCH   1   5
HETATM    5  C   UNL     1      42.433 -12.057   3.815  1.00  0.00     0.123 C 
BRANCH   5   6
HETATM    6  C   UNL     1      41.777 -12.127   2.439  1.00  0.00     0.027 C 
BRANCH   6   7
HETATM    7  C   UNL     1      40.568 -13.057   2.462  1.00  0.00     0.080 C 
BRANCH   7   8
HETATM    8  C   UNL     1      40.007 -13.264   1.099  1.00  0.00     0.105 A 
HETATM    9  N   UNL     1      40.428 -14.130   0.201  1.00  0.00    -0.233 NA
HETATM   10  C   UNL     1      39.630 -13.939  -0.900  1.00  0.00     0.085 A 
HETATM   11  C   UNL     1      38.696 -12.936  -0.669  1.00  0.00     0.062 A 
HETATM   12  C   UNL     1      39.645 -14.589  -2.144  1.00  0.00     0.034 A 
HETATM   13  C   UNL     1      37.759 -12.527  -1.620  1.00  0.00     0.032 A 
HETATM   14  N   UNL     1      38.953 -12.527   0.614  1.00  0.00    -0.343 N 
HETATM   15  C   UNL     1      37.791 -13.183  -2.857  1.00  0.00     0.002 A 
HETATM   16  C   UNL     1      38.716 -14.198  -3.117  1.00  0.00     0.002 A 
HETATM   17  H   UNL     1      38.457 -11.805   1.116  1.00  0.00     0.167 HD
ENDBRANCH   7   8
ENDBRANCH   6   7
ENDBRANCH   5   6
ENDBRANCH   1   5
BRANCH   2  18
HETATM   18  C   UNL     1      43.183 -15.356   5.445  1.00  0.00     0.152 A 
HETATM   19  N   UNL     1      44.102 -15.522   6.423  1.00  0.00    -0.169 NA
HETATM   20  N   UNL     1      44.523 -16.785   6.276  1.00  0.00    -0.281 N 
HETATM   21  H   UNL     1      45.234 -17.131   6.912  1.00  0.00     0.189 HD
HETATM   22  C   UNL     1      43.929 -17.449   5.244  1.00  0.00     0.036 A 
HETATM   23  C   UNL     1      43.036 -16.555   4.681  1.00  0.00     0.002 A 
HETATM   24  C   UNL     1      44.304 -18.846   4.890  1.00  0.00     0.059 C 
HETATM   25  C   UNL     1      42.133 -16.840   3.532  1.00  0.00     0.043 C 
HETATM   26  C   UNL     1      42.872 -17.267   2.262  1.00  0.00     0.005 C 
HETATM   27  C   UNL     1      43.918 -18.386   2.397  1.00  0.00     0.001 C 
HETATM   28  C   UNL     1      43.708 -19.349   3.569  1.00  0.00     0.006 C 
ENDBRANCH   2  18
TORSDOF 5
ENDMDL
