MODEL 1
REMARK VINA RESULT:      -8.3      0.000      0.000
REMARK  5 active torsions:
REMARK  status: ('A' for Active; 'I' for Inactive)
REMARK    1  A    between atoms: C_8  and  C_9 
REMARK    2  A    between atoms: N_10  and  N_11 
REMARK       I    between atoms: N_11  and  C_12 
REMARK    3  A    between atoms: C_12  and  C_13 
REMARK    4  A    between atoms: C_13  and  N_14 
REMARK    5  A    between atoms: N_14  and  C_15 
ROOT
HETATM    1  N   UNL     1      41.683 -14.807   1.191  1.00  0.00    -0.246 N 
HETATM    2  C   UNL     1      41.260 -13.505   1.460  1.00  0.00     0.250 C 
HETATM    3  O   UNL     1      41.020 -13.046   2.575  1.00  0.00    -0.270 OA
HETATM    4  H   UNL     1      42.085 -15.004   0.280  1.00  0.00     0.192 HD
ENDROOT
BRANCH   1   5
HETATM    5  N   UNL     1      41.977 -15.764   2.134  1.00  0.00    -0.184 NA
HETATM    6  C   UNL     1      43.176 -15.797   2.625  1.00  0.00     0.152 C 
BRANCH   6   7
HETATM    7  C   UNL     1      43.527 -16.814   3.598  1.00  0.00     0.011 A 
HETATM    8  C   UNL     1      43.589 -18.228   3.377  1.00  0.00     0.004 A 
HETATM    9  C   UNL     1      43.353 -19.062   2.262  1.00  0.00     0.014 A 
HETATM   10  C   UNL     1      43.975 -18.824   4.579  1.00  0.00     0.043 A 
HETATM   11  C   UNL     1      43.515 -20.446   2.387  1.00  0.00     0.001 A 
HETATM   12  C   UNL     1      43.904 -21.007   3.600  1.00  0.00     0.002 A 
HETATM   13  C   UNL     1      44.141 -20.207   4.721  1.00  0.00     0.030 A 
HETATM   14  N   UNL     1      44.134 -17.813   5.498  1.00  0.00    -0.364 N 
HETATM   15  H   UNL     1      44.406 -17.952   6.461  1.00  0.00     0.165 HD
HETATM   16  C   UNL     1      43.869 -16.601   4.920  1.00  0.00     0.102 A 
ENDBRANCH   6   7
ENDBRANCH   1   5
BRANCH   2  17
HETATM   17  C   UNL     1      41.053 -12.679   0.187  1.00  0.00     0.197 C 
BRANCH  17  18
HETATM   18  N   UNL     1      39.631 -12.403  -0.059  1.00  0.00    -0.283 NA
HETATM   19  H   UNL     1      39.386 -11.414  -0.059  1.00  0.00     0.128 HD
BRANCH  18  20
HETATM   20  C   UNL     1      39.047 -13.055  -1.165  1.00  0.00     0.030 A 
HETATM   21  C   UNL     1      37.868 -12.557  -1.759  1.00  0.00     0.055 A 
HETATM   22 CL   UNL     1      37.162 -11.078  -1.197  1.00  0.00    -0.082 Cl
HETATM   23  C   UNL     1      37.259 -13.214  -2.831  1.00  0.00     0.026 A 
HETATM   24  C   UNL     1      37.805 -14.398  -3.321  1.00  0.00     0.002 A 
HETATM   25  C   UNL     1      38.954 -14.923  -2.734  1.00  0.00     0.002 A 
HETATM   26  C   UNL     1      39.563 -14.261  -1.662  1.00  0.00     0.025 A 
ENDBRANCH  18  20
ENDBRANCH  17  18
ENDBRANCH   2  17
TORSDOF 5
ENDMDL
MODEL 2
REMARK VINA RESULT:      -8.1      1.867      2.198
REMARK  5 active torsions:
REMARK  status: ('A' for Active; 'I' for Inactive)
REMARK    1  A    between atoms: C_8  and  C_9 
REMARK    2  A    between atoms: N_10  and  N_11 
REMARK       I    between atoms: N_11  and  C_12 
REMARK    3  A    between atoms: C_12  and  C_13 
REMARK    4  A    between atoms: C_13  and  N_14 
REMARK    5  A    between atoms: N_14  and  C_15 
ROOT
HETATM    1  N   UNL     1      41.873 -13.585   2.812  1.00  0.00    -0.246 N 
HETATM    2  C   UNL     1      42.529 -12.370   2.619  1.00  0.00     0.250 C 
HETATM    3  O   UNL     1      43.561 -12.016   3.186  1.00  0.00    -0.270 OA
HETATM    4  H   UNL     1      41.184 -13.875   2.124  1.00  0.00     0.192 HD
ENDROOT
BRANCH   1   5
HETATM    5  N   UNL     1      42.315 -14.618   3.607  1.00  0.00    -0.184 NA
HETATM    6  C   UNL     1      42.958 -15.594   3.046  1.00  0.00     0.152 C 
BRANCH   6   7
HETATM    7  C   UNL     1      43.411 -16.713   3.851  1.00  0.00     0.011 A 
HETATM    8  C   UNL     1      43.471 -18.087   3.452  1.00  0.00     0.004 A 
HETATM    9  C   UNL     1      43.147 -18.784   2.268  1.00  0.00     0.014 A 
HETATM   10  C   UNL     1      43.974 -18.815   4.532  1.00  0.00     0.043 A 
HETATM   11  C   UNL     1      43.338 -20.169   2.207  1.00  0.00     0.001 A 
HETATM   12  C   UNL     1      43.845 -20.864   3.301  1.00  0.00     0.002 A 
HETATM   13  C   UNL     1      44.172 -20.200   4.487  1.00  0.00     0.030 A 
HETATM   14  N   UNL     1      44.202 -17.920   5.552  1.00  0.00    -0.364 N 
HETATM   15  H   UNL     1      44.562 -18.168   6.462  1.00  0.00     0.165 HD
HETATM   16  C   UNL     1      43.868 -16.654   5.154  1.00  0.00     0.102 A 
ENDBRANCH   6   7
ENDBRANCH   1   5
BRANCH   2  17
HETATM   17  C   UNL     1      41.790 -11.450   1.644  1.00  0.00     0.197 C 
BRANCH  17  18
HETATM   18  N   UNL     1      40.609 -12.104   1.066  1.00  0.00    -0.283 NA
HETATM   19  H   UNL     1      39.718 -11.700   1.353  1.00  0.00     0.128 HD
BRANCH  18  20
HETATM   20  C   UNL     1      40.625 -12.313  -0.329  1.00  0.00     0.030 A 
HETATM   21  C   UNL     1      40.324 -13.579  -0.876  1.00  0.00     0.055 A 
HETATM   22 CL   UNL     1      39.836 -14.883   0.155  1.00  0.00    -0.082 Cl
HETATM   23  C   UNL     1      40.373 -13.808  -2.253  1.00  0.00     0.026 A 
HETATM   24  C   UNL     1      40.746 -12.780  -3.115  1.00  0.00     0.002 A 
HETATM   25  C   UNL     1      41.073 -11.529  -2.597  1.00  0.00     0.002 A 
HETATM   26  C   UNL     1      41.020 -11.302  -1.218  1.00  0.00     0.025 A 
ENDBRANCH  18  20
ENDBRANCH  17  18
ENDBRANCH   2  17
TORSDOF 5
ENDMDL
MODEL 3
REMARK VINA RESULT:      -7.9      6.112      8.720
REMARK  5 active torsions:
REMARK  status: ('A' for Active; 'I' for Inactive)
REMARK    1  A    between atoms: C_8  and  C_9 
REMARK    2  A    between atoms: N_10  and  N_11 
REMARK       I    between atoms: N_11  and  C_12 
REMARK    3  A    between atoms: C_12  and  C_13 
REMARK    4  A    between atoms: C_13  and  N_14 
REMARK    5  A    between atoms: N_14  and  C_15 
ROOT
HETATM    1  N   UNL     1      43.851 -12.630   6.570  1.00  0.00    -0.246 N 
HETATM    2  C   UNL     1      44.806 -11.614   6.528  1.00  0.00     0.250 C 
HETATM    3  O   UNL     1      45.425 -11.254   5.528  1.00  0.00    -0.270 OA
HETATM    4  H   UNL     1      43.233 -12.676   7.375  1.00  0.00     0.192 HD
ENDROOT
BRANCH   1   5
HETATM    5  N   UNL     1      43.387 -13.338   5.486  1.00  0.00    -0.184 NA
HETATM    6  C   UNL     1      43.252 -14.623   5.602  1.00  0.00     0.152 C 
BRANCH   6   7
HETATM    7  C   UNL     1      42.795 -15.403   4.467  1.00  0.00     0.011 A 
HETATM    8  C   UNL     1      43.256 -16.702   4.078  1.00  0.00     0.004 A 
HETATM    9  C   UNL     1      44.218 -17.600   4.590  1.00  0.00     0.014 A 
HETATM   10  C   UNL     1      42.540 -17.077   2.940  1.00  0.00     0.043 A 
HETATM   11  C   UNL     1      44.423 -18.829   3.954  1.00  0.00     0.001 A 
HETATM   12  C   UNL     1      43.690 -19.173   2.822  1.00  0.00     0.002 A 
HETATM   13  C   UNL     1      42.734 -18.303   2.292  1.00  0.00     0.030 A 
HETATM   14  N   UNL     1      41.683 -16.043   2.643  1.00  0.00    -0.364 N 
HETATM   15  H   UNL     1      41.043 -16.036   1.861  1.00  0.00     0.165 HD
HETATM   16  C   UNL     1      41.826 -15.032   3.554  1.00  0.00     0.102 A 
ENDBRANCH   6   7
ENDBRANCH   1   5
BRANCH   2  17
HETATM   17  C   UNL     1      45.075 -11.001   7.905  1.00  0.00     0.197 C 
BRANCH  17  18
HETATM   18  N   UNL     1      43.983 -11.277   8.848  1.00  0.00    -0.283 NA
HETATM   19  H   UNL     1      44.109 -12.120   9.407  1.00  0.00     0.128 HD
BRANCH  18  20
HETATM   20  C   UNL     1      43.570 -10.203   9.664  1.00  0.00     0.030 A 
HETATM   21  C   UNL     1      42.540  -9.332   9.249  1.00  0.00     0.055 A 
HETATM   22 CL   UNL     1      41.697  -9.619   7.764  1.00  0.00    -0.082 Cl
HETATM   23  C   UNL     1      42.148  -8.243  10.032  1.00  0.00     0.026 A 
HETATM   24  C   UNL     1      42.791  -7.989  11.240  1.00  0.00     0.002 A 
HETATM   25  C   UNL     1      43.829  -8.820  11.658  1.00  0.00     0.002 A 
HETATM   26  C   UNL     1      44.217  -9.911  10.873  1.00  0.00     0.025 A 
ENDBRANCH  18  20
ENDBRANCH  17  18
ENDBRANCH   2  17
TORSDOF 5
ENDMDL
MODEL 4
REMARK VINA RESULT:      -7.8      7.006      9.459
REMARK  5 active torsions:
REMARK  status: ('A' for Active; 'I' for Inactive)
REMARK    1  A    between atoms: C_8  and  C_9 
REMARK    2  A    between atoms: N_10  and  N_11 
REMARK       I    between atoms: N_11  and  C_12 
REMARK    3  A    between atoms: C_12  and  C_13 
REMARK    4  A    between atoms: C_13  and  N_14 
REMARK    5  A    between atoms: N_14  and  C_15 
ROOT
HETATM    1  N   UNL     1      43.640 -12.583   7.384  1.00  0.00    -0.246 N 
HETATM    2  C   UNL     1      44.466 -11.463   7.293  1.00  0.00     0.250 C 
HETATM    3  O   UNL     1      45.585 -11.438   6.783  1.00  0.00    -0.270 OA
HETATM    4  H   UNL     1      42.656 -12.439   7.595  1.00  0.00     0.192 HD
ENDROOT
BRANCH   1   5
HETATM    5  N   UNL     1      43.906 -13.821   6.848  1.00  0.00    -0.184 NA
HETATM    6  C   UNL     1      42.906 -14.594   6.558  1.00  0.00     0.152 C 
BRANCH   6   7
HETATM    7  C   UNL     1      43.154 -15.918   6.020  1.00  0.00     0.011 A 
HETATM    8  C   UNL     1      43.190 -16.289   4.637  1.00  0.00     0.004 A 
HETATM    9  C   UNL     1      43.013 -15.587   3.425  1.00  0.00     0.014 A 
HETATM   10  C   UNL     1      43.468 -17.656   4.577  1.00  0.00     0.043 A 
HETATM   11  C   UNL     1      43.124 -16.271   2.208  1.00  0.00     0.001 A 
HETATM   12  C   UNL     1      43.406 -17.634   2.184  1.00  0.00     0.002 A 
HETATM   13  C   UNL     1      43.583 -18.353   3.368  1.00  0.00     0.030 A 
HETATM   14  N   UNL     1      43.588 -18.101   5.872  1.00  0.00    -0.364 N 
HETATM   15  H   UNL     1      43.784 -19.057   6.134  1.00  0.00     0.165 HD
HETATM   16  C   UNL     1      43.402 -17.067   6.749  1.00  0.00     0.102 A 
ENDBRANCH   6   7
ENDBRANCH   1   5
BRANCH   2  17
HETATM   17  C   UNL     1      43.862 -10.228   7.967  1.00  0.00     0.197 C 
BRANCH  17  18
HETATM   18  N   UNL     1      43.283 -10.550   9.278  1.00  0.00    -0.283 NA
HETATM   19  H   UNL     1      43.698 -11.361   9.736  1.00  0.00     0.128 HD
BRANCH  18  20
HETATM   20  C   UNL     1      43.157  -9.482  10.190  1.00  0.00     0.030 A 
HETATM   21  C   UNL     1      43.249  -9.701  11.581  1.00  0.00     0.055 A 
HETATM   22 CL   UNL     1      43.611 -11.279  12.195  1.00  0.00    -0.082 Cl
HETATM   23  C   UNL     1      43.089  -8.656  12.495  1.00  0.00     0.026 A 
HETATM   24  C   UNL     1      42.813  -7.370  12.039  1.00  0.00     0.002 A 
HETATM   25  C   UNL     1      42.691  -7.134  10.671  1.00  0.00     0.002 A 
HETATM   26  C   UNL     1      42.855  -8.181   9.758  1.00  0.00     0.025 A 
ENDBRANCH  18  20
ENDBRANCH  17  18
ENDBRANCH   2  17
TORSDOF 5
ENDMDL
MODEL 5
REMARK VINA RESULT:      -7.8      6.607      9.214
REMARK  5 active torsions:
REMARK  status: ('A' for Active; 'I' for Inactive)
REMARK    1  A    between atoms: C_8  and  C_9 
REMARK    2  A    between atoms: N_10  and  N_11 
REMARK       I    between atoms: N_11  and  C_12 
REMARK    3  A    between atoms: C_12  and  C_13 
REMARK    4  A    between atoms: C_13  and  N_14 
REMARK    5  A    between atoms: N_14  and  C_15 
ROOT
HETATM    1  N   UNL     1      43.633 -12.547   7.277  1.00  0.00    -0.246 N 
HETATM    2  C   UNL     1      44.446 -11.434   7.061  1.00  0.00     0.250 C 
HETATM    3  O   UNL     1      45.573 -11.456   6.571  1.00  0.00    -0.270 OA
HETATM    4  H   UNL     1      42.644 -12.393   7.451  1.00  0.00     0.192 HD
ENDROOT
BRANCH   1   5
HETATM    5  N   UNL     1      43.926 -13.838   6.905  1.00  0.00    -0.184 NA
HETATM    6  C   UNL     1      43.027 -14.512   6.259  1.00  0.00     0.152 C 
BRANCH   6   7
HETATM    7  C   UNL     1      43.293 -15.887   5.880  1.00  0.00     0.011 A 
HETATM    8  C   UNL     1      43.311 -16.422   4.551  1.00  0.00     0.004 A 
HETATM    9  C   UNL     1      43.096 -15.876   3.267  1.00  0.00     0.014 A 
HETATM   10  C   UNL     1      43.618 -17.780   4.651  1.00  0.00     0.043 A 
HETATM   11  C   UNL     1      43.199 -16.700   2.141  1.00  0.00     0.001 A 
HETATM   12  C   UNL     1      43.510 -18.050   2.275  1.00  0.00     0.002 A 
HETATM   13  C   UNL     1      43.724 -18.617   3.534  1.00  0.00     0.030 A 
HETATM   14  N   UNL     1      43.772 -18.063   5.988  1.00  0.00    -0.364 N 
HETATM   15  H   UNL     1      43.993 -18.976   6.359  1.00  0.00     0.165 HD
HETATM   16  C   UNL     1      43.580 -16.933   6.737  1.00  0.00     0.102 A 
ENDBRANCH   6   7
ENDBRANCH   1   5
BRANCH   2  17
HETATM   17  C   UNL     1      43.811 -10.135   7.563  1.00  0.00     0.197 C 
BRANCH  17  18
HETATM   18  N   UNL     1      44.601  -9.523   8.640  1.00  0.00    -0.283 NA
HETATM   19  H   UNL     1      45.035  -8.633   8.394  1.00  0.00     0.128 HD
BRANCH  18  20
HETATM   20  C   UNL     1      43.980  -9.434   9.903  1.00  0.00     0.030 A 
HETATM   21  C   UNL     1      43.496  -8.200  10.388  1.00  0.00     0.055 A 
HETATM   22 CL   UNL     1      43.574  -6.780   9.399  1.00  0.00    -0.082 Cl
HETATM   23  C   UNL     1      42.913  -8.093  11.653  1.00  0.00     0.026 A 
HETATM   24  C   UNL     1      42.818  -9.215  12.471  1.00  0.00     0.002 A 
HETATM   25  C   UNL     1      43.312 -10.439  12.025  1.00  0.00     0.002 A 
HETATM   26  C   UNL     1      43.893 -10.543  10.757  1.00  0.00     0.025 A 
ENDBRANCH  18  20
ENDBRANCH  17  18
ENDBRANCH   2  17
TORSDOF 5
ENDMDL
MODEL 6
REMARK VINA RESULT:      -7.7      5.491      8.171
REMARK  5 active torsions:
REMARK  status: ('A' for Active; 'I' for Inactive)
REMARK    1  A    between atoms: C_8  and  C_9 
REMARK    2  A    between atoms: N_10  and  N_11 
REMARK       I    between atoms: N_11  and  C_12 
REMARK    3  A    between atoms: C_12  and  C_13 
REMARK    4  A    between atoms: C_13  and  N_14 
REMARK    5  A    between atoms: N_14  and  C_15 
ROOT
HETATM    1  N   UNL     1      41.751 -12.864   4.796  1.00  0.00    -0.246 N 
HETATM    2  C   UNL     1      41.723 -13.395   3.507  1.00  0.00     0.250 C 
HETATM    3  O   UNL     1      42.528 -13.144   2.611  1.00  0.00    -0.270 OA
HETATM    4  H   UNL     1      41.198 -13.321   5.516  1.00  0.00     0.192 HD
ENDROOT
BRANCH   1   5
HETATM    5  N   UNL     1      42.727 -12.038   5.302  1.00  0.00    -0.184 NA
HETATM    6  C   UNL     1      43.540 -12.518   6.191  1.00  0.00     0.152 C 
BRANCH   6   7
HETATM    7  C   UNL     1      44.561 -11.664   6.767  1.00  0.00     0.011 A 
HETATM    8  C   UNL     1      44.485 -10.953   8.008  1.00  0.00     0.004 A 
HETATM    9  C   UNL     1      43.501 -10.828   9.012  1.00  0.00     0.014 A 
HETATM   10  C   UNL     1      45.690 -10.267   8.172  1.00  0.00     0.043 A 
HETATM   11  C   UNL     1      43.757 -10.034  10.136  1.00  0.00     0.001 A 
HETATM   12  C   UNL     1      44.971  -9.366  10.271  1.00  0.00     0.002 A 
HETATM   13  C   UNL     1      45.961  -9.469   9.290  1.00  0.00     0.030 A 
HETATM   14  N   UNL     1      46.466 -10.543   7.071  1.00  0.00    -0.364 N 
HETATM   15  H   UNL     1      47.394 -10.174   6.917  1.00  0.00     0.165 HD
HETATM   16  C   UNL     1      45.799 -11.382   6.219  1.00  0.00     0.102 A 
ENDBRANCH   6   7
ENDBRANCH   1   5
BRANCH   2  17
HETATM   17  C   UNL     1      40.517 -14.308   3.271  1.00  0.00     0.197 C 
BRANCH  17  18
HETATM   18  N   UNL     1      40.572 -15.512   4.111  1.00  0.00    -0.283 NA
HETATM   19  H   UNL     1      39.686 -16.011   4.195  1.00  0.00     0.128 HD
BRANCH  18  20
HETATM   20  C   UNL     1      41.621 -16.417   3.844  1.00  0.00     0.030 A 
HETATM   21  C   UNL     1      42.544 -16.773   4.851  1.00  0.00     0.055 A 
HETATM   22 CL   UNL     1      42.353 -16.174   6.464  1.00  0.00    -0.082 Cl
HETATM   23  C   UNL     1      43.609 -17.639   4.589  1.00  0.00     0.026 A 
HETATM   24  C   UNL     1      43.787 -18.154   3.308  1.00  0.00     0.002 A 
HETATM   25  C   UNL     1      42.904 -17.797   2.292  1.00  0.00     0.002 A 
HETATM   26  C   UNL     1      41.837 -16.932   2.558  1.00  0.00     0.025 A 
ENDBRANCH  18  20
ENDBRANCH  17  18
ENDBRANCH   2  17
TORSDOF 5
ENDMDL
MODEL 7
REMARK VINA RESULT:      -7.6      5.949      9.473
REMARK  5 active torsions:
REMARK  status: ('A' for Active; 'I' for Inactive)
REMARK    1  A    between atoms: C_8  and  C_9 
REMARK    2  A    between atoms: N_10  and  N_11 
REMARK       I    between atoms: N_11  and  C_12 
REMARK    3  A    between atoms: C_12  and  C_13 
REMARK    4  A    between atoms: C_13  and  N_14 
REMARK    5  A    between atoms: N_14  and  C_15 
ROOT
HETATM    1  N   UNL     1      43.945 -14.190   6.561  1.00  0.00    -0.246 N 
HETATM    2  C   UNL     1      43.613 -15.494   6.927  1.00  0.00     0.250 C 
HETATM    3  O   UNL     1      42.853 -15.810   7.840  1.00  0.00    -0.270 OA
HETATM    4  H   UNL     1      44.375 -14.040   5.653  1.00  0.00     0.192 HD
ENDROOT
BRANCH   1   5
HETATM    5  N   UNL     1      43.415 -13.045   7.108  1.00  0.00    -0.184 NA
HETATM    6  C   UNL     1      43.743 -11.904   6.586  1.00  0.00     0.152 C 
BRANCH   6   7
HETATM    7  C   UNL     1      43.226 -10.676   7.159  1.00  0.00     0.011 A 
HETATM    8  C   UNL     1      43.570 -10.111   8.431  1.00  0.00     0.004 A 
HETATM    9  C   UNL     1      44.433 -10.497   9.478  1.00  0.00     0.014 A 
HETATM   10  C   UNL     1      42.845  -8.926   8.572  1.00  0.00     0.043 A 
HETATM   11  C   UNL     1      44.544  -9.690  10.616  1.00  0.00     0.001 A 
HETATM   12  C   UNL     1      43.809  -8.512  10.724  1.00  0.00     0.002 A 
HETATM   13  C   UNL     1      42.945  -8.108   9.703  1.00  0.00     0.030 A 
HETATM   14  N   UNL     1      42.084  -8.780   7.436  1.00  0.00    -0.364 N 
HETATM   15  H   UNL     1      41.453  -8.009   7.264  1.00  0.00     0.165 HD
HETATM   16  C   UNL     1      42.305  -9.824   6.579  1.00  0.00     0.102 A 
ENDBRANCH   6   7
ENDBRANCH   1   5
BRANCH   2  17
HETATM   17  C   UNL     1      44.356 -16.546   6.098  1.00  0.00     0.197 C 
BRANCH  17  18
HETATM   18  N   UNL     1      43.698 -16.788   4.808  1.00  0.00    -0.283 NA
HETATM   19  H   UNL     1      43.932 -16.114   4.079  1.00  0.00     0.128 HD
BRANCH  18  20
HETATM   20  C   UNL     1      43.771 -18.103   4.301  1.00  0.00     0.030 A 
HETATM   21  C   UNL     1      43.500 -18.372   2.943  1.00  0.00     0.055 A 
HETATM   22 CL   UNL     1      43.160 -17.077   1.845  1.00  0.00    -0.082 Cl
HETATM   23  C   UNL     1      43.533 -19.675   2.438  1.00  0.00     0.026 A 
HETATM   24  C   UNL     1      43.818 -20.741   3.286  1.00  0.00     0.002 A 
HETATM   25  C   UNL     1      44.063 -20.503   4.637  1.00  0.00     0.002 A 
HETATM   26  C   UNL     1      44.033 -19.197   5.138  1.00  0.00     0.025 A 
ENDBRANCH  18  20
ENDBRANCH  17  18
ENDBRANCH   2  17
TORSDOF 5
ENDMDL
MODEL 8
REMARK VINA RESULT:      -7.4      2.987      9.277
REMARK  5 active torsions:
REMARK  status: ('A' for Active; 'I' for Inactive)
REMARK    1  A    between atoms: C_8  and  C_9 
REMARK    2  A    between atoms: N_10  and  N_11 
REMARK       I    between atoms: N_11  and  C_12 
REMARK    3  A    between atoms: C_12  and  C_13 
REMARK    4  A    between atoms: C_13  and  N_14 
REMARK    5  A    between atoms: N_14  and  C_15 
ROOT
HETATM    1  N   UNL     1      41.514 -14.326   0.508  1.00  0.00    -0.246 N 
HETATM    2  C   UNL     1      41.555 -15.434   1.354  1.00  0.00     0.250 C 
HETATM    3  O   UNL     1      40.576 -16.031   1.800  1.00  0.00    -0.270 OA
HETATM    4  H   UNL     1      42.362 -14.071   0.008  1.00  0.00     0.192 HD
ENDROOT
BRANCH   1   5
HETATM    5  N   UNL     1      40.377 -13.771  -0.031  1.00  0.00    -0.184 NA
HETATM    6  C   UNL     1      40.103 -14.013  -1.275  1.00  0.00     0.152 C 
BRANCH   6   7
HETATM    7  C   UNL     1      38.928 -13.417  -1.882  1.00  0.00     0.011 A 
HETATM    8  C   UNL     1      38.413 -12.102  -1.643  1.00  0.00     0.004 A 
HETATM    9  C   UNL     1      38.808 -11.024  -0.820  1.00  0.00     0.014 A 
HETATM   10  C   UNL     1      37.279 -11.945  -2.441  1.00  0.00     0.043 A 
HETATM   11  C   UNL     1      38.064  -9.839  -0.830  1.00  0.00     0.001 A 
HETATM   12  C   UNL     1      36.939  -9.714  -1.640  1.00  0.00     0.002 A 
HETATM   13  C   UNL     1      36.524 -10.766  -2.462  1.00  0.00     0.030 A 
HETATM   14  N   UNL     1      37.105 -13.121  -3.132  1.00  0.00    -0.364 N 
HETATM   15  H   UNL     1      36.354 -13.296  -3.785  1.00  0.00     0.165 HD
HETATM   16  C   UNL     1      38.090 -14.013  -2.805  1.00  0.00     0.102 A 
ENDBRANCH   6   7
ENDBRANCH   1   5
BRANCH   2  17
HETATM   17  C   UNL     1      42.982 -15.823   1.748  1.00  0.00     0.197 C 
BRANCH  17  18
HETATM   18  N   UNL     1      43.044 -16.361   3.113  1.00  0.00    -0.283 NA
HETATM   19  H   UNL     1      42.261 -16.096   3.709  1.00  0.00     0.128 HD
BRANCH  18  20
HETATM   20  C   UNL     1      43.308 -17.741   3.234  1.00  0.00     0.030 A 
HETATM   21  C   UNL     1      43.936 -18.261   4.385  1.00  0.00     0.055 A 
HETATM   22 CL   UNL     1      44.316 -17.223   5.718  1.00  0.00    -0.082 Cl
HETATM   23  C   UNL     1      44.236 -19.622   4.500  1.00  0.00     0.026 A 
HETATM   24  C   UNL     1      43.931 -20.491   3.456  1.00  0.00     0.002 A 
HETATM   25  C   UNL     1      43.335 -19.996   2.298  1.00  0.00     0.002 A 
HETATM   26  C   UNL     1      43.033 -18.635   2.188  1.00  0.00     0.025 A 
ENDBRANCH  18  20
ENDBRANCH  17  18
ENDBRANCH   2  17
TORSDOF 5
ENDMDL
MODEL 9
REMARK VINA RESULT:      -7.4      1.146      1.511
REMARK  5 active torsions:
REMARK  status: ('A' for Active; 'I' for Inactive)
REMARK    1  A    between atoms: C_8  and  C_9 
REMARK    2  A    between atoms: N_10  and  N_11 
REMARK       I    between atoms: N_11  and  C_12 
REMARK    3  A    between atoms: C_12  and  C_13 
REMARK    4  A    between atoms: C_13  and  N_14 
REMARK    5  A    between atoms: N_14  and  C_15 
ROOT
HETATM    1  N   UNL     1      41.843 -15.019   0.789  1.00  0.00    -0.246 N 
HETATM    2  C   UNL     1      40.631 -14.333   0.855  1.00  0.00     0.250 C 
HETATM    3  O   UNL     1      39.707 -14.583   1.628  1.00  0.00    -0.270 OA
HETATM    4  H   UNL     1      42.617 -14.582   0.298  1.00  0.00     0.192 HD
ENDROOT
BRANCH   1   5
HETATM    5  N   UNL     1      42.236 -16.034   1.630  1.00  0.00    -0.184 NA
HETATM    6  C   UNL     1      42.849 -15.721   2.729  1.00  0.00     0.152 C 
BRANCH   6   7
HETATM    7  C   UNL     1      43.304 -16.770   3.622  1.00  0.00     0.011 A 
HETATM    8  C   UNL     1      43.412 -18.166   3.321  1.00  0.00     0.004 A 
HETATM    9  C   UNL     1      43.143 -18.951   2.179  1.00  0.00     0.014 A 
HETATM   10  C   UNL     1      43.899 -18.804   4.464  1.00  0.00     0.043 A 
HETATM   11  C   UNL     1      43.372 -20.331   2.219  1.00  0.00     0.001 A 
HETATM   12  C   UNL     1      43.861 -20.935   3.374  1.00  0.00     0.002 A 
HETATM   13  C   UNL     1      44.133 -20.183   4.519  1.00  0.00     0.030 A 
HETATM   14  N   UNL     1      44.071 -17.836   5.425  1.00  0.00    -0.364 N 
HETATM   15  H   UNL     1      44.410 -18.011   6.361  1.00  0.00     0.165 HD
HETATM   16  C   UNL     1      43.719 -16.609   4.931  1.00  0.00     0.102 A 
ENDBRANCH   6   7
ENDBRANCH   1   5
BRANCH   2  17
HETATM   17  C   UNL     1      40.518 -13.233  -0.204  1.00  0.00     0.197 C 
BRANCH  17  18
HETATM   18  N   UNL     1      39.474 -12.256   0.133  1.00  0.00    -0.283 NA
HETATM   19  H   UNL     1      39.819 -11.398   0.561  1.00  0.00     0.128 HD
BRANCH  18  20
HETATM   20  C   UNL     1      38.541 -11.958  -0.882  1.00  0.00     0.030 A 
HETATM   21  C   UNL     1      37.975 -10.669  -0.990  1.00  0.00     0.055 A 
HETATM   22 CL   UNL     1      38.485  -9.398   0.070  1.00  0.00    -0.082 Cl
HETATM   23  C   UNL     1      37.023 -10.371  -1.969  1.00  0.00     0.026 A 
HETATM   24  C   UNL     1      36.599 -11.363  -2.850  1.00  0.00     0.002 A 
HETATM   25  C   UNL     1      37.124 -12.649  -2.746  1.00  0.00     0.002 A 
HETATM   26  C   UNL     1      38.080 -12.943  -1.768  1.00  0.00     0.025 A 
ENDBRANCH  18  20
ENDBRANCH  17  18
ENDBRANCH   2  17
TORSDOF 5
ENDMDL
MODEL 10
REMARK VINA RESULT:      -7.4      5.491      8.006
REMARK  5 active torsions:
REMARK  status: ('A' for Active; 'I' for Inactive)
REMARK    1  A    between atoms: C_8  and  C_9 
REMARK    2  A    between atoms: N_10  and  N_11 
REMARK       I    between atoms: N_11  and  C_12 
REMARK    3  A    between atoms: C_12  and  C_13 
REMARK    4  A    between atoms: C_13  and  N_14 
REMARK    5  A    between atoms: N_14  and  C_15 
ROOT
HETATM    1  N   UNL     1      42.039 -11.867   5.282  1.00  0.00    -0.246 N 
HETATM    2  C   UNL     1      40.935 -11.249   5.870  1.00  0.00     0.250 C 
HETATM    3  O   UNL     1      39.763 -11.595   5.732  1.00  0.00    -0.270 OA
HETATM    4  H   UNL     1      42.961 -11.659   5.655  1.00  0.00     0.192 HD
ENDROOT
BRANCH   1   5
HETATM    5  N   UNL     1      42.005 -13.011   4.520  1.00  0.00    -0.184 NA
HETATM    6  C   UNL     1      43.014 -13.266   3.747  1.00  0.00     0.152 C 
BRANCH   6   7
HETATM    7  C   UNL     1      42.995 -14.449   2.907  1.00  0.00     0.011 A 
HETATM    8  C   UNL     1      43.277 -15.793   3.313  1.00  0.00     0.004 A 
HETATM    9  C   UNL     1      43.641 -16.397   4.536  1.00  0.00     0.014 A 
HETATM   10  C   UNL     1      43.134 -16.608   2.189  1.00  0.00     0.043 A 
HETATM   11  C   UNL     1      43.841 -17.781   4.591  1.00  0.00     0.001 A 
HETATM   12  C   UNL     1      43.687 -18.566   3.452  1.00  0.00     0.002 A 
HETATM   13  C   UNL     1      43.331 -17.994   2.227  1.00  0.00     0.030 A 
HETATM   14  N   UNL     1      42.787 -15.791   1.138  1.00  0.00    -0.364 N 
HETATM   15  H   UNL     1      42.623 -16.111   0.194  1.00  0.00     0.165 HD
HETATM   16  C   UNL     1      42.700 -14.492   1.557  1.00  0.00     0.102 A 
ENDBRANCH   6   7
ENDBRANCH   1   5
BRANCH   2  17
HETATM   17  C   UNL     1      41.317 -10.011   6.686  1.00  0.00     0.197 C 
BRANCH  17  18
HETATM   18  N   UNL     1      42.009 -10.371   7.931  1.00  0.00    -0.283 NA
HETATM   19  H   UNL     1      41.896 -11.345   8.212  1.00  0.00     0.128 HD
BRANCH  18  20
HETATM   20  C   UNL     1      43.361  -9.983   8.034  1.00  0.00     0.030 A 
HETATM   21  C   UNL     1      44.400 -10.921   7.851  1.00  0.00     0.055 A 
HETATM   22 CL   UNL     1      44.035 -12.554   7.405  1.00  0.00    -0.082 Cl
HETATM   23  C   UNL     1      45.742 -10.557   7.987  1.00  0.00     0.026 A 
HETATM   24  C   UNL     1      46.076  -9.249   8.330  1.00  0.00     0.002 A 
HETATM   25  C   UNL     1      45.067  -8.312   8.541  1.00  0.00     0.002 A 
HETATM   26  C   UNL     1      43.724  -8.679   8.401  1.00  0.00     0.025 A 
ENDBRANCH  18  20
ENDBRANCH  17  18
ENDBRANCH   2  17
TORSDOF 5
ENDMDL
