MODEL 1
REMARK VINA RESULT:      -8.7      0.000      0.000
REMARK  4 active torsions:
REMARK  status: ('A' for Active; 'I' for Inactive)
REMARK    1  A    between atoms: C_2  and  C_3 
REMARK    2  A    between atoms: C_4  and  C_5 
REMARK       I    between atoms: C_5  and  N_6 
REMARK    3  A    between atoms: N_6  and  C_7 
REMARK    4  A    between atoms: C_14  and  C_15 
REMARK       I    between atoms: C_15  and  N_16 
ROOT
HETATM    1  C   UNL     1      41.527 -14.570   2.663  1.00  0.00     0.035 A 
HETATM    2  C   UNL     1      41.509 -13.703   1.562  1.00  0.00     0.046 A 
HETATM    3  C   UNL     1      40.686 -14.001   0.453  1.00  0.00     0.030 A 
HETATM    4  C   UNL     1      39.916 -15.156   0.480  1.00  0.00     0.063 A 
HETATM    5  N   UNL     1      39.247 -15.173  -0.712  1.00  0.00    -0.277 N 
HETATM    6  H   UNL     1      38.593 -15.876  -1.039  1.00  0.00     0.189 HD
HETATM    7  N   UNL     1      39.508 -14.128  -1.513  1.00  0.00    -0.168 NA
HETATM    8  C   UNL     1      40.395 -13.391  -0.805  1.00  0.00     0.156 A 
HETATM    9  C   UNL     1      39.909 -16.043   1.557  1.00  0.00     0.034 A 
HETATM   10  C   UNL     1      40.729 -15.723   2.647  1.00  0.00     0.032 A 
ENDROOT
BRANCH   1  11
HETATM   11  N   UNL     1      42.309 -14.354   3.818  1.00  0.00    -0.327 N 
HETATM   12  C   UNL     1      41.938 -14.549   5.130  1.00  0.00     0.227 C 
HETATM   13  O   UNL     1      40.867 -14.967   5.546  1.00  0.00    -0.273 OA
HETATM   14  H   UNL     1      43.247 -14.016   3.662  1.00  0.00     0.169 HD
BRANCH  12  15
HETATM   15  C   UNL     1      43.008 -14.273   6.131  1.00  0.00     0.087 A 
HETATM   16  C   UNL     1      44.042 -15.326   6.499  1.00  0.00     0.032 A 
HETATM   17  C   UNL     1      43.054 -14.823   7.529  1.00  0.00     0.025 A 
BRANCH  16  18
HETATM   18  C   UNL     1      43.960 -16.773   6.066  1.00  0.00    -0.053 A 
HETATM   19  C   UNL     1      44.458 -17.206   4.826  1.00  0.00     0.009 A 
HETATM   20  C   UNL     1      44.398 -18.550   4.441  1.00  0.00     0.024 A 
HETATM   21  C   UNL     1      43.851 -19.492   5.305  1.00  0.00     0.034 A 
HETATM   22  C   UNL     1      43.367 -19.100   6.549  1.00  0.00     0.024 A 
HETATM   23 CL   UNL     1      43.779 -21.146   4.841  1.00  0.00    -0.084 Cl
HETATM   24  C   UNL     1      43.427 -17.754   6.923  1.00  0.00     0.009 A 
ENDBRANCH  16  18
ENDBRANCH  12  15
ENDBRANCH   1  11
BRANCH   8  25
HETATM   25  C   UNL     1      40.939 -12.135  -1.340  1.00  0.00     0.270 C 
HETATM   26  N   UNL     1      41.554 -12.265  -2.555  1.00  0.00    -0.365 N 
HETATM   27  H   UNL     1      41.593 -13.182  -2.985  1.00  0.00     0.159 HD
HETATM   28  H   UNL     1      41.960 -11.456  -2.998  1.00  0.00     0.159 HD
HETATM   29  O   UNL     1      40.869 -11.047  -0.781  1.00  0.00    -0.266 OA
ENDBRANCH   8  25
TORSDOF 4
ENDMDL
MODEL 2
REMARK VINA RESULT:      -8.3      4.444      7.023
REMARK  4 active torsions:
REMARK  status: ('A' for Active; 'I' for Inactive)
REMARK    1  A    between atoms: C_2  and  C_3 
REMARK    2  A    between atoms: C_4  and  C_5 
REMARK       I    between atoms: C_5  and  N_6 
REMARK    3  A    between atoms: N_6  and  C_7 
REMARK    4  A    between atoms: C_14  and  C_15 
REMARK       I    between atoms: C_15  and  N_16 
ROOT
HETATM    1  C   UNL     1      43.582 -13.123   6.490  1.00  0.00     0.035 A 
HETATM    2  C   UNL     1      44.346 -12.157   7.160  1.00  0.00     0.046 A 
HETATM    3  C   UNL     1      43.833 -10.851   7.323  1.00  0.00     0.030 A 
HETATM    4  C   UNL     1      42.580 -10.553   6.806  1.00  0.00     0.063 A 
HETATM    5  N   UNL     1      42.365  -9.237   7.110  1.00  0.00    -0.277 N 
HETATM    6  H   UNL     1      41.550  -8.680   6.883  1.00  0.00     0.189 HD
HETATM    7  N   UNL     1      43.368  -8.651   7.784  1.00  0.00    -0.168 NA
HETATM    8  C   UNL     1      44.282  -9.637   7.926  1.00  0.00     0.156 A 
HETATM    9  C   UNL     1      41.791 -11.487   6.133  1.00  0.00     0.034 A 
HETATM   10  C   UNL     1      42.319 -12.777   5.989  1.00  0.00     0.032 A 
ENDROOT
BRANCH   1  11
HETATM   11  N   UNL     1      44.005 -14.453   6.285  1.00  0.00    -0.327 N 
HETATM   12  C   UNL     1      43.500 -15.593   6.871  1.00  0.00     0.227 C 
HETATM   13  O   UNL     1      42.574 -15.674   7.665  1.00  0.00    -0.273 OA
HETATM   14  H   UNL     1      44.766 -14.582   5.636  1.00  0.00     0.169 HD
BRANCH  12  15
HETATM   15  C   UNL     1      44.132 -16.864   6.415  1.00  0.00     0.087 A 
HETATM   16  C   UNL     1      43.957 -17.371   4.992  1.00  0.00     0.032 A 
HETATM   17  C   UNL     1      43.405 -18.155   6.162  1.00  0.00     0.025 A 
BRANCH  16  18
HETATM   18  C   UNL     1      42.985 -16.773   3.999  1.00  0.00    -0.053 A 
HETATM   19  C   UNL     1      43.382 -16.396   2.706  1.00  0.00     0.009 A 
HETATM   20  C   UNL     1      42.471 -15.863   1.786  1.00  0.00     0.024 A 
HETATM   21  C   UNL     1      41.135 -15.717   2.142  1.00  0.00     0.034 A 
HETATM   22  C   UNL     1      40.704 -16.100   3.408  1.00  0.00     0.024 A 
HETATM   23 CL   UNL     1      40.010 -15.069   1.015  1.00  0.00    -0.084 Cl
HETATM   24  C   UNL     1      41.622 -16.626   4.322  1.00  0.00     0.009 A 
ENDBRANCH  16  18
ENDBRANCH  12  15
ENDBRANCH   1  11
BRANCH   8  25
HETATM   25  C   UNL     1      45.552  -9.401   8.628  1.00  0.00     0.270 C 
HETATM   26  N   UNL     1      46.626  -9.232   7.798  1.00  0.00    -0.365 N 
HETATM   27  H   UNL     1      46.479  -9.281   6.797  1.00  0.00     0.159 HD
HETATM   28  H   UNL     1      47.540  -9.068   8.191  1.00  0.00     0.159 HD
HETATM   29  O   UNL     1      45.680  -9.351   9.846  1.00  0.00    -0.266 OA
ENDBRANCH   8  25
TORSDOF 4
ENDMDL
MODEL 3
REMARK VINA RESULT:      -8.3      4.093      7.832
REMARK  4 active torsions:
REMARK  status: ('A' for Active; 'I' for Inactive)
REMARK    1  A    between atoms: C_2  and  C_3 
REMARK    2  A    between atoms: C_4  and  C_5 
REMARK       I    between atoms: C_5  and  N_6 
REMARK    3  A    between atoms: N_6  and  C_7 
REMARK    4  A    between atoms: C_14  and  C_15 
REMARK       I    between atoms: C_15  and  N_16 
ROOT
HETATM    1  C   UNL     1      42.600 -15.913   2.156  1.00  0.00     0.035 A 
HETATM    2  C   UNL     1      42.889 -17.284   2.156  1.00  0.00     0.046 A 
HETATM    3  C   UNL     1      43.421 -17.885   3.320  1.00  0.00     0.030 A 
HETATM    4  C   UNL     1      43.652 -17.095   4.437  1.00  0.00     0.063 A 
HETATM    5  N   UNL     1      44.164 -17.941   5.380  1.00  0.00    -0.277 N 
HETATM    6  H   UNL     1      44.453 -17.707   6.323  1.00  0.00     0.189 HD
HETATM    7  N   UNL     1      44.284 -19.217   4.978  1.00  0.00    -0.168 NA
HETATM    8  C   UNL     1      43.824 -19.199   3.706  1.00  0.00     0.156 A 
HETATM    9  C   UNL     1      43.379 -15.726   4.473  1.00  0.00     0.034 A 
HETATM   10  C   UNL     1      42.846 -15.155   3.310  1.00  0.00     0.032 A 
ENDROOT
BRANCH   1  11
HETATM   11  N   UNL     1      42.061 -15.226   1.047  1.00  0.00    -0.327 N 
HETATM   12  C   UNL     1      40.733 -15.099   0.705  1.00  0.00     0.227 C 
HETATM   13  O   UNL     1      39.764 -15.539   1.306  1.00  0.00    -0.273 OA
HETATM   14  H   UNL     1      42.727 -14.778   0.436  1.00  0.00     0.169 HD
BRANCH  12  15
HETATM   15  C   UNL     1      40.475 -14.269  -0.507  1.00  0.00     0.087 A 
HETATM   16  C   UNL     1      40.393 -12.753  -0.428  1.00  0.00     0.032 A 
HETATM   17  C   UNL     1      39.183 -13.570  -0.824  1.00  0.00     0.025 A 
BRANCH  16  18
HETATM   18  C   UNL     1      40.349 -11.979   0.872  1.00  0.00    -0.053 A 
HETATM   19  C   UNL     1      41.506 -11.434   1.451  1.00  0.00     0.009 A 
HETATM   20  C   UNL     1      41.454 -10.701   2.642  1.00  0.00     0.024 A 
HETATM   21  C   UNL     1      40.231 -10.485   3.267  1.00  0.00     0.034 A 
HETATM   22  C   UNL     1      39.062 -10.994   2.709  1.00  0.00     0.024 A 
HETATM   23 CL   UNL     1      40.159  -9.581   4.728  1.00  0.00    -0.084 Cl
HETATM   24  C   UNL     1      39.125 -11.730   1.522  1.00  0.00     0.009 A 
ENDBRANCH  16  18
ENDBRANCH  12  15
ENDBRANCH   1  11
BRANCH   8  25
HETATM   25  C   UNL     1      43.782 -20.424   2.895  1.00  0.00     0.270 C 
HETATM   26  N   UNL     1      44.098 -21.563   3.586  1.00  0.00    -0.365 N 
HETATM   27  H   UNL     1      44.332 -21.485   4.568  1.00  0.00     0.159 HD
HETATM   28  H   UNL     1      44.098 -22.451   3.111  1.00  0.00     0.159 HD
HETATM   29  O   UNL     1      43.493 -20.467   1.705  1.00  0.00    -0.266 OA
ENDBRANCH   8  25
TORSDOF 4
ENDMDL
MODEL 4
REMARK VINA RESULT:      -8.2      3.496      7.433
REMARK  4 active torsions:
REMARK  status: ('A' for Active; 'I' for Inactive)
REMARK    1  A    between atoms: C_2  and  C_3 
REMARK    2  A    between atoms: C_4  and  C_5 
REMARK       I    between atoms: C_5  and  N_6 
REMARK    3  A    between atoms: N_6  and  C_7 
REMARK    4  A    between atoms: C_14  and  C_15 
REMARK       I    between atoms: C_15  and  N_16 
ROOT
HETATM    1  C   UNL     1      42.592 -16.158   2.422  1.00  0.00     0.035 A 
HETATM    2  C   UNL     1      42.352 -16.000   3.793  1.00  0.00     0.046 A 
HETATM    3  C   UNL     1      42.841 -16.964   4.703  1.00  0.00     0.030 A 
HETATM    4  C   UNL     1      43.545 -18.054   4.211  1.00  0.00     0.063 A 
HETATM    5  N   UNL     1      43.875 -18.798   5.310  1.00  0.00    -0.277 N 
HETATM    6  H   UNL     1      44.392 -19.670   5.328  1.00  0.00     0.189 HD
HETATM    7  N   UNL     1      43.451 -18.287   6.477  1.00  0.00    -0.168 NA
HETATM    8  C   UNL     1      42.812 -17.149   6.119  1.00  0.00     0.156 A 
HETATM    9  C   UNL     1      43.803 -18.246   2.853  1.00  0.00     0.034 A 
HETATM   10  C   UNL     1      43.313 -17.273   1.972  1.00  0.00     0.032 A 
ENDROOT
BRANCH   1  11
HETATM   11  N   UNL     1      42.152 -15.247   1.438  1.00  0.00    -0.327 N 
HETATM   12  C   UNL     1      40.860 -15.032   1.012  1.00  0.00     0.227 C 
HETATM   13  O   UNL     1      39.843 -15.575   1.420  1.00  0.00    -0.273 OA
HETATM   14  H   UNL     1      42.869 -14.691   0.996  1.00  0.00     0.169 HD
BRANCH  12  15
HETATM   15  C   UNL     1      40.709 -13.964  -0.017  1.00  0.00     0.087 A 
HETATM   16  C   UNL     1      40.848 -12.493   0.340  1.00  0.00     0.032 A 
HETATM   17  C   UNL     1      39.527 -13.045  -0.149  1.00  0.00     0.025 A 
BRANCH  16  18
HETATM   18  C   UNL     1      40.934 -11.976   1.760  1.00  0.00    -0.053 A 
HETATM   19  C   UNL     1      39.796 -11.844   2.572  1.00  0.00     0.009 A 
HETATM   20  C   UNL     1      39.887 -11.386   3.891  1.00  0.00     0.024 A 
HETATM   21  C   UNL     1      41.129 -11.067   4.428  1.00  0.00     0.034 A 
HETATM   22  C   UNL     1      42.279 -11.206   3.657  1.00  0.00     0.024 A 
HETATM   23 CL   UNL     1      41.248 -10.509   6.050  1.00  0.00    -0.084 Cl
HETATM   24  C   UNL     1      42.178 -11.660   2.339  1.00  0.00     0.009 A 
ENDBRANCH  16  18
ENDBRANCH  12  15
ENDBRANCH   1  11
BRANCH   8  25
HETATM   25  C   UNL     1      42.194 -16.275   7.125  1.00  0.00     0.270 C 
HETATM   26  N   UNL     1      43.046 -15.879   8.120  1.00  0.00    -0.365 N 
HETATM   27  H   UNL     1      44.005 -16.205   8.097  1.00  0.00     0.159 HD
HETATM   28  H   UNL     1      42.709 -15.279   8.857  1.00  0.00     0.159 HD
HETATM   29  O   UNL     1      41.025 -15.908   7.111  1.00  0.00    -0.266 OA
ENDBRANCH   8  25
TORSDOF 4
ENDMDL
MODEL 5
REMARK VINA RESULT:      -8.1      2.043      2.804
REMARK  4 active torsions:
REMARK  status: ('A' for Active; 'I' for Inactive)
REMARK    1  A    between atoms: C_2  and  C_3 
REMARK    2  A    between atoms: C_4  and  C_5 
REMARK       I    between atoms: C_5  and  N_6 
REMARK    3  A    between atoms: N_6  and  C_7 
REMARK    4  A    between atoms: C_14  and  C_15 
REMARK       I    between atoms: C_15  and  N_16 
ROOT
HETATM    1  C   UNL     1      40.968 -13.370   1.084  1.00  0.00     0.035 A 
HETATM    2  C   UNL     1      41.268 -12.144   0.474  1.00  0.00     0.046 A 
HETATM    3  C   UNL     1      40.946 -11.944  -0.887  1.00  0.00     0.030 A 
HETATM    4  C   UNL     1      40.344 -12.977  -1.592  1.00  0.00     0.063 A 
HETATM    5  N   UNL     1      40.165 -12.495  -2.859  1.00  0.00    -0.277 N 
HETATM    6  H   UNL     1      39.753 -12.980  -3.648  1.00  0.00     0.189 HD
HETATM    7  N   UNL     1      40.595 -11.236  -3.042  1.00  0.00    -0.168 NA
HETATM    8  C   UNL     1      41.078 -10.880  -1.829  1.00  0.00     0.156 A 
HETATM    9  C   UNL     1      40.031 -14.211  -1.020  1.00  0.00     0.034 A 
HETATM   10  C   UNL     1      40.354 -14.382   0.333  1.00  0.00     0.032 A 
ENDROOT
BRANCH   1  11
HETATM   11  N   UNL     1      41.243 -13.661   2.438  1.00  0.00    -0.327 N 
HETATM   12  C   UNL     1      42.477 -13.833   3.024  1.00  0.00     0.227 C 
HETATM   13  O   UNL     1      43.573 -13.745   2.489  1.00  0.00    -0.273 OA
HETATM   14  H   UNL     1      40.441 -13.755   3.043  1.00  0.00     0.169 HD
BRANCH  12  15
HETATM   15  C   UNL     1      42.443 -14.089   4.492  1.00  0.00     0.087 A 
HETATM   16  C   UNL     1      42.821 -15.444   5.070  1.00  0.00     0.032 A 
HETATM   17  C   UNL     1      41.410 -14.914   5.207  1.00  0.00     0.025 A 
BRANCH  16  18
HETATM   18  C   UNL     1      43.048 -16.682   4.231  1.00  0.00    -0.053 A 
HETATM   19  C   UNL     1      42.283 -16.953   3.084  1.00  0.00     0.009 A 
HETATM   20  C   UNL     1      42.514 -18.090   2.301  1.00  0.00     0.024 A 
HETATM   21  C   UNL     1      43.534 -18.970   2.646  1.00  0.00     0.034 A 
HETATM   22  C   UNL     1      44.324 -18.721   3.763  1.00  0.00     0.024 A 
HETATM   23 CL   UNL     1      43.827 -20.366   1.685  1.00  0.00    -0.084 Cl
HETATM   24  C   UNL     1      44.082 -17.585   4.543  1.00  0.00     0.009 A 
ENDBRANCH  16  18
ENDBRANCH  12  15
ENDBRANCH   1  11
BRANCH   8  25
HETATM   25  C   UNL     1      41.650  -9.545  -1.600  1.00  0.00     0.270 C 
HETATM   26  N   UNL     1      40.838  -8.515  -1.992  1.00  0.00    -0.365 N 
HETATM   27  H   UNL     1      39.937  -8.735  -2.399  1.00  0.00     0.159 HD
HETATM   28  H   UNL     1      41.149  -7.564  -1.876  1.00  0.00     0.159 HD
HETATM   29  O   UNL     1      42.749  -9.330  -1.104  1.00  0.00    -0.266 OA
ENDBRANCH   8  25
TORSDOF 4
ENDMDL
MODEL 6
REMARK VINA RESULT:      -8.0      2.096      2.344
REMARK  4 active torsions:
REMARK  status: ('A' for Active; 'I' for Inactive)
REMARK    1  A    between atoms: C_2  and  C_3 
REMARK    2  A    between atoms: C_4  and  C_5 
REMARK       I    between atoms: C_5  and  N_6 
REMARK    3  A    between atoms: N_6  and  C_7 
REMARK    4  A    between atoms: C_14  and  C_15 
REMARK       I    between atoms: C_15  and  N_16 
ROOT
HETATM    1  C   UNL     1      41.063 -13.976   2.557  1.00  0.00     0.035 A 
HETATM    2  C   UNL     1      40.331 -12.804   2.322  1.00  0.00     0.046 A 
HETATM    3  C   UNL     1      39.571 -12.681   1.138  1.00  0.00     0.030 A 
HETATM    4  C   UNL     1      39.574 -13.729   0.227  1.00  0.00     0.063 A 
HETATM    5  N   UNL     1      38.769 -13.320  -0.799  1.00  0.00    -0.277 N 
HETATM    6  H   UNL     1      38.542 -13.833  -1.643  1.00  0.00     0.189 HD
HETATM    7  N   UNL     1      38.236 -12.098  -0.636  1.00  0.00    -0.168 NA
HETATM    8  C   UNL     1      38.721 -11.691   0.559  1.00  0.00     0.156 A 
HETATM    9  C   UNL     1      40.291 -14.910   0.426  1.00  0.00     0.034 A 
HETATM   10  C   UNL     1      41.032 -15.010   1.611  1.00  0.00     0.032 A 
ENDROOT
BRANCH   1  11
HETATM   11  N   UNL     1      41.845 -14.195   3.712  1.00  0.00    -0.327 N 
HETATM   12  C   UNL     1      41.517 -14.952   4.815  1.00  0.00     0.227 C 
HETATM   13  O   UNL     1      40.495 -15.598   4.997  1.00  0.00    -0.273 OA
HETATM   14  H   UNL     1      42.746 -13.741   3.730  1.00  0.00     0.169 HD
BRANCH  12  15
HETATM   15  C   UNL     1      42.577 -15.026   5.861  1.00  0.00     0.087 A 
HETATM   16  C   UNL     1      43.692 -16.057   5.788  1.00  0.00     0.032 A 
HETATM   17  C   UNL     1      42.684 -16.091   6.916  1.00  0.00     0.025 A 
BRANCH  16  18
HETATM   18  C   UNL     1      43.714 -17.206   4.804  1.00  0.00    -0.053 A 
HETATM   19  C   UNL     1      43.543 -17.004   3.424  1.00  0.00     0.009 A 
HETATM   20  C   UNL     1      43.586 -18.070   2.518  1.00  0.00     0.024 A 
HETATM   21  C   UNL     1      43.821 -19.360   2.979  1.00  0.00     0.034 A 
HETATM   22  C   UNL     1      44.015 -19.592   4.337  1.00  0.00     0.024 A 
HETATM   23 CL   UNL     1      43.880 -20.673   1.870  1.00  0.00    -0.084 Cl
HETATM   24  C   UNL     1      43.965 -18.522   5.236  1.00  0.00     0.009 A 
ENDBRANCH  16  18
ENDBRANCH  12  15
ENDBRANCH   1  11
BRANCH   8  25
HETATM   25  C   UNL     1      38.365 -10.378   1.117  1.00  0.00     0.270 C 
HETATM   26  N   UNL     1      37.650 -10.441   2.282  1.00  0.00    -0.365 N 
HETATM   27  H   UNL     1      37.422 -11.352   2.663  1.00  0.00     0.159 HD
HETATM   28  H   UNL     1      37.359  -9.590   2.736  1.00  0.00     0.159 HD
HETATM   29  O   UNL     1      38.664  -9.300   0.616  1.00  0.00    -0.266 OA
ENDBRANCH   8  25
TORSDOF 4
ENDMDL
MODEL 7
REMARK VINA RESULT:      -8.0      2.240      3.236
REMARK  4 active torsions:
REMARK  status: ('A' for Active; 'I' for Inactive)
REMARK    1  A    between atoms: C_2  and  C_3 
REMARK    2  A    between atoms: C_4  and  C_5 
REMARK       I    between atoms: C_5  and  N_6 
REMARK    3  A    between atoms: N_6  and  C_7 
REMARK    4  A    between atoms: C_14  and  C_15 
REMARK       I    between atoms: C_15  and  N_16 
ROOT
HETATM    1  C   UNL     1      40.795 -13.311   1.142  1.00  0.00     0.035 A 
HETATM    2  C   UNL     1      40.131 -14.107   0.200  1.00  0.00     0.046 A 
HETATM    3  C   UNL     1      39.998 -13.651  -1.131  1.00  0.00     0.030 A 
HETATM    4  C   UNL     1      40.526 -12.413  -1.471  1.00  0.00     0.063 A 
HETATM    5  N   UNL     1      40.240 -12.249  -2.798  1.00  0.00    -0.277 N 
HETATM    6  H   UNL     1      40.475 -11.455  -3.382  1.00  0.00     0.189 HD
HETATM    7  N   UNL     1      39.575 -13.273  -3.355  1.00  0.00    -0.168 NA
HETATM    8  C   UNL     1      39.420 -14.151  -2.337  1.00  0.00     0.156 A 
HETATM    9  C   UNL     1      41.193 -11.592  -0.560  1.00  0.00     0.034 A 
HETATM   10  C   UNL     1      41.316 -12.069   0.751  1.00  0.00     0.032 A 
ENDROOT
BRANCH   1  11
HETATM   11  N   UNL     1      40.983 -13.683   2.491  1.00  0.00    -0.327 N 
HETATM   12  C   UNL     1      42.177 -13.909   3.138  1.00  0.00     0.227 C 
HETATM   13  O   UNL     1      43.305 -13.810   2.676  1.00  0.00    -0.273 OA
HETATM   14  H   UNL     1      40.145 -13.799   3.040  1.00  0.00     0.169 HD
BRANCH  12  15
HETATM   15  C   UNL     1      42.051 -14.249   4.585  1.00  0.00     0.087 A 
HETATM   16  C   UNL     1      42.449 -15.617   5.116  1.00  0.00     0.032 A 
HETATM   17  C   UNL     1      41.009 -15.156   5.177  1.00  0.00     0.025 A 
BRANCH  16  18
HETATM   18  C   UNL     1      42.793 -16.796   4.232  1.00  0.00    -0.053 A 
HETATM   19  C   UNL     1      42.080 -17.074   3.055  1.00  0.00     0.009 A 
HETATM   20  C   UNL     1      42.418 -18.153   2.230  1.00  0.00     0.024 A 
HETATM   21  C   UNL     1      43.495 -18.966   2.565  1.00  0.00     0.034 A 
HETATM   22  C   UNL     1      44.236 -18.707   3.713  1.00  0.00     0.024 A 
HETATM   23 CL   UNL     1      43.920 -20.291   1.553  1.00  0.00    -0.084 Cl
HETATM   24  C   UNL     1      43.887 -17.629   4.533  1.00  0.00     0.009 A 
ENDBRANCH  16  18
ENDBRANCH  12  15
ENDBRANCH   1  11
BRANCH   8  25
HETATM   25  C   UNL     1      38.731 -15.433  -2.536  1.00  0.00     0.270 C 
HETATM   26  N   UNL     1      38.068 -15.532  -3.729  1.00  0.00    -0.365 N 
HETATM   27  H   UNL     1      38.095 -14.745  -4.366  1.00  0.00     0.159 HD
HETATM   28  H   UNL     1      37.563 -16.376  -3.952  1.00  0.00     0.159 HD
HETATM   29  O   UNL     1      38.726 -16.358  -1.732  1.00  0.00    -0.266 OA
ENDBRANCH   8  25
TORSDOF 4
ENDMDL
MODEL 8
REMARK VINA RESULT:      -8.0      2.944      3.403
REMARK  4 active torsions:
REMARK  status: ('A' for Active; 'I' for Inactive)
REMARK    1  A    between atoms: C_2  and  C_3 
REMARK    2  A    between atoms: C_4  and  C_5 
REMARK       I    between atoms: C_5  and  N_6 
REMARK    3  A    between atoms: N_6  and  C_7 
REMARK    4  A    between atoms: C_14  and  C_15 
REMARK       I    between atoms: C_15  and  N_16 
ROOT
HETATM    1  C   UNL     1      41.243 -13.810   4.168  1.00  0.00     0.035 A 
HETATM    2  C   UNL     1      40.617 -12.565   4.316  1.00  0.00     0.046 A 
HETATM    3  C   UNL     1      39.614 -12.175   3.399  1.00  0.00     0.030 A 
HETATM    4  C   UNL     1      39.279 -13.037   2.365  1.00  0.00     0.063 A 
HETATM    5  N   UNL     1      38.304 -12.392   1.656  1.00  0.00    -0.277 N 
HETATM    6  H   UNL     1      37.824 -12.726   0.828  1.00  0.00     0.189 HD
HETATM    7  N   UNL     1      37.970 -11.184   2.140  1.00  0.00    -0.168 NA
HETATM    8  C   UNL     1      38.771 -11.037   3.221  1.00  0.00     0.156 A 
HETATM    9  C   UNL     1      39.881 -14.284   2.185  1.00  0.00     0.034 A 
HETATM   10  C   UNL     1      40.867 -14.650   3.110  1.00  0.00     0.032 A 
ENDROOT
BRANCH   1  11
HETATM   11  N   UNL     1      42.247 -14.291   5.036  1.00  0.00    -0.327 N 
HETATM   12  C   UNL     1      42.143 -15.311   5.955  1.00  0.00     0.227 C 
HETATM   13  O   UNL     1      41.167 -16.010   6.182  1.00  0.00    -0.273 OA
HETATM   14  H   UNL     1      43.143 -13.831   4.974  1.00  0.00     0.169 HD
BRANCH  12  15
HETATM   15  C   UNL     1      43.400 -15.616   6.697  1.00  0.00     0.087 A 
HETATM   16  C   UNL     1      44.395 -16.644   6.183  1.00  0.00     0.032 A 
HETATM   17  C   UNL     1      43.661 -16.867   7.487  1.00  0.00     0.025 A 
BRANCH  16  18
HETATM   18  C   UNL     1      44.116 -17.581   5.028  1.00  0.00    -0.053 A 
HETATM   19  C   UNL     1      43.818 -17.104   3.741  1.00  0.00     0.009 A 
HETATM   20  C   UNL     1      43.582 -17.977   2.672  1.00  0.00     0.024 A 
HETATM   21  C   UNL     1      43.659 -19.351   2.873  1.00  0.00     0.034 A 
HETATM   22  C   UNL     1      43.972 -19.856   4.130  1.00  0.00     0.024 A 
HETATM   23 CL   UNL     1      43.376 -20.429   1.563  1.00  0.00    -0.084 Cl
HETATM   24  C   UNL     1      44.201 -18.976   5.193  1.00  0.00     0.009 A 
ENDBRANCH  16  18
ENDBRANCH  12  15
ENDBRANCH   1  11
BRANCH   8  25
HETATM   25  C   UNL     1      38.712  -9.825   4.051  1.00  0.00     0.270 C 
HETATM   26  N   UNL     1      39.357  -8.746   3.510  1.00  0.00    -0.365 N 
HETATM   27  H   UNL     1      39.814  -8.853   2.613  1.00  0.00     0.159 HD
HETATM   28  H   UNL     1      39.372  -7.872   4.011  1.00  0.00     0.159 HD
HETATM   29  O   UNL     1      38.146  -9.745   5.135  1.00  0.00    -0.266 OA
ENDBRANCH   8  25
TORSDOF 4
ENDMDL
MODEL 9
REMARK VINA RESULT:      -8.0      4.034      6.962
REMARK  4 active torsions:
REMARK  status: ('A' for Active; 'I' for Inactive)
REMARK    1  A    between atoms: C_2  and  C_3 
REMARK    2  A    between atoms: C_4  and  C_5 
REMARK       I    between atoms: C_5  and  N_6 
REMARK    3  A    between atoms: N_6  and  C_7 
REMARK    4  A    between atoms: C_14  and  C_15 
REMARK       I    between atoms: C_15  and  N_16 
ROOT
HETATM    1  C   UNL     1      42.349 -12.219   5.765  1.00  0.00     0.035 A 
HETATM    2  C   UNL     1      42.218 -10.954   6.353  1.00  0.00     0.046 A 
HETATM    3  C   UNL     1      43.263 -10.448   7.159  1.00  0.00     0.030 A 
HETATM    4  C   UNL     1      44.396 -11.225   7.354  1.00  0.00     0.063 A 
HETATM    5  N   UNL     1      45.208 -10.484   8.167  1.00  0.00    -0.277 N 
HETATM    6  H   UNL     1      46.123 -10.741   8.520  1.00  0.00     0.189 HD
HETATM    7  N   UNL     1      44.706  -9.288   8.516  1.00  0.00    -0.168 NA
HETATM    8  C   UNL     1      43.504  -9.249   7.897  1.00  0.00     0.156 A 
HETATM    9  C   UNL     1      44.561 -12.489   6.787  1.00  0.00     0.034 A 
HETATM   10  C   UNL     1      43.514 -12.967   5.987  1.00  0.00     0.032 A 
ENDROOT
BRANCH   1  11
HETATM   11  N   UNL     1      41.365 -12.806   4.940  1.00  0.00    -0.327 N 
HETATM   12  C   UNL     1      41.384 -12.925   3.569  1.00  0.00     0.227 C 
HETATM   13  O   UNL     1      42.266 -12.566   2.803  1.00  0.00    -0.273 OA
HETATM   14  H   UNL     1      40.555 -13.178   5.412  1.00  0.00     0.169 HD
BRANCH  12  15
HETATM   15  C   UNL     1      40.211 -13.637   2.985  1.00  0.00     0.087 A 
HETATM   16  C   UNL     1      40.147 -15.156   2.940  1.00  0.00     0.032 A 
HETATM   17  C   UNL     1      40.196 -14.349   1.661  1.00  0.00     0.025 A 
BRANCH  16  18
HETATM   18  C   UNL     1      41.317 -16.058   3.270  1.00  0.00    -0.053 A 
HETATM   19  C   UNL     1      41.701 -16.320   4.595  1.00  0.00     0.009 A 
HETATM   20  C   UNL     1      42.771 -17.172   4.893  1.00  0.00     0.024 A 
HETATM   21  C   UNL     1      43.465 -17.795   3.862  1.00  0.00     0.034 A 
HETATM   22  C   UNL     1      43.098 -17.573   2.539  1.00  0.00     0.024 A 
HETATM   23 CL   UNL     1      44.777 -18.848   4.221  1.00  0.00    -0.084 Cl
HETATM   24  C   UNL     1      42.031 -16.716   2.251  1.00  0.00     0.009 A 
ENDBRANCH  16  18
ENDBRANCH  12  15
ENDBRANCH   1  11
BRANCH   8  25
HETATM   25  C   UNL     1      42.621  -8.081   8.024  1.00  0.00     0.270 C 
HETATM   26  N   UNL     1      41.697  -8.185   9.028  1.00  0.00    -0.365 N 
HETATM   27  H   UNL     1      41.683  -9.028   9.590  1.00  0.00     0.159 HD
HETATM   28  H   UNL     1      41.046  -7.433   9.187  1.00  0.00     0.159 HD
HETATM   29  O   UNL     1      42.675  -7.082   7.316  1.00  0.00    -0.266 OA
ENDBRANCH   8  25
TORSDOF 4
ENDMDL
MODEL 10
REMARK VINA RESULT:      -7.9      3.461      6.432
REMARK  4 active torsions:
REMARK  status: ('A' for Active; 'I' for Inactive)
REMARK    1  A    between atoms: C_2  and  C_3 
REMARK    2  A    between atoms: C_4  and  C_5 
REMARK       I    between atoms: C_5  and  N_6 
REMARK    3  A    between atoms: N_6  and  C_7 
REMARK    4  A    between atoms: C_14  and  C_15 
REMARK       I    between atoms: C_15  and  N_16 
ROOT
HETATM    1  C   UNL     1      40.596 -11.822   4.563  1.00  0.00     0.035 A 
HETATM    2  C   UNL     1      41.879 -11.964   5.108  1.00  0.00     0.046 A 
HETATM    3  C   UNL     1      42.364 -10.993   6.014  1.00  0.00     0.030 A 
HETATM    4  C   UNL     1      41.554  -9.914   6.336  1.00  0.00     0.063 A 
HETATM    5  N   UNL     1      42.286  -9.160   7.211  1.00  0.00    -0.277 N 
HETATM    6  H   UNL     1      42.008  -8.292   7.655  1.00  0.00     0.189 HD
HETATM    7  N   UNL     1      43.502  -9.656   7.492  1.00  0.00    -0.168 NA
HETATM    8  C   UNL     1      43.564 -10.792   6.761  1.00  0.00     0.156 A 
HETATM    9  C   UNL     1      40.272  -9.738   5.813  1.00  0.00     0.034 A 
HETATM   10  C   UNL     1      39.812 -10.717   4.922  1.00  0.00     0.032 A 
ENDROOT
BRANCH   1  11
HETATM   11  N   UNL     1      40.022 -12.741   3.658  1.00  0.00    -0.327 N 
HETATM   12  C   UNL     1      40.482 -13.082   2.406  1.00  0.00     0.227 C 
HETATM   13  O   UNL     1      41.487 -12.671   1.845  1.00  0.00    -0.273 OA
HETATM   14  H   UNL     1      39.177 -13.198   3.966  1.00  0.00     0.169 HD
BRANCH  12  15
HETATM   15  C   UNL     1      39.677 -14.123   1.705  1.00  0.00     0.087 A 
HETATM   16  C   UNL     1      39.903 -15.606   1.959  1.00  0.00     0.032 A 
HETATM   17  C   UNL     1      40.175 -15.007   0.596  1.00  0.00     0.025 A 
BRANCH  16  18
HETATM   18  C   UNL     1      41.069 -16.155   2.751  1.00  0.00    -0.053 A 
HETATM   19  C   UNL     1      42.238 -16.620   2.127  1.00  0.00     0.009 A 
HETATM   20  C   UNL     1      43.321 -17.107   2.868  1.00  0.00     0.024 A 
HETATM   21  C   UNL     1      43.257 -17.119   4.257  1.00  0.00     0.034 A 
HETATM   22  C   UNL     1      42.122 -16.646   4.908  1.00  0.00     0.024 A 
HETATM   23 CL   UNL     1      44.586 -17.710   5.175  1.00  0.00    -0.084 Cl
HETATM   24  C   UNL     1      41.043 -16.167   4.159  1.00  0.00     0.009 A 
ENDBRANCH  16  18
ENDBRANCH  12  15
ENDBRANCH   1  11
BRANCH   8  25
HETATM   25  C   UNL     1      44.756 -11.652   6.791  1.00  0.00     0.270 C 
HETATM   26  N   UNL     1      45.923 -10.999   6.503  1.00  0.00    -0.365 N 
HETATM   27  H   UNL     1      45.887 -10.008   6.294  1.00  0.00     0.159 HD
HETATM   28  H   UNL     1      46.792 -11.509   6.497  1.00  0.00     0.159 HD
HETATM   29  O   UNL     1      44.749 -12.850   7.048  1.00  0.00    -0.266 OA
ENDBRANCH   8  25
TORSDOF 4
ENDMDL
