MODEL 1
REMARK VINA RESULT:      -8.2      0.000      0.000
REMARK  4 active torsions:
REMARK  status: ('A' for Active; 'I' for Inactive)
REMARK    1  A    between atoms: O_2  and  C_3 
REMARK    2  A    between atoms: C_5  and  N_6 
REMARK    3  A    between atoms: C_10  and  C_11 
REMARK    4  A    between atoms: C_22  and  O_23 
ROOT
HETATM    1  N   UNL     1      42.732 -15.721   5.137  1.00  0.00    -0.315 N 
HETATM    2  C   UNL     1      41.483 -15.459   5.717  1.00  0.00     0.225 C 
HETATM    3  O   UNL     1      40.465 -16.133   5.691  1.00  0.00    -0.273 OA
HETATM    4  C   UNL     1      41.593 -14.154   6.474  1.00  0.00     0.117 C 
HETATM    5  C   UNL     1      42.758 -13.489   5.762  1.00  0.00     0.082 C 
HETATM    6  C   UNL     1      43.671 -14.672   5.474  1.00  0.00     0.145 C 
ENDROOT
BRANCH   1   7
HETATM    7  C   UNL     1      43.062 -16.814   4.286  1.00  0.00     0.073 A 
HETATM    8  C   UNL     1      43.717 -17.939   4.823  1.00  0.00     0.069 A 
HETATM    9  C   UNL     1      43.979 -19.072   4.046  1.00  0.00     0.070 A 
HETATM   10  C   UNL     1      43.629 -19.075   2.699  1.00  0.00     0.039 A 
HETATM   11  C   UNL     1      43.000 -17.968   2.134  1.00  0.00     0.042 A 
HETATM   12  C   UNL     1      42.728 -16.837   2.914  1.00  0.00     0.095 A 
BRANCH   9  13
HETATM   13  O   UNL     1      44.557 -20.229   4.491  1.00  0.00    -0.356 OA
HETATM   14  C   UNL     1      43.900 -20.888   5.569  1.00  0.00     0.210 C 
ENDBRANCH   9  13
BRANCH  12  15
HETATM   15  O   UNL     1      42.111 -15.752   2.345  1.00  0.00    -0.354 OA
HETATM   16  C   UNL     1      40.739 -15.984   2.028  1.00  0.00     0.210 C 
ENDBRANCH  12  15
ENDBRANCH   1   7
BRANCH   5  17
HETATM   17  C   UNL     1      43.403 -12.398   6.535  1.00  0.00     0.111 A 
HETATM   18  N   UNL     1      44.683 -12.260   6.806  1.00  0.00    -0.233 NA
HETATM   19  C   UNL     1      44.800 -11.052   7.451  1.00  0.00     0.085 A 
HETATM   20  C   UNL     1      43.557 -10.449   7.601  1.00  0.00     0.062 A 
HETATM   21  C   UNL     1      45.942 -10.393   7.927  1.00  0.00     0.034 A 
HETATM   22  N   UNL     1      42.682 -11.337   7.032  1.00  0.00    -0.342 N 
HETATM   23  C   UNL     1      43.374  -9.206   8.207  1.00  0.00     0.032 A 
HETATM   24  H   UNL     1      41.683 -11.209   6.953  1.00  0.00     0.167 HD
HETATM   25  C   UNL     1      44.526  -8.559   8.670  1.00  0.00     0.002 A 
HETATM   26  C   UNL     1      45.789  -9.139   8.534  1.00  0.00     0.002 A 
ENDBRANCH   5  17
TORSDOF 4
ENDMDL
MODEL 2
REMARK VINA RESULT:      -8.2      4.979      8.180
REMARK  4 active torsions:
REMARK  status: ('A' for Active; 'I' for Inactive)
REMARK    1  A    between atoms: O_2  and  C_3 
REMARK    2  A    between atoms: C_5  and  N_6 
REMARK    3  A    between atoms: C_10  and  C_11 
REMARK    4  A    between atoms: C_22  and  O_23 
ROOT
HETATM    1  N   UNL     1      40.783 -14.307   1.093  1.00  0.00    -0.315 N 
HETATM    2  C   UNL     1      40.078 -14.197   2.301  1.00  0.00     0.225 C 
HETATM    3  O   UNL     1      39.157 -13.449   2.590  1.00  0.00    -0.273 OA
HETATM    4  C   UNL     1      40.625 -15.242   3.248  1.00  0.00     0.117 C 
HETATM    5  C   UNL     1      42.013 -15.473   2.675  1.00  0.00     0.082 C 
HETATM    6  C   UNL     1      41.758 -15.373   1.178  1.00  0.00     0.145 C 
ENDROOT
BRANCH   1   7
HETATM    7  C   UNL     1      40.636 -13.478  -0.055  1.00  0.00     0.073 A 
HETATM    8  C   UNL     1      40.085 -14.017  -1.234  1.00  0.00     0.069 A 
HETATM    9  C   UNL     1      39.838 -13.218  -2.355  1.00  0.00     0.070 A 
HETATM   10  C   UNL     1      40.187 -11.871  -2.328  1.00  0.00     0.039 A 
HETATM   11  C   UNL     1      40.754 -11.315  -1.184  1.00  0.00     0.042 A 
HETATM   12  C   UNL     1      40.992 -12.111  -0.056  1.00  0.00     0.095 A 
BRANCH   9  13
HETATM   13  O   UNL     1      39.257 -13.636  -3.521  1.00  0.00    -0.356 OA
HETATM   14  C   UNL     1      38.261 -14.647  -3.401  1.00  0.00     0.210 C 
ENDBRANCH   9  13
BRANCH  12  15
HETATM   15  O   UNL     1      41.555 -11.553   1.063  1.00  0.00    -0.354 OA
HETATM   16  C   UNL     1      40.827 -10.431   1.561  1.00  0.00     0.210 C 
ENDBRANCH  12  15
ENDBRANCH   1   7
BRANCH   5  17
HETATM   17  C   UNL     1      42.644 -16.747   3.101  1.00  0.00     0.111 A 
HETATM   18  N   UNL     1      43.113 -17.045   4.294  1.00  0.00    -0.233 NA
HETATM   19  C   UNL     1      43.497 -18.363   4.225  1.00  0.00     0.085 A 
HETATM   20  C   UNL     1      43.282 -18.874   2.950  1.00  0.00     0.062 A 
HETATM   21  C   UNL     1      44.027 -19.200   5.216  1.00  0.00     0.034 A 
HETATM   22  N   UNL     1      42.762 -17.819   2.248  1.00  0.00    -0.342 N 
HETATM   23  C   UNL     1      43.567 -20.193   2.592  1.00  0.00     0.032 A 
HETATM   24  H   UNL     1      42.474 -17.842   1.280  1.00  0.00     0.167 HD
HETATM   25  C   UNL     1      44.089 -21.016   3.598  1.00  0.00     0.002 A 
HETATM   26  C   UNL     1      44.316 -20.531   4.888  1.00  0.00     0.002 A 
ENDBRANCH   5  17
TORSDOF 4
ENDMDL
MODEL 3
REMARK VINA RESULT:      -7.9      2.620      8.144
REMARK  4 active torsions:
REMARK  status: ('A' for Active; 'I' for Inactive)
REMARK    1  A    between atoms: O_2  and  C_3 
REMARK    2  A    between atoms: C_5  and  N_6 
REMARK    3  A    between atoms: C_10  and  C_11 
REMARK    4  A    between atoms: C_22  and  O_23 
ROOT
HETATM    1  N   UNL     1      43.248 -12.803   4.901  1.00  0.00    -0.315 N 
HETATM    2  C   UNL     1      43.301 -12.561   3.521  1.00  0.00     0.225 C 
HETATM    3  O   UNL     1      43.391 -11.497   2.928  1.00  0.00    -0.273 OA
HETATM    4  C   UNL     1      43.278 -13.900   2.818  1.00  0.00     0.117 C 
HETATM    5  C   UNL     1      42.619 -14.780   3.867  1.00  0.00     0.082 C 
HETATM    6  C   UNL     1      43.204 -14.227   5.158  1.00  0.00     0.145 C 
ENDROOT
BRANCH   1   7
HETATM    7  C   UNL     1      43.187 -11.826   5.935  1.00  0.00     0.073 A 
HETATM    8  C   UNL     1      44.313 -11.607   6.751  1.00  0.00     0.069 A 
HETATM    9  C   UNL     1      44.330 -10.596   7.716  1.00  0.00     0.070 A 
HETATM   10  C   UNL     1      43.194  -9.816   7.912  1.00  0.00     0.039 A 
HETATM   11  C   UNL     1      42.057 -10.024   7.136  1.00  0.00     0.042 A 
HETATM   12  C   UNL     1      42.043 -11.029   6.160  1.00  0.00     0.095 A 
BRANCH   9  13
HETATM   13  O   UNL     1      45.392 -10.272   8.516  1.00  0.00    -0.356 OA
HETATM   14  C   UNL     1      45.832  -8.919   8.460  1.00  0.00     0.210 C 
ENDBRANCH   9  13
BRANCH  12  15
HETATM   15  O   UNL     1      40.915 -11.227   5.404  1.00  0.00    -0.354 OA
HETATM   16  C   UNL     1      39.869 -11.888   6.113  1.00  0.00     0.210 C 
ENDBRANCH  12  15
ENDBRANCH   1   7
BRANCH   5  17
HETATM   17  C   UNL     1      42.844 -16.234   3.671  1.00  0.00     0.111 A 
HETATM   18  N   UNL     1      42.621 -16.936   2.581  1.00  0.00    -0.233 NA
HETATM   19  C   UNL     1      43.079 -18.204   2.853  1.00  0.00     0.085 A 
HETATM   20  C   UNL     1      43.569 -18.284   4.151  1.00  0.00     0.062 A 
HETATM   21  C   UNL     1      43.123 -19.340   2.034  1.00  0.00     0.034 A 
HETATM   22  N   UNL     1      43.386 -17.024   4.657  1.00  0.00    -0.342 N 
HETATM   23  C   UNL     1      44.112 -19.448   4.697  1.00  0.00     0.032 A 
HETATM   24  H   UNL     1      43.647 -16.720   5.585  1.00  0.00     0.167 HD
HETATM   25  C   UNL     1      44.155 -20.571   3.862  1.00  0.00     0.002 A 
HETATM   26  C   UNL     1      43.669 -20.521   2.553  1.00  0.00     0.002 A 
ENDBRANCH   5  17
TORSDOF 4
ENDMDL
MODEL 4
REMARK VINA RESULT:      -7.9      4.950      8.283
REMARK  4 active torsions:
REMARK  status: ('A' for Active; 'I' for Inactive)
REMARK    1  A    between atoms: O_2  and  C_3 
REMARK    2  A    between atoms: C_5  and  N_6 
REMARK    3  A    between atoms: C_10  and  C_11 
REMARK    4  A    between atoms: C_22  and  O_23 
ROOT
HETATM    1  N   UNL     1      41.147 -14.041   1.137  1.00  0.00    -0.315 N 
HETATM    2  C   UNL     1      42.137 -13.384   1.883  1.00  0.00     0.225 C 
HETATM    3  O   UNL     1      42.348 -12.186   1.996  1.00  0.00    -0.273 OA
HETATM    4  C   UNL     1      42.936 -14.439   2.615  1.00  0.00     0.117 C 
HETATM    5  C   UNL     1      42.686 -15.662   1.750  1.00  0.00     0.082 C 
HETATM    6  C   UNL     1      41.232 -15.471   1.342  1.00  0.00     0.145 C 
ENDROOT
BRANCH   1   7
HETATM    7  C   UNL     1      40.209 -13.438   0.251  1.00  0.00     0.073 A 
HETATM    8  C   UNL     1      40.223 -13.783  -1.114  1.00  0.00     0.069 A 
HETATM    9  C   UNL     1      39.264 -13.287  -2.002  1.00  0.00     0.070 A 
HETATM   10  C   UNL     1      38.300 -12.393  -1.542  1.00  0.00     0.039 A 
HETATM   11  C   UNL     1      38.276 -12.016  -0.202  1.00  0.00     0.042 A 
HETATM   12  C   UNL     1      39.229 -12.521   0.691  1.00  0.00     0.095 A 
BRANCH   9  13
HETATM   13  O   UNL     1      39.161 -13.607  -3.328  1.00  0.00    -0.356 OA
HETATM   14  C   UNL     1      38.206 -14.608  -3.662  1.00  0.00     0.210 C 
ENDBRANCH   9  13
BRANCH  12  15
HETATM   15  O   UNL     1      39.196 -12.138   2.008  1.00  0.00    -0.354 OA
HETATM   16  C   UNL     1      39.041 -10.731   2.183  1.00  0.00     0.210 C 
ENDBRANCH  12  15
ENDBRANCH   1   7
BRANCH   5  17
HETATM   17  C   UNL     1      42.963 -16.954   2.426  1.00  0.00     0.111 A 
HETATM   18  N   UNL     1      42.982 -18.152   1.882  1.00  0.00    -0.233 NA
HETATM   19  C   UNL     1      43.386 -19.008   2.878  1.00  0.00     0.085 A 
HETATM   20  C   UNL     1      43.592 -18.320   4.068  1.00  0.00     0.062 A 
HETATM   21  C   UNL     1      43.613 -20.390   2.840  1.00  0.00     0.034 A 
HETATM   22  N   UNL     1      43.293 -17.019   3.760  1.00  0.00    -0.342 N 
HETATM   23  C   UNL     1      44.021 -18.933   5.246  1.00  0.00     0.032 A 
HETATM   24  H   UNL     1      43.350 -16.236   4.396  1.00  0.00     0.167 HD
HETATM   25  C   UNL     1      44.250 -20.312   5.187  1.00  0.00     0.002 A 
HETATM   26  C   UNL     1      44.051 -21.032   4.006  1.00  0.00     0.002 A 
ENDBRANCH   5  17
TORSDOF 4
ENDMDL
MODEL 5
REMARK VINA RESULT:      -7.8      3.836      6.863
REMARK  4 active torsions:
REMARK  status: ('A' for Active; 'I' for Inactive)
REMARK    1  A    between atoms: O_2  and  C_3 
REMARK    2  A    between atoms: C_5  and  N_6 
REMARK    3  A    between atoms: C_10  and  C_11 
REMARK    4  A    between atoms: C_22  and  O_23 
ROOT
HETATM    1  N   UNL     1      41.712 -16.037   2.742  1.00  0.00    -0.315 N 
HETATM    2  C   UNL     1      40.440 -15.742   3.254  1.00  0.00     0.225 C 
HETATM    3  O   UNL     1      39.934 -16.092   4.309  1.00  0.00    -0.273 OA
HETATM    4  C   UNL     1      39.748 -14.828   2.267  1.00  0.00     0.117 C 
HETATM    5  C   UNL     1      40.488 -15.156   0.981  1.00  0.00     0.082 C 
HETATM    6  C   UNL     1      41.912 -15.360   1.477  1.00  0.00     0.145 C 
ENDROOT
BRANCH   1   7
HETATM    7  C   UNL     1      42.678 -16.911   3.316  1.00  0.00     0.073 A 
HETATM    8  C   UNL     1      42.919 -18.165   2.722  1.00  0.00     0.069 A 
HETATM    9  C   UNL     1      43.921 -19.017   3.196  1.00  0.00     0.070 A 
HETATM   10  C   UNL     1      44.669 -18.643   4.310  1.00  0.00     0.039 A 
HETATM   11  C   UNL     1      44.438 -17.419   4.932  1.00  0.00     0.042 A 
HETATM   12  C   UNL     1      43.441 -16.560   4.451  1.00  0.00     0.095 A 
BRANCH   9  13
HETATM   13  O   UNL     1      44.267 -20.224   2.654  1.00  0.00    -0.356 OA
HETATM   14  C   UNL     1      43.530 -20.632   1.506  1.00  0.00     0.210 C 
ENDBRANCH   9  13
BRANCH  12  15
HETATM   15  O   UNL     1      43.221 -15.358   5.075  1.00  0.00    -0.354 OA
HETATM   16  C   UNL     1      43.748 -15.305   6.400  1.00  0.00     0.210 C 
ENDBRANCH  12  15
ENDBRANCH   1   7
BRANCH   5  17
HETATM   17  C   UNL     1      40.355 -14.125  -0.078  1.00  0.00     0.111 A 
HETATM   18  N   UNL     1      39.415 -14.038  -0.994  1.00  0.00    -0.233 NA
HETATM   19  C   UNL     1      39.661 -12.868  -1.672  1.00  0.00     0.085 A 
HETATM   20  C   UNL     1      40.795 -12.238  -1.175  1.00  0.00     0.062 A 
HETATM   21  C   UNL     1      38.948 -12.267  -2.718  1.00  0.00     0.034 A 
HETATM   22  N   UNL     1      41.232 -13.070  -0.178  1.00  0.00    -0.342 N 
HETATM   23  C   UNL     1      41.276 -11.022  -1.663  1.00  0.00     0.032 A 
HETATM   24  H   UNL     1      42.037 -12.910   0.411  1.00  0.00     0.167 HD
HETATM   25  C   UNL     1      40.548 -10.433  -2.703  1.00  0.00     0.002 A 
HETATM   26  C   UNL     1      39.403 -11.042  -3.224  1.00  0.00     0.002 A 
ENDBRANCH   5  17
TORSDOF 4
ENDMDL
MODEL 6
REMARK VINA RESULT:      -7.8      2.005      2.825
REMARK  4 active torsions:
REMARK  status: ('A' for Active; 'I' for Inactive)
REMARK    1  A    between atoms: O_2  and  C_3 
REMARK    2  A    between atoms: C_5  and  N_6 
REMARK    3  A    between atoms: C_10  and  C_11 
REMARK    4  A    between atoms: C_22  and  O_23 
ROOT
HETATM    1  N   UNL     1      42.859 -13.312   4.482  1.00  0.00    -0.315 N 
HETATM    2  C   UNL     1      43.269 -12.138   3.834  1.00  0.00     0.225 C 
HETATM    3  O   UNL     1      43.327 -11.899   2.637  1.00  0.00    -0.273 OA
HETATM    4  C   UNL     1      43.609 -11.120   4.899  1.00  0.00     0.117 C 
HETATM    5  C   UNL     1      43.918 -12.016   6.086  1.00  0.00     0.082 C 
HETATM    6  C   UNL     1      42.894 -13.130   5.918  1.00  0.00     0.145 C 
ENDROOT
BRANCH   1   7
HETATM    7  C   UNL     1      42.505 -14.546   3.864  1.00  0.00     0.073 A 
HETATM    8  C   UNL     1      43.412 -15.622   3.894  1.00  0.00     0.069 A 
HETATM    9  C   UNL     1      43.071 -16.878   3.382  1.00  0.00     0.070 A 
HETATM   10  C   UNL     1      41.827 -17.061   2.785  1.00  0.00     0.039 A 
HETATM   11  C   UNL     1      40.919 -16.008   2.720  1.00  0.00     0.042 A 
HETATM   12  C   UNL     1      41.254 -14.752   3.242  1.00  0.00     0.095 A 
BRANCH   9  13
HETATM   13  O   UNL     1      43.860 -17.995   3.416  1.00  0.00    -0.356 OA
HETATM   14  C   UNL     1      43.514 -19.039   2.512  1.00  0.00     0.210 C 
ENDBRANCH   9  13
BRANCH  12  15
HETATM   15  O   UNL     1      40.351 -13.722   3.169  1.00  0.00    -0.354 OA
HETATM   16  C   UNL     1      39.958 -13.410   1.833  1.00  0.00     0.210 C 
ENDBRANCH  12  15
ENDBRANCH   1   7
BRANCH   5  17
HETATM   17  C   UNL     1      43.858 -11.330   7.400  1.00  0.00     0.111 A 
HETATM   18  N   UNL     1      44.789 -11.304   8.331  1.00  0.00    -0.233 NA
HETATM   19  C   UNL     1      44.316 -10.462   9.308  1.00  0.00     0.085 A 
HETATM   20  C   UNL     1      43.054  -9.982   8.979  1.00  0.00     0.062 A 
HETATM   21  C   UNL     1      44.916 -10.045  10.504  1.00  0.00     0.034 A 
HETATM   22  N   UNL     1      42.776 -10.568   7.772  1.00  0.00    -0.342 N 
HETATM   23  C   UNL     1      42.336  -9.094   9.782  1.00  0.00     0.032 A 
HETATM   24  H   UNL     1      41.935 -10.427   7.231  1.00  0.00     0.167 HD
HETATM   25  C   UNL     1      42.954  -8.682  10.969  1.00  0.00     0.002 A 
HETATM   26  C   UNL     1      44.221  -9.148  11.327  1.00  0.00     0.002 A 
ENDBRANCH   5  17
TORSDOF 4
ENDMDL
MODEL 7
REMARK VINA RESULT:      -7.7      4.937      8.279
REMARK  4 active torsions:
REMARK  status: ('A' for Active; 'I' for Inactive)
REMARK    1  A    between atoms: O_2  and  C_3 
REMARK    2  A    between atoms: C_5  and  N_6 
REMARK    3  A    between atoms: C_10  and  C_11 
REMARK    4  A    between atoms: C_22  and  O_23 
ROOT
HETATM    1  N   UNL     1      40.991 -13.498   1.574  1.00  0.00    -0.315 N 
HETATM    2  C   UNL     1      40.289 -13.534   2.788  1.00  0.00     0.225 C 
HETATM    3  O   UNL     1      39.409 -12.789   3.191  1.00  0.00    -0.273 OA
HETATM    4  C   UNL     1      40.777 -14.736   3.566  1.00  0.00     0.117 C 
HETATM    5  C   UNL     1      42.153 -14.951   2.958  1.00  0.00     0.082 C 
HETATM    6  C   UNL     1      41.909 -14.615   1.494  1.00  0.00     0.145 C 
ENDROOT
BRANCH   1   7
HETATM    7  C   UNL     1      40.892 -12.500   0.563  1.00  0.00     0.073 A 
HETATM    8  C   UNL     1      41.497 -11.245   0.766  1.00  0.00     0.069 A 
HETATM    9  C   UNL     1      41.504 -10.268  -0.235  1.00  0.00     0.070 A 
HETATM   10  C   UNL     1      40.859 -10.519  -1.443  1.00  0.00     0.039 A 
HETATM   11  C   UNL     1      40.233 -11.743  -1.663  1.00  0.00     0.042 A 
HETATM   12  C   UNL     1      40.234 -12.726  -0.665  1.00  0.00     0.095 A 
BRANCH   9  13
HETATM   13  O   UNL     1      42.112  -9.045  -0.153  1.00  0.00    -0.356 OA
HETATM   14  C   UNL     1      42.680  -8.542  -1.358  1.00  0.00     0.210 C 
ENDBRANCH   9  13
BRANCH  12  15
HETATM   15  O   UNL     1      39.610 -13.927  -0.894  1.00  0.00    -0.354 OA
HETATM   16  C   UNL     1      39.389 -14.194  -2.278  1.00  0.00     0.210 C 
ENDBRANCH  12  15
ENDBRANCH   1   7
BRANCH   5  17
HETATM   17  C   UNL     1      42.714 -16.306   3.185  1.00  0.00     0.111 A 
HETATM   18  N   UNL     1      43.266 -16.767   4.287  1.00  0.00    -0.233 NA
HETATM   19  C   UNL     1      43.533 -18.093   4.045  1.00  0.00     0.085 A 
HETATM   20  C   UNL     1      43.158 -18.444   2.754  1.00  0.00     0.062 A 
HETATM   21  C   UNL     1      44.082 -19.069   4.887  1.00  0.00     0.034 A 
HETATM   22  N   UNL     1      42.663 -17.284   2.220  1.00  0.00    -0.342 N 
HETATM   23  C   UNL     1      43.299 -19.733   2.236  1.00  0.00     0.032 A 
HETATM   24  H   UNL     1      42.284 -17.180   1.289  1.00  0.00     0.167 HD
HETATM   25  C   UNL     1      43.843 -20.697   3.094  1.00  0.00     0.002 A 
HETATM   26  C   UNL     1      44.229 -20.374   4.397  1.00  0.00     0.002 A 
ENDBRANCH   5  17
TORSDOF 4
ENDMDL
MODEL 8
REMARK VINA RESULT:      -7.5      3.498      7.163
REMARK  4 active torsions:
REMARK  status: ('A' for Active; 'I' for Inactive)
REMARK    1  A    between atoms: O_2  and  C_3 
REMARK    2  A    between atoms: C_5  and  N_6 
REMARK    3  A    between atoms: C_10  and  C_11 
REMARK    4  A    between atoms: C_22  and  O_23 
ROOT
HETATM    1  N   UNL     1      41.488 -14.737   4.323  1.00  0.00    -0.315 N 
HETATM    2  C   UNL     1      40.435 -13.904   4.727  1.00  0.00     0.225 C 
HETATM    3  O   UNL     1      40.154 -13.505   5.846  1.00  0.00    -0.273 OA
HETATM    4  C   UNL     1      39.666 -13.502   3.487  1.00  0.00     0.117 C 
HETATM    5  C   UNL     1      40.017 -14.632   2.534  1.00  0.00     0.082 C 
HETATM    6  C   UNL     1      41.474 -14.902   2.885  1.00  0.00     0.145 C 
ENDROOT
BRANCH   1   7
HETATM    7  C   UNL     1      42.426 -15.393   5.170  1.00  0.00     0.073 A 
HETATM    8  C   UNL     1      42.387 -16.795   5.294  1.00  0.00     0.069 A 
HETATM    9  C   UNL     1      43.344 -17.489   6.041  1.00  0.00     0.070 A 
HETATM   10  C   UNL     1      44.332 -16.779   6.719  1.00  0.00     0.039 A 
HETATM   11  C   UNL     1      44.382 -15.390   6.633  1.00  0.00     0.042 A 
HETATM   12  C   UNL     1      43.431 -14.695   5.876  1.00  0.00     0.095 A 
BRANCH   9  13
HETATM   13  O   UNL     1      43.422 -18.848   6.175  1.00  0.00    -0.356 OA
HETATM   14  C   UNL     1      44.021 -19.554   5.093  1.00  0.00     0.210 C 
ENDBRANCH   9  13
BRANCH  12  15
HETATM   15  O   UNL     1      43.489 -13.326   5.802  1.00  0.00    -0.354 OA
HETATM   16  C   UNL     1      43.866 -12.710   7.033  1.00  0.00     0.210 C 
ENDBRANCH  12  15
ENDBRANCH   1   7
BRANCH   5  17
HETATM   17  C   UNL     1      39.785 -14.316   1.103  1.00  0.00     0.111 A 
HETATM   18  N   UNL     1      39.819 -15.150   0.086  1.00  0.00    -0.233 NA
HETATM   19  C   UNL     1      39.440 -14.416  -1.012  1.00  0.00     0.085 A 
HETATM   20  C   UNL     1      39.194 -13.093  -0.661  1.00  0.00     0.062 A 
HETATM   21  C   UNL     1      39.267 -14.813  -2.345  1.00  0.00     0.034 A 
HETATM   22  N   UNL     1      39.444 -13.051   0.685  1.00  0.00    -0.342 N 
HETATM   23  C   UNL     1      38.778 -12.121  -1.572  1.00  0.00     0.032 A 
HETATM   24  H   UNL     1      39.350 -12.236   1.274  1.00  0.00     0.167 HD
HETATM   25  C   UNL     1      38.604 -12.537  -2.897  1.00  0.00     0.002 A 
HETATM   26  C   UNL     1      38.843 -13.860  -3.281  1.00  0.00     0.002 A 
ENDBRANCH   5  17
TORSDOF 4
ENDMDL
MODEL 9
REMARK VINA RESULT:      -7.4      2.164      3.861
REMARK  4 active torsions:
REMARK  status: ('A' for Active; 'I' for Inactive)
REMARK    1  A    between atoms: O_2  and  C_3 
REMARK    2  A    between atoms: C_5  and  N_6 
REMARK    3  A    between atoms: C_10  and  C_11 
REMARK    4  A    between atoms: C_22  and  O_23 
ROOT
HETATM    1  N   UNL     1      42.973 -13.288   4.840  1.00  0.00    -0.315 N 
HETATM    2  C   UNL     1      43.638 -12.228   4.207  1.00  0.00     0.225 C 
HETATM    3  O   UNL     1      43.900 -12.080   3.023  1.00  0.00    -0.273 OA
HETATM    4  C   UNL     1      43.971 -11.198   5.264  1.00  0.00     0.117 C 
HETATM    5  C   UNL     1      43.974 -12.047   6.524  1.00  0.00     0.082 C 
HETATM    6  C   UNL     1      42.831 -13.017   6.255  1.00  0.00     0.145 C 
ENDROOT
BRANCH   1   7
HETATM    7  C   UNL     1      42.532 -14.499   4.234  1.00  0.00     0.073 A 
HETATM    8  C   UNL     1      41.506 -14.459   3.271  1.00  0.00     0.069 A 
HETATM    9  C   UNL     1      41.105 -15.609   2.584  1.00  0.00     0.070 A 
HETATM   10  C   UNL     1      41.696 -16.832   2.890  1.00  0.00     0.039 A 
HETATM   11  C   UNL     1      42.697 -16.906   3.854  1.00  0.00     0.042 A 
HETATM   12  C   UNL     1      43.108 -15.752   4.535  1.00  0.00     0.095 A 
BRANCH   9  13
HETATM   13  O   UNL     1      40.160 -15.661   1.596  1.00  0.00    -0.356 OA
HETATM   14  C   UNL     1      40.200 -14.615   0.631  1.00  0.00     0.210 C 
ENDBRANCH   9  13
BRANCH  12  15
HETATM   15  O   UNL     1      44.094 -15.839   5.486  1.00  0.00    -0.354 OA
HETATM   16  C   UNL     1      43.931 -16.949   6.368  1.00  0.00     0.210 C 
ENDBRANCH  12  15
ENDBRANCH   1   7
BRANCH   5  17
HETATM   17  C   UNL     1      43.831 -11.272   7.781  1.00  0.00     0.111 A 
HETATM   18  N   UNL     1      44.686 -11.206   8.779  1.00  0.00    -0.233 NA
HETATM   19  C   UNL     1      44.163 -10.289   9.659  1.00  0.00     0.085 A 
HETATM   20  C   UNL     1      42.945  -9.802   9.199  1.00  0.00     0.062 A 
HETATM   21  C   UNL     1      44.678  -9.806  10.869  1.00  0.00     0.034 A 
HETATM   22  N   UNL     1      42.745 -10.462   8.014  1.00  0.00    -0.342 N 
HETATM   23  C   UNL     1      42.192  -8.845   9.881  1.00  0.00     0.032 A 
HETATM   24  H   UNL     1      41.954 -10.338   7.399  1.00  0.00     0.167 HD
HETATM   25  C   UNL     1      42.726  -8.370  11.085  1.00  0.00     0.002 A 
HETATM   26  C   UNL     1      43.948  -8.839  11.573  1.00  0.00     0.002 A 
ENDBRANCH   5  17
TORSDOF 4
ENDMDL
MODEL 10
REMARK VINA RESULT:      -7.4      3.508      8.645
REMARK  4 active torsions:
REMARK  status: ('A' for Active; 'I' for Inactive)
REMARK    1  A    between atoms: O_2  and  C_3 
REMARK    2  A    between atoms: C_5  and  N_6 
REMARK    3  A    between atoms: C_10  and  C_11 
REMARK    4  A    between atoms: C_22  and  O_23 
ROOT
HETATM    1  N   UNL     1      43.124 -10.614   7.399  1.00  0.00    -0.315 N 
HETATM    2  C   UNL     1      42.423  -9.939   6.388  1.00  0.00     0.225 C 
HETATM    3  O   UNL     1      42.036  -8.781   6.362  1.00  0.00    -0.273 OA
HETATM    4  C   UNL     1      42.242 -10.900   5.234  1.00  0.00     0.117 C 
HETATM    5  C   UNL     1      42.355 -12.242   5.937  1.00  0.00     0.082 C 
HETATM    6  C   UNL     1      43.431 -11.965   6.978  1.00  0.00     0.145 C 
ENDROOT
BRANCH   1   7
HETATM    7  C   UNL     1      43.458 -10.108   8.687  1.00  0.00     0.073 A 
HETATM    8  C   UNL     1      42.433  -9.686   9.554  1.00  0.00     0.069 A 
HETATM    9  C   UNL     1      42.708  -9.268  10.860  1.00  0.00     0.070 A 
HETATM   10  C   UNL     1      44.027  -9.221  11.302  1.00  0.00     0.039 A 
HETATM   11  C   UNL     1      45.064  -9.610  10.459  1.00  0.00     0.042 A 
HETATM   12  C   UNL     1      44.790 -10.039   9.154  1.00  0.00     0.095 A 
BRANCH   9  13
HETATM   13  O   UNL     1      41.778  -8.895  11.792  1.00  0.00    -0.356 OA
HETATM   14  C   UNL     1      41.803  -9.604  13.026  1.00  0.00     0.210 C 
ENDBRANCH   9  13
BRANCH  12  15
HETATM   15  O   UNL     1      45.821 -10.418   8.332  1.00  0.00    -0.354 OA
HETATM   16  C   UNL     1      46.575  -9.315   7.829  1.00  0.00     0.210 C 
ENDBRANCH  12  15
ENDBRANCH   1   7
BRANCH   5  17
HETATM   17  C   UNL     1      42.660 -13.379   5.034  1.00  0.00     0.111 A 
HETATM   18  N   UNL     1      42.699 -14.657   5.345  1.00  0.00    -0.233 NA
HETATM   19  C   UNL     1      42.919 -15.322   4.163  1.00  0.00     0.085 A 
HETATM   20  C   UNL     1      43.044 -14.426   3.108  1.00  0.00     0.062 A 
HETATM   21  C   UNL     1      43.010 -16.697   3.907  1.00  0.00     0.034 A 
HETATM   22  N   UNL     1      42.900 -13.196   3.692  1.00  0.00    -0.342 N 
HETATM   23  C   UNL     1      43.258 -14.821   1.786  1.00  0.00     0.032 A 
HETATM   24  H   UNL     1      42.923 -12.310   3.209  1.00  0.00     0.167 HD
HETATM   25  C   UNL     1      43.339 -16.198   1.548  1.00  0.00     0.002 A 
HETATM   26  C   UNL     1      43.217 -17.123   2.588  1.00  0.00     0.002 A 
ENDBRANCH   5  17
TORSDOF 4
ENDMDL
