MODEL 1
REMARK VINA RESULT:      -7.6      0.000      0.000
REMARK  2 active torsions:
REMARK  status: ('A' for Active; 'I' for Inactive)
REMARK    1  A    between atoms: C_2  and  C_3 
REMARK       I    between atoms: C_3  and  N_4 
REMARK    2  A    between atoms: N_4  and  C_5 
ROOT
HETATM    1  C   UNL     1      43.464 -13.725   6.267  1.00  0.00     0.174 A 
HETATM    2  S   UNL     1      42.606 -13.603   4.805  1.00  0.00    -0.050 SA
HETATM    3  C   UNL     1      42.987 -15.242   4.434  1.00  0.00     0.040 A 
HETATM    4  C   UNL     1      43.752 -15.770   5.486  1.00  0.00     0.079 A 
HETATM    5  N   UNL     1      44.009 -14.889   6.524  1.00  0.00    -0.223 NA
HETATM    6  C   UNL     1      42.635 -15.994   3.298  1.00  0.00     0.061 A 
HETATM    7  C   UNL     1      43.095 -17.296   3.277  1.00  0.00     0.106 A 
HETATM    8  C   UNL     1      43.843 -17.834   4.294  1.00  0.00     0.107 A 
HETATM    9  O   UNL     1      44.185 -19.130   4.058  1.00  0.00    -0.323 OA
HETATM   10  C   UNL     1      43.574 -19.345   2.770  1.00  0.00     0.352 A 
HETATM   11  O   UNL     1      42.873 -18.187   2.272  1.00  0.00    -0.323 OA
HETATM   12  C   UNL     1      44.193 -17.110   5.418  1.00  0.00     0.073 A 
ENDROOT
BRANCH   1  13
HETATM   13  N   UNL     1      43.604 -12.684   7.146  1.00  0.00    -0.301 N 
HETATM   14  C   UNL     1      44.560 -11.695   7.146  1.00  0.00     0.264 C 
HETATM   15  O   UNL     1      45.449 -11.575   6.309  1.00  0.00    -0.267 OA
HETATM   16  H   UNL     1      42.911 -12.685   7.882  1.00  0.00     0.171 HD
BRANCH  14  17
HETATM   17  C   UNL     1      44.453 -10.750   8.260  1.00  0.00     0.074 A 
HETATM   18  C   UNL     1      45.441 -10.455   9.188  1.00  0.00     0.026 A 
HETATM   19  C   UNL     1      45.019  -9.496  10.157  1.00  0.00     0.028 A 
HETATM   20  C   UNL     1      43.729  -9.098   9.926  1.00  0.00     0.052 A 
HETATM   21  S   UNL     1      43.026  -9.848   8.581  1.00  0.00    -0.077 SA
HETATM   22 BR   UNL     1      42.824  -7.850  10.989  1.00  0.00    -0.043 Br
ENDBRANCH  14  17
ENDBRANCH   1  13
TORSDOF 2
ENDMDL
MODEL 2
REMARK VINA RESULT:      -7.2      0.993      1.074
REMARK  2 active torsions:
REMARK  status: ('A' for Active; 'I' for Inactive)
REMARK    1  A    between atoms: C_2  and  C_3 
REMARK       I    between atoms: C_3  and  N_4 
REMARK    2  A    between atoms: N_4  and  C_5 
ROOT
HETATM    1  C   UNL     1      43.245 -12.822   6.500  1.00  0.00     0.174 A 
HETATM    2  S   UNL     1      42.811 -12.503   4.889  1.00  0.00    -0.050 SA
HETATM    3  C   UNL     1      43.043 -14.162   4.488  1.00  0.00     0.040 A 
HETATM    4  C   UNL     1      43.435 -14.850   5.647  1.00  0.00     0.079 A 
HETATM    5  N   UNL     1      43.540 -14.066   6.786  1.00  0.00    -0.223 NA
HETATM    6  C   UNL     1      42.891 -14.799   3.243  1.00  0.00     0.061 A 
HETATM    7  C   UNL     1      43.156 -16.155   3.227  1.00  0.00     0.106 A 
HETATM    8  C   UNL     1      43.540 -16.847   4.348  1.00  0.00     0.107 A 
HETATM    9  O   UNL     1      43.748 -18.168   4.097  1.00  0.00    -0.323 OA
HETATM   10  C   UNL     1      43.460 -18.227   2.685  1.00  0.00     0.352 A 
HETATM   11  O   UNL     1      43.075 -16.954   2.128  1.00  0.00    -0.323 OA
HETATM   12  C   UNL     1      43.690 -16.237   5.580  1.00  0.00     0.073 A 
ENDROOT
BRANCH   1  13
HETATM   13  N   UNL     1      43.300 -11.856   7.470  1.00  0.00    -0.301 N 
HETATM   14  C   UNL     1      44.399 -11.153   7.907  1.00  0.00     0.264 C 
HETATM   15  O   UNL     1      45.534 -11.269   7.457  1.00  0.00    -0.267 OA
HETATM   16  H   UNL     1      42.407 -11.675   7.907  1.00  0.00     0.171 HD
BRANCH  14  17
HETATM   17  C   UNL     1      44.123 -10.215   8.998  1.00  0.00     0.074 A 
HETATM   18  C   UNL     1      44.770 -10.161  10.223  1.00  0.00     0.026 A 
HETATM   19  C   UNL     1      44.259  -9.136  11.074  1.00  0.00     0.028 A 
HETATM   20  C   UNL     1      43.244  -8.449  10.461  1.00  0.00     0.052 A 
HETATM   21  S   UNL     1      42.902  -9.009   8.900  1.00  0.00    -0.077 SA
HETATM   22 BR   UNL     1      42.321  -7.031  11.264  1.00  0.00    -0.043 Br
ENDBRANCH  14  17
ENDBRANCH   1  13
TORSDOF 2
ENDMDL
MODEL 3
REMARK VINA RESULT:      -7.2      5.829      7.066
REMARK  2 active torsions:
REMARK  status: ('A' for Active; 'I' for Inactive)
REMARK    1  A    between atoms: C_2  and  C_3 
REMARK       I    between atoms: C_3  and  N_4 
REMARK    2  A    between atoms: N_4  and  C_5 
ROOT
HETATM    1  C   UNL     1      42.583 -14.913   1.951  1.00  0.00     0.174 A 
HETATM    2  S   UNL     1      42.737 -14.753   3.635  1.00  0.00    -0.050 SA
HETATM    3  C   UNL     1      43.145 -16.421   3.765  1.00  0.00     0.040 A 
HETATM    4  C   UNL     1      43.139 -16.983   2.479  1.00  0.00     0.079 A 
HETATM    5  N   UNL     1      42.819 -16.103   1.457  1.00  0.00    -0.223 NA
HETATM    6  C   UNL     1      43.443 -17.170   4.919  1.00  0.00     0.061 A 
HETATM    7  C   UNL     1      43.729 -18.505   4.709  1.00  0.00     0.106 A 
HETATM    8  C   UNL     1      43.730 -19.074   3.461  1.00  0.00     0.107 A 
HETATM    9  O   UNL     1      44.038 -20.400   3.495  1.00  0.00    -0.323 OA
HETATM   10  C   UNL     1      44.223 -20.602   4.911  1.00  0.00     0.352 A 
HETATM   11  O   UNL     1      44.036 -19.401   5.687  1.00  0.00    -0.323 OA
HETATM   12  C   UNL     1      43.444 -18.353   2.317  1.00  0.00     0.073 A 
ENDROOT
BRANCH   1  13
HETATM   13  N   UNL     1      42.225 -13.879   1.127  1.00  0.00    -0.301 N 
HETATM   14  C   UNL     1      40.968 -13.551   0.672  1.00  0.00     0.264 C 
HETATM   15  O   UNL     1      39.934 -14.140   0.971  1.00  0.00    -0.267 OA
HETATM   16  H   UNL     1      43.009 -13.319   0.821  1.00  0.00     0.171 HD
BRANCH  14  17
HETATM   17  C   UNL     1      40.934 -12.403  -0.238  1.00  0.00     0.074 A 
HETATM   18  C   UNL     1      40.748 -12.446  -1.612  1.00  0.00     0.026 A 
HETATM   19  C   UNL     1      40.776 -11.153  -2.214  1.00  0.00     0.028 A 
HETATM   20  C   UNL     1      40.981 -10.177  -1.273  1.00  0.00     0.052 A 
HETATM   21  S   UNL     1      41.136 -10.784   0.300  1.00  0.00    -0.077 SA
HETATM   22 BR   UNL     1      41.081  -8.352  -1.680  1.00  0.00    -0.043 Br
ENDBRANCH  14  17
ENDBRANCH   1  13
TORSDOF 2
ENDMDL
MODEL 4
REMARK VINA RESULT:      -7.0      1.336      2.021
REMARK  2 active torsions:
REMARK  status: ('A' for Active; 'I' for Inactive)
REMARK    1  A    between atoms: C_2  and  C_3 
REMARK       I    between atoms: C_3  and  N_4 
REMARK    2  A    between atoms: N_4  and  C_5 
ROOT
HETATM    1  C   UNL     1      43.260 -14.401   6.179  1.00  0.00     0.174 A 
HETATM    2  S   UNL     1      43.816 -15.757   7.039  1.00  0.00    -0.050 SA
HETATM    3  C   UNL     1      43.686 -16.722   5.618  1.00  0.00     0.040 A 
HETATM    4  C   UNL     1      43.225 -15.911   4.569  1.00  0.00     0.079 A 
HETATM    5  N   UNL     1      42.992 -14.588   4.911  1.00  0.00    -0.223 NA
HETATM    6  C   UNL     1      43.969 -18.090   5.451  1.00  0.00     0.061 A 
HETATM    7  C   UNL     1      43.761 -18.594   4.182  1.00  0.00     0.106 A 
HETATM    8  C   UNL     1      43.312 -17.820   3.142  1.00  0.00     0.107 A 
HETATM    9  O   UNL     1      43.180 -18.527   1.987  1.00  0.00    -0.323 OA
HETATM   10  C   UNL     1      43.589 -19.840   2.422  1.00  0.00     0.352 A 
HETATM   11  O   UNL     1      43.968 -19.888   3.812  1.00  0.00    -0.323 OA
HETATM   12  C   UNL     1      43.033 -16.474   3.288  1.00  0.00     0.073 A 
ENDROOT
BRANCH   1  13
HETATM   13  N   UNL     1      43.083 -13.169   6.751  1.00  0.00    -0.301 N 
HETATM   14  C   UNL     1      44.025 -12.188   6.963  1.00  0.00     0.264 C 
HETATM   15  O   UNL     1      45.205 -12.261   6.635  1.00  0.00    -0.267 OA
HETATM   16  H   UNL     1      42.135 -13.000   7.056  1.00  0.00     0.171 HD
BRANCH  14  17
HETATM   17  C   UNL     1      43.513 -10.995   7.643  1.00  0.00     0.074 A 
HETATM   18  C   UNL     1      42.517 -10.147   7.182  1.00  0.00     0.026 A 
HETATM   19  C   UNL     1      42.254  -9.067   8.076  1.00  0.00     0.028 A 
HETATM   20  C   UNL     1      43.058  -9.138   9.184  1.00  0.00     0.052 A 
HETATM   21  S   UNL     1      44.110 -10.465   9.165  1.00  0.00    -0.077 SA
HETATM   22 BR   UNL     1      43.007  -7.893  10.582  1.00  0.00    -0.043 Br
ENDBRANCH  14  17
ENDBRANCH   1  13
TORSDOF 2
ENDMDL
MODEL 5
REMARK VINA RESULT:      -7.0      2.022      2.410
REMARK  2 active torsions:
REMARK  status: ('A' for Active; 'I' for Inactive)
REMARK    1  A    between atoms: C_2  and  C_3 
REMARK       I    between atoms: C_3  and  N_4 
REMARK    2  A    between atoms: N_4  and  C_5 
ROOT
HETATM    1  C   UNL     1      43.223 -14.610   4.984  1.00  0.00     0.174 A 
HETATM    2  S   UNL     1      42.828 -14.785   3.341  1.00  0.00    -0.050 SA
HETATM    3  C   UNL     1      43.180 -16.469   3.426  1.00  0.00     0.040 A 
HETATM    4  C   UNL     1      43.573 -16.776   4.738  1.00  0.00     0.079 A 
HETATM    5  N   UNL     1      43.587 -15.701   5.613  1.00  0.00    -0.223 NA
HETATM    6  C   UNL     1      43.114 -17.437   2.408  1.00  0.00     0.061 A 
HETATM    7  C   UNL     1      43.466 -18.721   2.778  1.00  0.00     0.106 A 
HETATM    8  C   UNL     1      43.852 -19.044   4.054  1.00  0.00     0.107 A 
HETATM    9  O   UNL     1      44.153 -20.364   4.188  1.00  0.00    -0.323 OA
HETATM   10  C   UNL     1      43.920 -20.835   2.844  1.00  0.00     0.352 A 
HETATM   11  O   UNL     1      43.475 -19.799   1.946  1.00  0.00    -0.323 OA
HETATM   12  C   UNL     1      43.918 -18.106   5.067  1.00  0.00     0.073 A 
ENDROOT
BRANCH   1  13
HETATM   13  N   UNL     1      43.181 -13.411   5.644  1.00  0.00    -0.301 N 
HETATM   14  C   UNL     1      42.111 -12.557   5.789  1.00  0.00     0.264 C 
HETATM   15  O   UNL     1      40.982 -12.763   5.356  1.00  0.00    -0.267 OA
HETATM   16  H   UNL     1      44.068 -13.144   6.049  1.00  0.00     0.171 HD
BRANCH  14  17
HETATM   17  C   UNL     1      42.415 -11.325   6.521  1.00  0.00     0.074 A 
HETATM   18  C   UNL     1      41.556 -10.257   6.729  1.00  0.00     0.026 A 
HETATM   19  C   UNL     1      42.159  -9.201   7.476  1.00  0.00     0.028 A 
HETATM   20  C   UNL     1      43.451  -9.510   7.809  1.00  0.00     0.052 A 
HETATM   21  S   UNL     1      43.945 -11.028   7.247  1.00  0.00    -0.077 SA
HETATM   22 BR   UNL     1      44.569  -8.370   8.789  1.00  0.00    -0.043 Br
ENDBRANCH  14  17
ENDBRANCH   1  13
TORSDOF 2
ENDMDL
MODEL 6
REMARK VINA RESULT:      -6.8      5.960      8.168
REMARK  2 active torsions:
REMARK  status: ('A' for Active; 'I' for Inactive)
REMARK    1  A    between atoms: C_2  and  C_3 
REMARK       I    between atoms: C_3  and  N_4 
REMARK    2  A    between atoms: N_4  and  C_5 
ROOT
HETATM    1  C   UNL     1      41.320 -14.258   1.480  1.00  0.00     0.174 A 
HETATM    2  S   UNL     1      40.762 -14.114   3.078  1.00  0.00    -0.050 SA
HETATM    3  C   UNL     1      41.731 -15.459   3.547  1.00  0.00     0.040 A 
HETATM    4  C   UNL     1      42.429 -15.919   2.420  1.00  0.00     0.079 A 
HETATM    5  N   UNL     1      42.183 -15.217   1.251  1.00  0.00    -0.223 NA
HETATM    6  C   UNL     1      41.857 -16.057   4.815  1.00  0.00     0.061 A 
HETATM    7  C   UNL     1      42.715 -17.137   4.884  1.00  0.00     0.106 A 
HETATM    8  C   UNL     1      43.408 -17.603   3.796  1.00  0.00     0.107 A 
HETATM    9  O   UNL     1      44.190 -18.675   4.099  1.00  0.00    -0.323 OA
HETATM   10  C   UNL     1      43.903 -18.837   5.503  1.00  0.00     0.352 A 
HETATM   11  O   UNL     1      42.973 -17.858   6.010  1.00  0.00    -0.323 OA
HETATM   12  C   UNL     1      43.299 -17.025   2.545  1.00  0.00     0.073 A 
ENDROOT
BRANCH   1  13
HETATM   13  N   UNL     1      40.907 -13.440   0.462  1.00  0.00    -0.301 N 
HETATM   14  C   UNL     1      40.068 -13.745  -0.586  1.00  0.00     0.264 C 
HETATM   15  O   UNL     1      39.521 -14.829  -0.758  1.00  0.00    -0.267 OA
HETATM   16  H   UNL     1      41.298 -12.509   0.511  1.00  0.00     0.171 HD
BRANCH  14  17
HETATM   17  C   UNL     1      39.861 -12.647  -1.534  1.00  0.00     0.074 A 
HETATM   18  C   UNL     1      38.661 -12.286  -2.128  1.00  0.00     0.026 A 
HETATM   19  C   UNL     1      38.795 -11.176  -3.014  1.00  0.00     0.028 A 
HETATM   20  C   UNL     1      40.092 -10.734  -3.056  1.00  0.00     0.052 A 
HETATM   21  S   UNL     1      41.135 -11.621  -2.061  1.00  0.00    -0.077 SA
HETATM   22 BR   UNL     1      40.661  -9.294  -4.109  1.00  0.00    -0.043 Br
ENDBRANCH  14  17
ENDBRANCH   1  13
TORSDOF 2
ENDMDL
MODEL 7
REMARK VINA RESULT:      -6.7      2.995      3.234
REMARK  2 active torsions:
REMARK  status: ('A' for Active; 'I' for Inactive)
REMARK    1  A    between atoms: C_2  and  C_3 
REMARK       I    between atoms: C_3  and  N_4 
REMARK    2  A    between atoms: N_4  and  C_5 
ROOT
HETATM    1  C   UNL     1      42.346 -11.625   5.953  1.00  0.00     0.174 A 
HETATM    2  S   UNL     1      42.480 -10.910   4.418  1.00  0.00    -0.050 SA
HETATM    3  C   UNL     1      41.745 -12.292   3.699  1.00  0.00     0.040 A 
HETATM    4  C   UNL     1      41.438 -13.212   4.714  1.00  0.00     0.079 A 
HETATM    5  N   UNL     1      41.786 -12.809   5.994  1.00  0.00    -0.223 NA
HETATM    6  C   UNL     1      41.466 -12.538   2.342  1.00  0.00     0.061 A 
HETATM    7  C   UNL     1      40.870 -13.753   2.064  1.00  0.00     0.106 A 
HETATM    8  C   UNL     1      40.561 -14.666   3.040  1.00  0.00     0.107 A 
HETATM    9  O   UNL     1      39.982 -15.790   2.536  1.00  0.00    -0.323 OA
HETATM   10  C   UNL     1      39.970 -15.483   1.127  1.00  0.00     0.352 A 
HETATM   11  O   UNL     1      40.525 -14.187   0.821  1.00  0.00    -0.323 OA
HETATM   12  C   UNL     1      40.824 -14.438   4.378  1.00  0.00     0.073 A 
ENDROOT
BRANCH   1  13
HETATM   13  N   UNL     1      42.793 -11.029   7.102  1.00  0.00    -0.301 N 
HETATM   14  C   UNL     1      43.965 -11.269   7.783  1.00  0.00     0.264 C 
HETATM   15  O   UNL     1      44.832 -12.063   7.434  1.00  0.00    -0.267 OA
HETATM   16  H   UNL     1      42.149 -10.346   7.477  1.00  0.00     0.171 HD
BRANCH  14  17
HETATM   17  C   UNL     1      44.121 -10.486   9.012  1.00  0.00     0.074 A 
HETATM   18  C   UNL     1      45.312 -10.207   9.665  1.00  0.00     0.026 A 
HETATM   19  C   UNL     1      45.125  -9.426  10.844  1.00  0.00     0.028 A 
HETATM   20  C   UNL     1      43.800  -9.139  11.040  1.00  0.00     0.052 A 
HETATM   21  S   UNL     1      42.791  -9.786   9.843  1.00  0.00    -0.077 SA
HETATM   22 BR   UNL     1      43.159  -8.135  12.484  1.00  0.00    -0.043 Br
ENDBRANCH  14  17
ENDBRANCH   1  13
TORSDOF 2
ENDMDL
MODEL 8
REMARK VINA RESULT:      -6.6      3.372      3.828
REMARK  2 active torsions:
REMARK  status: ('A' for Active; 'I' for Inactive)
REMARK    1  A    between atoms: C_2  and  C_3 
REMARK       I    between atoms: C_3  and  N_4 
REMARK    2  A    between atoms: N_4  and  C_5 
ROOT
HETATM    1  C   UNL     1      42.231 -14.235   5.035  1.00  0.00     0.174 A 
HETATM    2  S   UNL     1      43.199 -15.146   6.093  1.00  0.00    -0.050 SA
HETATM    3  C   UNL     1      43.250 -16.435   4.952  1.00  0.00     0.040 A 
HETATM    4  C   UNL     1      42.512 -16.056   3.819  1.00  0.00     0.079 A 
HETATM    5  N   UNL     1      41.942 -14.795   3.887  1.00  0.00    -0.223 NA
HETATM    6  C   UNL     1      43.893 -17.682   5.057  1.00  0.00     0.061 A 
HETATM    7  C   UNL     1      43.750 -18.522   3.970  1.00  0.00     0.106 A 
HETATM    8  C   UNL     1      43.035 -18.173   2.852  1.00  0.00     0.107 A 
HETATM    9  O   UNL     1      43.029 -19.155   1.911  1.00  0.00    -0.323 OA
HETATM   10  C   UNL     1      43.817 -20.169   2.567  1.00  0.00     0.352 A 
HETATM   11  O   UNL     1      44.286 -19.770   3.872  1.00  0.00    -0.323 OA
HETATM   12  C   UNL     1      42.401 -16.950   2.731  1.00  0.00     0.073 A 
ENDROOT
BRANCH   1  13
HETATM   13  N   UNL     1      41.755 -12.987   5.338  1.00  0.00    -0.301 N 
HETATM   14  C   UNL     1      40.536 -12.650   5.881  1.00  0.00     0.264 C 
HETATM   15  O   UNL     1      39.669 -13.451   6.216  1.00  0.00    -0.267 OA
HETATM   16  H   UNL     1      42.400 -12.244   5.104  1.00  0.00     0.171 HD
BRANCH  14  17
HETATM   17  C   UNL     1      40.321 -11.210   6.038  1.00  0.00     0.074 A 
HETATM   18  C   UNL     1      41.233 -10.289   6.534  1.00  0.00     0.026 A 
HETATM   19  C   UNL     1      40.714  -8.961   6.569  1.00  0.00     0.028 A 
HETATM   20  C   UNL     1      39.429  -8.923   6.095  1.00  0.00     0.052 A 
HETATM   21  S   UNL     1      38.845 -10.438   5.616  1.00  0.00    -0.077 SA
HETATM   22 BR   UNL     1      38.411  -7.354   5.987  1.00  0.00    -0.043 Br
ENDBRANCH  14  17
ENDBRANCH   1  13
TORSDOF 2
ENDMDL
MODEL 9
REMARK VINA RESULT:      -6.5      3.184      3.459
REMARK  2 active torsions:
REMARK  status: ('A' for Active; 'I' for Inactive)
REMARK    1  A    between atoms: C_2  and  C_3 
REMARK       I    between atoms: C_3  and  N_4 
REMARK    2  A    between atoms: N_4  and  C_5 
ROOT
HETATM    1  C   UNL     1      41.632 -13.840   4.487  1.00  0.00     0.174 A 
HETATM    2  S   UNL     1      40.927 -14.442   3.063  1.00  0.00    -0.050 SA
HETATM    3  C   UNL     1      41.886 -15.868   3.181  1.00  0.00     0.040 A 
HETATM    4  C   UNL     1      42.684 -15.775   4.332  1.00  0.00     0.079 A 
HETATM    5  N   UNL     1      42.519 -14.610   5.065  1.00  0.00    -0.223 NA
HETATM    6  C   UNL     1      41.927 -16.979   2.317  1.00  0.00     0.061 A 
HETATM    7  C   UNL     1      42.810 -17.980   2.671  1.00  0.00     0.106 A 
HETATM    8  C   UNL     1      43.598 -17.911   3.792  1.00  0.00     0.107 A 
HETATM    9  O   UNL     1      44.389 -19.008   3.940  1.00  0.00    -0.323 OA
HETATM   10  C   UNL     1      44.015 -19.774   2.777  1.00  0.00     0.352 A 
HETATM   11  O   UNL     1      43.006 -19.131   1.971  1.00  0.00    -0.323 OA
HETATM   12  C   UNL     1      43.567 -16.829   4.653  1.00  0.00     0.073 A 
ENDROOT
BRANCH   1  13
HETATM   13  N   UNL     1      41.318 -12.619   5.023  1.00  0.00    -0.301 N 
HETATM   14  C   UNL     1      40.350 -12.325   5.956  1.00  0.00     0.264 C 
HETATM   15  O   UNL     1      39.613 -13.146   6.490  1.00  0.00    -0.267 OA
HETATM   16  H   UNL     1      41.876 -11.863   4.652  1.00  0.00     0.171 HD
BRANCH  14  17
HETATM   17  C   UNL     1      40.243 -10.901   6.287  1.00  0.00     0.074 A 
HETATM   18  C   UNL     1      39.086 -10.137   6.275  1.00  0.00     0.026 A 
HETATM   19  C   UNL     1      39.318  -8.777   6.639  1.00  0.00     0.028 A 
HETATM   20  C   UNL     1      40.642  -8.561   6.916  1.00  0.00     0.052 A 
HETATM   21  S   UNL     1      41.597  -9.949   6.748  1.00  0.00    -0.077 SA
HETATM   22 BR   UNL     1      41.336  -6.899   7.429  1.00  0.00    -0.043 Br
ENDBRANCH  14  17
ENDBRANCH   1  13
TORSDOF 2
ENDMDL
MODEL 10
REMARK VINA RESULT:      -6.4      5.056      8.672
REMARK  2 active torsions:
REMARK  status: ('A' for Active; 'I' for Inactive)
REMARK    1  A    between atoms: C_2  and  C_3 
REMARK       I    between atoms: C_3  and  N_4 
REMARK    2  A    between atoms: N_4  and  C_5 
ROOT
HETATM    1  C   UNL     1      42.132 -11.720   4.621  1.00  0.00     0.174 A 
HETATM    2  S   UNL     1      41.562 -10.212   5.157  1.00  0.00    -0.050 SA
HETATM    3  C   UNL     1      42.654 -10.262   6.488  1.00  0.00     0.040 A 
HETATM    4  C   UNL     1      43.394 -11.452   6.413  1.00  0.00     0.079 A 
HETATM    5  N   UNL     1      43.082 -12.268   5.336  1.00  0.00    -0.223 NA
HETATM    6  C   UNL     1      42.836  -9.319   7.516  1.00  0.00     0.061 A 
HETATM    7  C   UNL     1      43.792  -9.639   8.460  1.00  0.00     0.106 A 
HETATM    8  C   UNL     1      44.528 -10.797   8.406  1.00  0.00     0.107 A 
HETATM    9  O   UNL     1      45.408 -10.902   9.438  1.00  0.00    -0.323 OA
HETATM   10  C   UNL     1      45.136  -9.680  10.155  1.00  0.00     0.352 A 
HETATM   11  O   UNL     1      44.118  -8.870   9.535  1.00  0.00    -0.323 OA
HETATM   12  C   UNL     1      44.365 -11.731   7.400  1.00  0.00     0.073 A 
ENDROOT
BRANCH   1  13
HETATM   13  N   UNL     1      41.643 -12.358   3.512  1.00  0.00    -0.301 N 
HETATM   14  C   UNL     1      40.410 -12.945   3.344  1.00  0.00     0.264 C 
HETATM   15  O   UNL     1      39.517 -12.961   4.185  1.00  0.00    -0.267 OA
HETATM   16  H   UNL     1      42.303 -12.397   2.747  1.00  0.00     0.171 HD
BRANCH  14  17
HETATM   17  C   UNL     1      40.217 -13.586   2.040  1.00  0.00     0.074 A 
HETATM   18  C   UNL     1      40.108 -14.947   1.799  1.00  0.00     0.026 A 
HETATM   19  C   UNL     1      39.936 -15.251   0.416  1.00  0.00     0.028 A 
HETATM   20  C   UNL     1      39.917 -14.108  -0.340  1.00  0.00     0.052 A 
HETATM   21  S   UNL     1      40.101 -12.696   0.575  1.00  0.00    -0.077 SA
HETATM   22 BR   UNL     1      39.711 -14.101  -2.201  1.00  0.00    -0.043 Br
ENDBRANCH  14  17
ENDBRANCH   1  13
TORSDOF 2
ENDMDL
