MODEL 1
REMARK VINA RESULT:     -11.3      0.000      0.000
REMARK  7 active torsions:
REMARK  status: ('A' for Active; 'I' for Inactive)
REMARK    1  A    between atoms: C_2  and  C_3 
REMARK    2  A    between atoms: N_16  and  C_17 
REMARK    3  A    between atoms: C_17  and  C_18 
REMARK       I    between atoms: C_18  and  N_19 
REMARK    4  A    between atoms: N_19  and  C_20 
REMARK    5  A    between atoms: C_21  and  C_22 
REMARK       I    between atoms: C_22  and  N_23 
REMARK    6  A    between atoms: N_23  and  C_24 
REMARK    7  A    between atoms: C_24  and  C_25 
ROOT
HETATM    1  C   UNL     1      41.167 -11.512   4.834  1.00  0.00     0.240 C 
ENDROOT
BRANCH   1   2
HETATM    2  N   UNL     1      41.870 -12.503   4.039  1.00  0.00    -0.259 N 
HETATM    3  C   UNL     1      43.044 -12.263   3.401  1.00  0.00     0.326 A 
HETATM    4  N   UNL     1      43.374 -13.361   2.653  1.00  0.00    -0.321 N 
HETATM    5  O   UNL     1      43.732 -11.262   3.483  1.00  0.00    -0.247 OA
HETATM    6  C   UNL     1      42.352 -14.389   2.676  1.00  0.00     0.140 A 
HETATM    7  H   UNL     1      44.194 -13.368   2.061  1.00  0.00     0.165 HD
HETATM    8  C   UNL     1      41.749 -14.533   1.277  1.00  0.00     0.054 C 
HETATM    9  C   UNL     1      41.338 -13.694   3.622  1.00  0.00     0.261 A 
HETATM   10  O   UNL     1      40.229 -14.119   3.919  1.00  0.00    -0.270 OA
BRANCH   6  11
HETATM   11  C   UNL     1      42.846 -15.711   3.254  1.00  0.00    -0.020 A 
HETATM   12  C   UNL     1      42.791 -16.881   2.469  1.00  0.00     0.022 A 
HETATM   13  C   UNL     1      43.236 -18.125   2.952  1.00  0.00    -0.025 A 
HETATM   14  C   UNL     1      43.746 -18.212   4.264  1.00  0.00    -0.026 A 
HETATM   15  C   UNL     1      43.181 -19.281   2.157  1.00  0.00     0.012 A 
HETATM   16  C   UNL     1      43.796 -17.056   5.054  1.00  0.00     0.013 A 
HETATM   17  C   UNL     1      44.188 -19.455   4.748  1.00  0.00     0.012 A 
HETATM   18  C   UNL     1      43.354 -15.825   4.557  1.00  0.00     0.011 A 
HETATM   19  C   UNL     1      44.129 -20.595   3.944  1.00  0.00     0.001 A 
HETATM   20  C   UNL     1      43.627 -20.508   2.650  1.00  0.00     0.001 A 
ENDBRANCH   6  11
ENDBRANCH   1   2
BRANCH   1  21
HETATM   21  C   UNL     1      42.080 -10.679   5.736  1.00  0.00     0.240 C 
HETATM   22  N   UNL     1      42.736 -11.380   6.742  1.00  0.00    -0.325 N 
HETATM   23  H   UNL     1      42.813 -12.366   6.522  1.00  0.00     0.169 HD
HETATM   24  O   UNL     1      42.147  -9.455   5.603  1.00  0.00    -0.271 OA
BRANCH  22  25
HETATM   25  C   UNL     1      43.907 -10.831   7.327  1.00  0.00     0.050 A 
HETATM   26  C   UNL     1      43.950  -9.988   8.455  1.00  0.00     0.058 A 
HETATM   27  C   UNL     1      45.203  -9.523   8.904  1.00  0.00     0.019 A 
HETATM   28  C   UNL     1      46.388  -9.887   8.263  1.00  0.00     0.001 A 
HETATM   29  C   UNL     1      46.344 -10.750   7.177  1.00  0.00     0.002 A 
HETATM   30  C   UNL     1      45.114 -11.226   6.720  1.00  0.00     0.030 A 
BRANCH  26  31
HETATM   31  C   UNL     1      42.813  -9.671   9.367  1.00  0.00     0.254 C 
HETATM   32  N   UNL     1      42.887 -10.094  10.665  1.00  0.00    -0.351 N 
HETATM   33  H   UNL     1      43.643 -10.719  10.936  1.00  0.00     0.163 HD
HETATM   34  O   UNL     1      41.829  -9.094   8.910  1.00  0.00    -0.268 OA
BRANCH  32  35
HETATM   35  C   UNL     1      41.793  -9.945  11.594  1.00  0.00     0.187 C 
BRANCH  35  36
HETATM   36  C   UNL     1      42.197  -9.025  12.686  1.00  0.00     0.070 A 
HETATM   37  O   UNL     1      41.478  -9.080  13.846  1.00  0.00    -0.325 OA
HETATM   38  C   UNL     1      41.995  -8.138  14.677  1.00  0.00     0.142 A 
HETATM   39  C   UNL     1      43.038  -7.479  14.070  1.00  0.00     0.027 A 
HETATM   40  C   UNL     1      43.173  -8.054  12.785  1.00  0.00     0.036 A 
ENDBRANCH  35  36
ENDBRANCH  32  35
ENDBRANCH  26  31
ENDBRANCH  22  25
ENDBRANCH   1  21
TORSDOF 7
ENDMDL
MODEL 2
REMARK VINA RESULT:     -11.0      1.252      2.265
REMARK  7 active torsions:
REMARK  status: ('A' for Active; 'I' for Inactive)
REMARK    1  A    between atoms: C_2  and  C_3 
REMARK    2  A    between atoms: N_16  and  C_17 
REMARK    3  A    between atoms: C_17  and  C_18 
REMARK       I    between atoms: C_18  and  N_19 
REMARK    4  A    between atoms: N_19  and  C_20 
REMARK    5  A    between atoms: C_21  and  C_22 
REMARK       I    between atoms: C_22  and  N_23 
REMARK    6  A    between atoms: N_23  and  C_24 
REMARK    7  A    between atoms: C_24  and  C_25 
ROOT
HETATM    1  C   UNL     1      41.236 -11.720   5.099  1.00  0.00     0.240 C 
ENDROOT
BRANCH   1   2
HETATM    2  N   UNL     1      41.479 -13.113   5.429  1.00  0.00    -0.259 N 
HETATM    3  C   UNL     1      40.632 -13.869   6.174  1.00  0.00     0.326 A 
HETATM    4  N   UNL     1      41.208 -15.091   6.395  1.00  0.00    -0.321 N 
HETATM    5  O   UNL     1      39.524 -13.557   6.569  1.00  0.00    -0.247 OA
HETATM    6  C   UNL     1      42.558 -15.182   5.876  1.00  0.00     0.140 A 
HETATM    7  H   UNL     1      40.758 -15.789   6.973  1.00  0.00     0.165 HD
HETATM    8  C   UNL     1      43.538 -15.331   7.041  1.00  0.00     0.054 C 
HETATM    9  C   UNL     1      42.673 -13.761   5.265  1.00  0.00     0.261 A 
HETATM   10  O   UNL     1      43.676 -13.282   4.752  1.00  0.00    -0.270 OA
BRANCH   6  11
HETATM   11  C   UNL     1      42.720 -16.266   4.816  1.00  0.00    -0.020 A 
HETATM   12  C   UNL     1      43.306 -17.500   5.161  1.00  0.00     0.022 A 
HETATM   13  C   UNL     1      43.476 -18.534   4.222  1.00  0.00    -0.025 A 
HETATM   14  C   UNL     1      43.055 -18.333   2.892  1.00  0.00    -0.026 A 
HETATM   15  C   UNL     1      44.057 -19.761   4.582  1.00  0.00     0.012 A 
HETATM   16  C   UNL     1      42.479 -17.107   2.538  1.00  0.00     0.013 A 
HETATM   17  C   UNL     1      43.227 -19.365   1.953  1.00  0.00     0.012 A 
HETATM   18  C   UNL     1      42.312 -16.089   3.484  1.00  0.00     0.011 A 
HETATM   19  C   UNL     1      43.805 -20.580   2.327  1.00  0.00     0.001 A 
HETATM   20  C   UNL     1      44.218 -20.778   3.640  1.00  0.00     0.001 A 
ENDBRANCH   6  11
ENDBRANCH   1   2
BRANCH   1  21
HETATM   21  C   UNL     1      42.028 -10.731   5.958  1.00  0.00     0.240 C 
HETATM   22  N   UNL     1      42.623 -11.264   7.097  1.00  0.00    -0.325 N 
HETATM   23  H   UNL     1      42.763 -12.263   7.013  1.00  0.00     0.169 HD
HETATM   24  O   UNL     1      42.052  -9.532   5.673  1.00  0.00    -0.271 OA
BRANCH  22  25
HETATM   25  C   UNL     1      43.711 -10.582   7.700  1.00  0.00     0.050 A 
HETATM   26  C   UNL     1      43.635  -9.731   8.820  1.00  0.00     0.058 A 
HETATM   27  C   UNL     1      44.818  -9.123   9.290  1.00  0.00     0.019 A 
HETATM   28  C   UNL     1      46.050  -9.357   8.676  1.00  0.00     0.001 A 
HETATM   29  C   UNL     1      46.126 -10.227   7.597  1.00  0.00     0.002 A 
HETATM   30  C   UNL     1      44.968 -10.842   7.121  1.00  0.00     0.030 A 
BRANCH  26  31
HETATM   31  C   UNL     1      42.451  -9.538   9.706  1.00  0.00     0.254 C 
HETATM   32  N   UNL     1      42.527  -9.986  10.996  1.00  0.00    -0.351 N 
HETATM   33  H   UNL     1      43.327 -10.550  11.273  1.00  0.00     0.163 HD
HETATM   34  O   UNL     1      41.434  -9.036   9.235  1.00  0.00    -0.268 OA
BRANCH  32  35
HETATM   35  C   UNL     1      41.400  -9.958  11.896  1.00  0.00     0.187 C 
BRANCH  35  36
HETATM   36  C   UNL     1      41.731  -9.113  13.070  1.00  0.00     0.070 A 
HETATM   37  O   UNL     1      40.902  -9.198  14.153  1.00  0.00    -0.325 OA
HETATM   38  C   UNL     1      41.370  -8.323  15.080  1.00  0.00     0.142 A 
HETATM   39  C   UNL     1      42.491  -7.678  14.612  1.00  0.00     0.027 A 
HETATM   40  C   UNL     1      42.727  -8.190  13.315  1.00  0.00     0.036 A 
ENDBRANCH  35  36
ENDBRANCH  32  35
ENDBRANCH  26  31
ENDBRANCH  22  25
ENDBRANCH   1  21
TORSDOF 7
ENDMDL
MODEL 3
REMARK VINA RESULT:     -10.4      3.972      8.653
REMARK  7 active torsions:
REMARK  status: ('A' for Active; 'I' for Inactive)
REMARK    1  A    between atoms: C_2  and  C_3 
REMARK    2  A    between atoms: N_16  and  C_17 
REMARK    3  A    between atoms: C_17  and  C_18 
REMARK       I    between atoms: C_18  and  N_19 
REMARK    4  A    between atoms: N_19  and  C_20 
REMARK    5  A    between atoms: C_21  and  C_22 
REMARK       I    between atoms: C_22  and  N_23 
REMARK    6  A    between atoms: N_23  and  C_24 
REMARK    7  A    between atoms: C_24  and  C_25 
ROOT
HETATM    1  C   UNL     1      40.464 -11.171   4.103  1.00  0.00     0.240 C 
ENDROOT
BRANCH   1   2
HETATM    2  N   UNL     1      41.072 -12.188   4.941  1.00  0.00    -0.259 N 
HETATM    3  C   UNL     1      40.458 -12.743   6.018  1.00  0.00     0.326 A 
HETATM    4  N   UNL     1      41.340 -13.575   6.652  1.00  0.00    -0.321 N 
HETATM    5  O   UNL     1      39.304 -12.576   6.372  1.00  0.00    -0.247 OA
HETATM    6  C   UNL     1      42.667 -13.541   6.069  1.00  0.00     0.140 A 
HETATM    7  H   UNL     1      41.093 -14.052   7.509  1.00  0.00     0.165 HD
HETATM    8  C   UNL     1      43.647 -12.940   7.078  1.00  0.00     0.054 C 
HETATM    9  C   UNL     1      42.397 -12.530   4.924  1.00  0.00     0.261 A 
HETATM   10  O   UNL     1      43.236 -12.082   4.153  1.00  0.00    -0.270 OA
BRANCH   6  11
HETATM   11  C   UNL     1      43.118 -14.895   5.530  1.00  0.00    -0.020 A 
HETATM   12  C   UNL     1      42.563 -15.392   4.334  1.00  0.00     0.022 A 
HETATM   13  C   UNL     1      42.947 -16.633   3.793  1.00  0.00    -0.025 A 
HETATM   14  C   UNL     1      43.910 -17.411   4.467  1.00  0.00    -0.026 A 
HETATM   15  C   UNL     1      42.390 -17.113   2.597  1.00  0.00     0.012 A 
HETATM   16  C   UNL     1      44.461 -16.928   5.661  1.00  0.00     0.013 A 
HETATM   17  C   UNL     1      44.292 -18.651   3.928  1.00  0.00     0.012 A 
HETATM   18  C   UNL     1      44.072 -15.690   6.185  1.00  0.00     0.011 A 
HETATM   19  C   UNL     1      43.729 -19.114   2.737  1.00  0.00     0.001 A 
HETATM   20  C   UNL     1      42.781 -18.346   2.072  1.00  0.00     0.001 A 
ENDBRANCH   6  11
ENDBRANCH   1   2
BRANCH   1  21
HETATM   21  C   UNL     1      39.764 -11.727   2.861  1.00  0.00     0.240 C 
HETATM   22  N   UNL     1      40.581 -11.953   1.758  1.00  0.00    -0.325 N 
HETATM   23  H   UNL     1      41.550 -12.069   2.028  1.00  0.00     0.169 HD
HETATM   24  O   UNL     1      38.541 -11.881   2.847  1.00  0.00    -0.271 OA
BRANCH  22  25
HETATM   25  C   UNL     1      40.156 -12.853   0.747  1.00  0.00     0.050 A 
HETATM   26  C   UNL     1      39.526 -12.501  -0.462  1.00  0.00     0.058 A 
HETATM   27  C   UNL     1      39.160 -13.526  -1.359  1.00  0.00     0.019 A 
HETATM   28  C   UNL     1      39.420 -14.868  -1.076  1.00  0.00     0.001 A 
HETATM   29  C   UNL     1      40.077 -15.207   0.099  1.00  0.00     0.002 A 
HETATM   30  C   UNL     1      40.451 -14.207   0.997  1.00  0.00     0.030 A 
BRANCH  26  31
HETATM   31  C   UNL     1      39.362 -11.121  -1.006  1.00  0.00     0.254 C 
HETATM   32  N   UNL     1      39.976 -10.813  -2.187  1.00  0.00    -0.351 N 
HETATM   33  H   UNL     1      40.629 -11.482  -2.591  1.00  0.00     0.163 HD
HETATM   34  O   UNL     1      38.731 -10.296  -0.349  1.00  0.00    -0.268 OA
BRANCH  32  35
HETATM   35  C   UNL     1      39.981  -9.479  -2.736  1.00  0.00     0.187 C 
BRANCH  35  36
HETATM   36  C   UNL     1      41.252  -8.803  -2.373  1.00  0.00     0.070 A 
HETATM   37  O   UNL     1      41.650  -7.760  -3.160  1.00  0.00    -0.325 OA
HETATM   38  C   UNL     1      42.840  -7.325  -2.669  1.00  0.00     0.142 A 
HETATM   39  C   UNL     1      43.211  -8.071  -1.574  1.00  0.00     0.027 A 
HETATM   40  C   UNL     1      42.184  -9.024  -1.379  1.00  0.00     0.036 A 
ENDBRANCH  35  36
ENDBRANCH  32  35
ENDBRANCH  26  31
ENDBRANCH  22  25
ENDBRANCH   1  21
TORSDOF 7
ENDMDL
MODEL 4
REMARK VINA RESULT:     -10.3      5.009      9.082
REMARK  7 active torsions:
REMARK  status: ('A' for Active; 'I' for Inactive)
REMARK    1  A    between atoms: C_2  and  C_3 
REMARK    2  A    between atoms: N_16  and  C_17 
REMARK    3  A    between atoms: C_17  and  C_18 
REMARK       I    between atoms: C_18  and  N_19 
REMARK    4  A    between atoms: N_19  and  C_20 
REMARK    5  A    between atoms: C_21  and  C_22 
REMARK       I    between atoms: C_22  and  N_23 
REMARK    6  A    between atoms: N_23  and  C_24 
REMARK    7  A    between atoms: C_24  and  C_25 
ROOT
HETATM    1  C   UNL     1      41.263 -11.497   2.096  1.00  0.00     0.240 C 
ENDROOT
BRANCH   1   2
HETATM    2  N   UNL     1      41.423 -12.652   2.960  1.00  0.00    -0.259 N 
HETATM    3  C   UNL     1      40.456 -13.107   3.797  1.00  0.00     0.326 A 
HETATM    4  N   UNL     1      40.965 -14.132   4.548  1.00  0.00    -0.321 N 
HETATM    5  O   UNL     1      39.305 -12.715   3.871  1.00  0.00    -0.247 OA
HETATM    6  C   UNL     1      42.378 -14.356   4.312  1.00  0.00     0.140 A 
HETATM    7  H   UNL     1      40.416 -14.579   5.271  1.00  0.00     0.165 HD
HETATM    8  C   UNL     1      43.161 -14.017   5.583  1.00  0.00     0.054 C 
HETATM    9  C   UNL     1      42.615 -13.266   3.235  1.00  0.00     0.261 A 
HETATM   10  O   UNL     1      43.695 -12.975   2.738  1.00  0.00    -0.270 OA
BRANCH   6  11
HETATM   11  C   UNL     1      42.681 -15.752   3.778  1.00  0.00    -0.020 A 
HETATM   12  C   UNL     1      43.157 -16.748   4.653  1.00  0.00     0.022 A 
HETATM   13  C   UNL     1      43.449 -18.052   4.212  1.00  0.00    -0.025 A 
HETATM   14  C   UNL     1      43.269 -18.376   2.852  1.00  0.00    -0.026 A 
HETATM   15  C   UNL     1      43.917 -19.037   5.098  1.00  0.00     0.012 A 
HETATM   16  C   UNL     1      42.805 -17.389   1.973  1.00  0.00     0.013 A 
HETATM   17  C   UNL     1      43.563 -19.677   2.411  1.00  0.00     0.012 A 
HETATM   18  C   UNL     1      42.514 -16.098   2.428  1.00  0.00     0.011 A 
HETATM   19  C   UNL     1      44.026 -20.645   3.304  1.00  0.00     0.001 A 
HETATM   20  C   UNL     1      44.202 -20.326   4.646  1.00  0.00     0.001 A 
ENDBRANCH   6  11
ENDBRANCH   1   2
BRANCH   1  21
HETATM   21  C   UNL     1      40.517 -11.794   0.793  1.00  0.00     0.240 C 
HETATM   22  N   UNL     1      41.099 -12.753  -0.029  1.00  0.00    -0.325 N 
HETATM   23  H   UNL     1      41.710 -13.371   0.490  1.00  0.00     0.169 HD
HETATM   24  O   UNL     1      39.511 -11.153   0.486  1.00  0.00    -0.271 OA
BRANCH  22  25
HETATM   25  C   UNL     1      40.305 -13.417  -1.000  1.00  0.00     0.050 A 
HETATM   26  C   UNL     1      39.965 -12.918  -2.272  1.00  0.00     0.058 A 
HETATM   27  C   UNL     1      39.156 -13.708  -3.115  1.00  0.00     0.019 A 
HETATM   28  C   UNL     1      38.700 -14.966  -2.717  1.00  0.00     0.001 A 
HETATM   29  C   UNL     1      39.070 -15.470  -1.478  1.00  0.00     0.002 A 
HETATM   30  C   UNL     1      39.874 -14.706  -0.632  1.00  0.00     0.030 A 
BRANCH  26  31
HETATM   31  C   UNL     1      40.529 -11.701  -2.925  1.00  0.00     0.254 C 
HETATM   32  N   UNL     1      39.937 -10.495  -2.668  1.00  0.00    -0.351 N 
HETATM   33  H   UNL     1      39.060 -10.479  -2.153  1.00  0.00     0.163 HD
HETATM   34  O   UNL     1      41.464 -11.829  -3.711  1.00  0.00    -0.268 OA
BRANCH  32  35
HETATM   35  C   UNL     1      40.326  -9.280  -3.341  1.00  0.00     0.187 C 
BRANCH  35  36
HETATM   36  C   UNL     1      41.368  -8.588  -2.541  1.00  0.00     0.070 A 
HETATM   37  O   UNL     1      41.445  -8.901  -1.213  1.00  0.00    -0.325 OA
HETATM   38  C   UNL     1      42.430  -8.133  -0.682  1.00  0.00     0.142 A 
HETATM   39  C   UNL     1      42.991  -7.331  -1.648  1.00  0.00     0.027 A 
HETATM   40  C   UNL     1      42.309  -7.628  -2.851  1.00  0.00     0.036 A 
ENDBRANCH  35  36
ENDBRANCH  32  35
ENDBRANCH  26  31
ENDBRANCH  22  25
ENDBRANCH   1  21
TORSDOF 7
ENDMDL
MODEL 5
REMARK VINA RESULT:     -10.0      1.448      2.113
REMARK  7 active torsions:
REMARK  status: ('A' for Active; 'I' for Inactive)
REMARK    1  A    between atoms: C_2  and  C_3 
REMARK    2  A    between atoms: N_16  and  C_17 
REMARK    3  A    between atoms: C_17  and  C_18 
REMARK       I    between atoms: C_18  and  N_19 
REMARK    4  A    between atoms: N_19  and  C_20 
REMARK    5  A    between atoms: C_21  and  C_22 
REMARK       I    between atoms: C_22  and  N_23 
REMARK    6  A    between atoms: N_23  and  C_24 
REMARK    7  A    between atoms: C_24  and  C_25 
ROOT
HETATM    1  C   UNL     1      41.802 -12.430   5.065  1.00  0.00     0.240 C 
ENDROOT
BRANCH   1   2
HETATM    2  N   UNL     1      42.182 -13.390   4.045  1.00  0.00    -0.259 N 
HETATM    3  C   UNL     1      43.173 -13.177   3.141  1.00  0.00     0.326 A 
HETATM    4  N   UNL     1      43.198 -14.219   2.255  1.00  0.00    -0.321 N 
HETATM    5  O   UNL     1      43.952 -12.241   3.114  1.00  0.00    -0.247 OA
HETATM    6  C   UNL     1      42.122 -15.167   2.469  1.00  0.00     0.140 A 
HETATM    7  H   UNL     1      43.836 -14.230   1.470  1.00  0.00     0.165 HD
HETATM    8  C   UNL     1      41.173 -15.133   1.268  1.00  0.00     0.054 C 
HETATM    9  C   UNL     1      41.452 -14.493   3.694  1.00  0.00     0.261 A 
HETATM   10  O   UNL     1      40.419 -14.863   4.238  1.00  0.00    -0.270 OA
BRANCH   6  11
HETATM   11  C   UNL     1      42.617 -16.571   2.799  1.00  0.00    -0.020 A 
HETATM   12  C   UNL     1      42.822 -16.942   4.143  1.00  0.00     0.022 A 
HETATM   13  C   UNL     1      43.276 -18.225   4.502  1.00  0.00    -0.025 A 
HETATM   14  C   UNL     1      43.542 -19.170   3.491  1.00  0.00    -0.026 A 
HETATM   15  C   UNL     1      43.469 -18.583   5.846  1.00  0.00     0.012 A 
HETATM   16  C   UNL     1      43.349 -18.807   2.151  1.00  0.00     0.013 A 
HETATM   17  C   UNL     1      43.997 -20.450   3.849  1.00  0.00     0.012 A 
HETATM   18  C   UNL     1      42.894 -17.528   1.810  1.00  0.00     0.011 A 
HETATM   19  C   UNL     1      44.183 -20.792   5.189  1.00  0.00     0.001 A 
HETATM   20  C   UNL     1      43.919 -19.860   6.187  1.00  0.00     0.001 A 
ENDBRANCH   6  11
ENDBRANCH   1   2
BRANCH   1  21
HETATM   21  C   UNL     1      42.911 -12.122   6.073  1.00  0.00     0.240 C 
HETATM   22  N   UNL     1      43.544 -10.894   5.917  1.00  0.00    -0.325 N 
HETATM   23  H   UNL     1      42.963 -10.235   5.414  1.00  0.00     0.169 HD
HETATM   24  O   UNL     1      43.249 -12.962   6.909  1.00  0.00    -0.271 OA
BRANCH  22  25
HETATM   25  C   UNL     1      44.241 -10.322   7.013  1.00  0.00     0.050 A 
HETATM   26  C   UNL     1      43.675  -9.531   8.031  1.00  0.00     0.058 A 
HETATM   27  C   UNL     1      44.515  -9.034   9.048  1.00  0.00     0.019 A 
HETATM   28  C   UNL     1      45.882  -9.317   9.067  1.00  0.00     0.001 A 
HETATM   29  C   UNL     1      46.428 -10.130   8.084  1.00  0.00     0.002 A 
HETATM   30  C   UNL     1      45.612 -10.637   7.072  1.00  0.00     0.030 A 
BRANCH  26  31
HETATM   31  C   UNL     1      42.220  -9.306   8.271  1.00  0.00     0.254 C 
HETATM   32  N   UNL     1      41.809  -9.028   9.545  1.00  0.00    -0.351 N 
HETATM   33  H   UNL     1      42.478  -9.114  10.307  1.00  0.00     0.163 HD
HETATM   34  O   UNL     1      41.437  -9.431   7.332  1.00  0.00    -0.268 OA
BRANCH  32  35
HETATM   35  C   UNL     1      40.416  -8.914   9.905  1.00  0.00     0.187 C 
BRANCH  35  36
HETATM   36  C   UNL     1      40.210  -9.485  11.259  1.00  0.00     0.070 A 
HETATM   37  O   UNL     1      41.038  -9.046  12.253  1.00  0.00    -0.325 OA
HETATM   38  C   UNL     1      40.695  -9.721  13.381  1.00  0.00     0.142 A 
HETATM   39  C   UNL     1      39.656 -10.587  13.128  1.00  0.00     0.027 A 
HETATM   40  C   UNL     1      39.339 -10.432  11.758  1.00  0.00     0.036 A 
ENDBRANCH  35  36
ENDBRANCH  32  35
ENDBRANCH  26  31
ENDBRANCH  22  25
ENDBRANCH   1  21
TORSDOF 7
ENDMDL
MODEL 6
REMARK VINA RESULT:     -10.0      2.417      4.387
REMARK  7 active torsions:
REMARK  status: ('A' for Active; 'I' for Inactive)
REMARK    1  A    between atoms: C_2  and  C_3 
REMARK    2  A    between atoms: N_16  and  C_17 
REMARK    3  A    between atoms: C_17  and  C_18 
REMARK       I    between atoms: C_18  and  N_19 
REMARK    4  A    between atoms: N_19  and  C_20 
REMARK    5  A    between atoms: C_21  and  C_22 
REMARK       I    between atoms: C_22  and  N_23 
REMARK    6  A    between atoms: N_23  and  C_24 
REMARK    7  A    between atoms: C_24  and  C_25 
ROOT
HETATM    1  C   UNL     1      42.714 -13.908   6.215  1.00  0.00     0.240 C 
ENDROOT
BRANCH   1   2
HETATM    2  N   UNL     1      41.770 -14.065   5.123  1.00  0.00    -0.259 N 
HETATM    3  C   UNL     1      40.427 -13.917   5.261  1.00  0.00     0.326 A 
HETATM    4  N   UNL     1      39.822 -14.245   4.078  1.00  0.00    -0.321 N 
HETATM    5  O   UNL     1      39.829 -13.527   6.247  1.00  0.00    -0.247 OA
HETATM    6  C   UNL     1      40.753 -14.743   3.085  1.00  0.00     0.140 A 
HETATM    7  H   UNL     1      38.814 -14.247   3.984  1.00  0.00     0.165 HD
HETATM    8  C   UNL     1      40.449 -16.216   2.801  1.00  0.00     0.054 C 
HETATM    9  C   UNL     1      42.063 -14.621   3.907  1.00  0.00     0.261 A 
HETATM   10  O   UNL     1      43.172 -14.994   3.545  1.00  0.00    -0.270 OA
BRANCH   6  11
HETATM   11  C   UNL     1      40.798 -13.887   1.824  1.00  0.00    -0.020 A 
HETATM   12  C   UNL     1      40.334 -14.415   0.603  1.00  0.00     0.022 A 
HETATM   13  C   UNL     1      40.350 -13.667  -0.588  1.00  0.00    -0.025 A 
HETATM   14  C   UNL     1      40.852 -12.350  -0.568  1.00  0.00    -0.026 A 
HETATM   15  C   UNL     1      39.878 -14.205  -1.797  1.00  0.00     0.012 A 
HETATM   16  C   UNL     1      41.324 -11.820   0.640  1.00  0.00     0.013 A 
HETATM   17  C   UNL     1      40.871 -11.603  -1.758  1.00  0.00     0.012 A 
HETATM   18  C   UNL     1      41.297 -12.575   1.817  1.00  0.00     0.011 A 
HETATM   19  C   UNL     1      40.397 -12.152  -2.952  1.00  0.00     0.001 A 
HETATM   20  C   UNL     1      39.900 -13.450  -2.970  1.00  0.00     0.001 A 
ENDBRANCH   6  11
ENDBRANCH   1   2
BRANCH   1  21
HETATM   21  C   UNL     1      43.124 -12.457   6.477  1.00  0.00     0.240 C 
HETATM   22  N   UNL     1      43.578 -12.182   7.762  1.00  0.00    -0.325 N 
HETATM   23  H   UNL     1      43.917 -13.015   8.226  1.00  0.00     0.169 HD
HETATM   24  O   UNL     1      42.976 -11.597   5.607  1.00  0.00    -0.271 OA
BRANCH  22  25
HETATM   25  C   UNL     1      44.381 -11.034   7.989  1.00  0.00     0.050 A 
HETATM   26  C   UNL     1      43.987  -9.873   8.682  1.00  0.00     0.058 A 
HETATM   27  C   UNL     1      44.911  -8.815   8.811  1.00  0.00     0.019 A 
HETATM   28  C   UNL     1      46.198  -8.903   8.277  1.00  0.00     0.001 A 
HETATM   29  C   UNL     1      46.594 -10.064   7.629  1.00  0.00     0.002 A 
HETATM   30  C   UNL     1      45.697 -11.124   7.496  1.00  0.00     0.030 A 
BRANCH  26  31
HETATM   31  C   UNL     1      42.738  -9.699   9.479  1.00  0.00     0.254 C 
HETATM   32  N   UNL     1      42.772 -10.006  10.811  1.00  0.00    -0.351 N 
HETATM   33  H   UNL     1      43.598 -10.464  11.189  1.00  0.00     0.163 HD
HETATM   34  O   UNL     1      41.713  -9.341   8.905  1.00  0.00    -0.268 OA
BRANCH  32  35
HETATM   35  C   UNL     1      41.593  -9.988  11.642  1.00  0.00     0.187 C 
BRANCH  35  36
HETATM   36  C   UNL     1      41.852  -9.156  12.844  1.00  0.00     0.070 A 
HETATM   37  O   UNL     1      40.956  -9.249  13.871  1.00  0.00    -0.325 OA
HETATM   38  C   UNL     1      41.368  -8.384  14.835  1.00  0.00     0.142 A 
HETATM   39  C   UNL     1      42.517  -7.738  14.444  1.00  0.00     0.027 A 
HETATM   40  C   UNL     1      42.834  -8.239  13.159  1.00  0.00     0.036 A 
ENDBRANCH  35  36
ENDBRANCH  32  35
ENDBRANCH  26  31
ENDBRANCH  22  25
ENDBRANCH   1  21
TORSDOF 7
ENDMDL
MODEL 7
REMARK VINA RESULT:      -9.9      2.185      3.798
REMARK  7 active torsions:
REMARK  status: ('A' for Active; 'I' for Inactive)
REMARK    1  A    between atoms: C_2  and  C_3 
REMARK    2  A    between atoms: N_16  and  C_17 
REMARK    3  A    between atoms: C_17  and  C_18 
REMARK       I    between atoms: C_18  and  N_19 
REMARK    4  A    between atoms: N_19  and  C_20 
REMARK    5  A    between atoms: C_21  and  C_22 
REMARK       I    between atoms: C_22  and  N_23 
REMARK    6  A    between atoms: N_23  and  C_24 
REMARK    7  A    between atoms: C_24  and  C_25 
ROOT
HETATM    1  C   UNL     1      42.718 -11.487   6.290  1.00  0.00     0.240 C 
ENDROOT
BRANCH   1   2
HETATM    2  N   UNL     1      42.835 -12.457   5.217  1.00  0.00    -0.259 N 
HETATM    3  C   UNL     1      43.620 -12.281   4.124  1.00  0.00     0.326 A 
HETATM    4  N   UNL     1      43.414 -13.320   3.257  1.00  0.00    -0.321 N 
HETATM    5  O   UNL     1      44.413 -11.377   3.928  1.00  0.00    -0.247 OA
HETATM    6  C   UNL     1      42.370 -14.224   3.698  1.00  0.00     0.140 A 
HETATM    7  H   UNL     1      43.871 -13.353   2.355  1.00  0.00     0.165 HD
HETATM    8  C   UNL     1      41.191 -14.146   2.725  1.00  0.00     0.054 C 
HETATM    9  C   UNL     1      42.002 -13.528   5.034  1.00  0.00     0.261 A 
HETATM   10  O   UNL     1      41.094 -13.858   5.786  1.00  0.00    -0.270 OA
BRANCH   6  11
HETATM   11  C   UNL     1      42.867 -15.648   3.922  1.00  0.00    -0.020 A 
HETATM   12  C   UNL     1      42.673 -16.622   2.922  1.00  0.00     0.022 A 
HETATM   13  C   UNL     1      43.114 -17.949   3.077  1.00  0.00    -0.025 A 
HETATM   14  C   UNL     1      43.764 -18.324   4.271  1.00  0.00    -0.026 A 
HETATM   15  C   UNL     1      42.920 -18.908   2.070  1.00  0.00     0.012 A 
HETATM   16  C   UNL     1      43.954 -17.364   5.274  1.00  0.00     0.013 A 
HETATM   17  C   UNL     1      44.203 -19.650   4.427  1.00  0.00     0.012 A 
HETATM   18  C   UNL     1      43.513 -16.047   5.103  1.00  0.00     0.011 A 
HETATM   19  C   UNL     1      44.004 -20.591   3.415  1.00  0.00     0.001 A 
HETATM   20  C   UNL     1      43.364 -20.220   2.237  1.00  0.00     0.001 A 
ENDBRANCH   6  11
ENDBRANCH   1   2
BRANCH   1  21
HETATM   21  C   UNL     1      41.753 -10.339   5.987  1.00  0.00     0.240 C 
HETATM   22  N   UNL     1      40.609 -10.288   6.777  1.00  0.00    -0.325 N 
HETATM   23  H   UNL     1      40.740 -10.773   7.656  1.00  0.00     0.169 HD
HETATM   24  O   UNL     1      41.967  -9.571   5.047  1.00  0.00    -0.271 OA
BRANCH  22  25
HETATM   25  C   UNL     1      39.896  -9.067   6.897  1.00  0.00     0.050 A 
HETATM   26  C   UNL     1      40.052  -8.116   7.924  1.00  0.00     0.058 A 
HETATM   27  C   UNL     1      39.254  -6.953   7.896  1.00  0.00     0.019 A 
HETATM   28  C   UNL     1      38.330  -6.728   6.874  1.00  0.00     0.001 A 
HETATM   29  C   UNL     1      38.209  -7.649   5.843  1.00  0.00     0.002 A 
HETATM   30  C   UNL     1      38.993  -8.804   5.849  1.00  0.00     0.030 A 
BRANCH  26  31
HETATM   31  C   UNL     1      41.121  -8.103   8.964  1.00  0.00     0.254 C 
HETATM   32  N   UNL     1      42.312  -7.504   8.662  1.00  0.00    -0.351 N 
HETATM   33  H   UNL     1      42.482  -7.206   7.704  1.00  0.00     0.163 HD
HETATM   34  O   UNL     1      40.917  -8.677  10.031  1.00  0.00    -0.268 OA
BRANCH  32  35
HETATM   35  C   UNL     1      43.448  -7.543   9.549  1.00  0.00     0.187 C 
BRANCH  35  36
HETATM   36  C   UNL     1      44.419  -8.553   9.060  1.00  0.00     0.070 A 
HETATM   37  O   UNL     1      45.486  -8.095   8.340  1.00  0.00    -0.325 OA
HETATM   38  C   UNL     1      46.211  -9.183   7.971  1.00  0.00     0.142 A 
HETATM   39  C   UNL     1      45.628 -10.335   8.444  1.00  0.00     0.027 A 
HETATM   40  C   UNL     1      44.472  -9.929   9.152  1.00  0.00     0.036 A 
ENDBRANCH  35  36
ENDBRANCH  32  35
ENDBRANCH  26  31
ENDBRANCH  22  25
ENDBRANCH   1  21
TORSDOF 7
ENDMDL
MODEL 8
REMARK VINA RESULT:      -9.8      2.023      2.764
REMARK  7 active torsions:
REMARK  status: ('A' for Active; 'I' for Inactive)
REMARK    1  A    between atoms: C_2  and  C_3 
REMARK    2  A    between atoms: N_16  and  C_17 
REMARK    3  A    between atoms: C_17  and  C_18 
REMARK       I    between atoms: C_18  and  N_19 
REMARK    4  A    between atoms: N_19  and  C_20 
REMARK    5  A    between atoms: C_21  and  C_22 
REMARK       I    between atoms: C_22  and  N_23 
REMARK    6  A    between atoms: N_23  and  C_24 
REMARK    7  A    between atoms: C_24  and  C_25 
ROOT
HETATM    1  C   UNL     1      41.116 -11.454   4.724  1.00  0.00     0.240 C 
ENDROOT
BRANCH   1   2
HETATM    2  N   UNL     1      41.838 -12.456   3.962  1.00  0.00    -0.259 N 
HETATM    3  C   UNL     1      43.028 -12.225   3.351  1.00  0.00     0.326 A 
HETATM    4  N   UNL     1      43.378 -13.333   2.628  1.00  0.00    -0.321 N 
HETATM    5  O   UNL     1      43.715 -11.223   3.437  1.00  0.00    -0.247 OA
HETATM    6  C   UNL     1      42.355 -14.360   2.639  1.00  0.00     0.140 A 
HETATM    7  H   UNL     1      44.213 -13.348   2.057  1.00  0.00     0.165 HD
HETATM    8  C   UNL     1      41.789 -14.523   1.226  1.00  0.00     0.054 C 
HETATM    9  C   UNL     1      41.317 -13.652   3.548  1.00  0.00     0.261 A 
HETATM   10  O   UNL     1      40.201 -14.073   3.821  1.00  0.00    -0.270 OA
BRANCH   6  11
HETATM   11  C   UNL     1      42.833 -15.674   3.247  1.00  0.00    -0.020 A 
HETATM   12  C   UNL     1      42.810 -16.852   2.473  1.00  0.00     0.022 A 
HETATM   13  C   UNL     1      43.242 -18.089   2.985  1.00  0.00    -0.025 A 
HETATM   14  C   UNL     1      43.706 -18.162   4.314  1.00  0.00    -0.026 A 
HETATM   15  C   UNL     1      43.220 -19.254   2.200  1.00  0.00     0.012 A 
HETATM   16  C   UNL     1      43.724 -16.997   5.093  1.00  0.00     0.013 A 
HETATM   17  C   UNL     1      44.136 -19.398   4.826  1.00  0.00     0.012 A 
HETATM   18  C   UNL     1      43.295 -15.773   4.569  1.00  0.00     0.011 A 
HETATM   19  C   UNL     1      44.109 -20.546   4.033  1.00  0.00     0.001 A 
HETATM   20  C   UNL     1      43.653 -20.474   2.721  1.00  0.00     0.001 A 
ENDBRANCH   6  11
ENDBRANCH   1   2
BRANCH   1  21
HETATM   21  C   UNL     1      42.014 -10.555   5.578  1.00  0.00     0.240 C 
HETATM   22  N   UNL     1      42.661 -11.182   6.637  1.00  0.00    -0.325 N 
HETATM   23  H   UNL     1      42.745 -12.180   6.487  1.00  0.00     0.169 HD
HETATM   24  O   UNL     1      42.077  -9.344   5.360  1.00  0.00    -0.271 OA
BRANCH  22  25
HETATM   25  C   UNL     1      43.822 -10.588   7.197  1.00  0.00     0.050 A 
HETATM   26  C   UNL     1      43.844  -9.510   8.103  1.00  0.00     0.058 A 
HETATM   27  C   UNL     1      45.091  -9.033   8.558  1.00  0.00     0.019 A 
HETATM   28  C   UNL     1      46.289  -9.612   8.137  1.00  0.00     0.001 A 
HETATM   29  C   UNL     1      46.261 -10.699   7.275  1.00  0.00     0.002 A 
HETATM   30  C   UNL     1      45.037 -11.189   6.817  1.00  0.00     0.030 A 
BRANCH  26  31
HETATM   31  C   UNL     1      42.667  -8.917   8.802  1.00  0.00     0.254 C 
HETATM   32  N   UNL     1      42.392  -7.593   8.600  1.00  0.00    -0.351 N 
HETATM   33  H   UNL     1      43.066  -7.024   8.091  1.00  0.00     0.163 HD
HETATM   34  O   UNL     1      42.021  -9.620   9.575  1.00  0.00    -0.268 OA
BRANCH  32  35
HETATM   35  C   UNL     1      41.355  -6.896   9.319  1.00  0.00     0.187 C 
BRANCH  35  36
HETATM   36  C   UNL     1      40.320  -6.432   8.362  1.00  0.00     0.070 A 
HETATM   37  O   UNL     1      39.111  -7.067   8.395  1.00  0.00    -0.325 OA
HETATM   38  C   UNL     1      38.344  -6.510   7.422  1.00  0.00     0.142 A 
HETATM   39  C   UNL     1      39.041  -5.523   6.765  1.00  0.00     0.027 A 
HETATM   40  C   UNL     1      40.316  -5.469   7.374  1.00  0.00     0.036 A 
ENDBRANCH  35  36
ENDBRANCH  32  35
ENDBRANCH  26  31
ENDBRANCH  22  25
ENDBRANCH   1  21
TORSDOF 7
ENDMDL
MODEL 9
REMARK VINA RESULT:      -9.6      1.499      2.070
REMARK  7 active torsions:
REMARK  status: ('A' for Active; 'I' for Inactive)
REMARK    1  A    between atoms: C_2  and  C_3 
REMARK    2  A    between atoms: N_16  and  C_17 
REMARK    3  A    between atoms: C_17  and  C_18 
REMARK       I    between atoms: C_18  and  N_19 
REMARK    4  A    between atoms: N_19  and  C_20 
REMARK    5  A    between atoms: C_21  and  C_22 
REMARK       I    between atoms: C_22  and  N_23 
REMARK    6  A    between atoms: N_23  and  C_24 
REMARK    7  A    between atoms: C_24  and  C_25 
ROOT
HETATM    1  C   UNL     1      40.386 -10.681   3.616  1.00  0.00     0.240 C 
ENDROOT
BRANCH   1   2
HETATM    2  N   UNL     1      40.851 -11.787   2.800  1.00  0.00    -0.259 N 
HETATM    3  C   UNL     1      41.680 -11.642   1.734  1.00  0.00     0.326 A 
HETATM    4  N   UNL     1      41.830 -12.855   1.119  1.00  0.00    -0.321 N 
HETATM    5  O   UNL     1      42.243 -10.623   1.376  1.00  0.00    -0.247 OA
HETATM    6  C   UNL     1      40.999 -13.890   1.703  1.00  0.00     0.140 A 
HETATM    7  H   UNL     1      42.373 -12.954   0.272  1.00  0.00     0.165 HD
HETATM    8  C   UNL     1      39.947 -14.330   0.682  1.00  0.00     0.054 C 
HETATM    9  C   UNL     1      40.332 -13.054   2.826  1.00  0.00     0.261 A 
HETATM   10  O   UNL     1      39.458 -13.447   3.588  1.00  0.00    -0.270 OA
BRANCH   6  11
HETATM   11  C   UNL     1      41.804 -15.054   2.271  1.00  0.00    -0.020 A 
HETATM   12  C   UNL     1      41.753 -15.333   3.652  1.00  0.00     0.022 A 
HETATM   13  C   UNL     1      42.473 -16.396   4.226  1.00  0.00    -0.025 A 
HETATM   14  C   UNL     1      43.280 -17.207   3.402  1.00  0.00    -0.026 A 
HETATM   15  C   UNL     1      42.407 -16.666   5.602  1.00  0.00     0.012 A 
HETATM   16  C   UNL     1      43.344 -16.931   2.029  1.00  0.00     0.013 A 
HETATM   17  C   UNL     1      44.002 -18.267   3.975  1.00  0.00     0.012 A 
HETATM   18  C   UNL     1      42.618 -15.873   1.472  1.00  0.00     0.011 A 
HETATM   19  C   UNL     1      43.924 -18.524   5.345  1.00  0.00     0.001 A 
HETATM   20  C   UNL     1      43.127 -17.725   6.157  1.00  0.00     0.001 A 
ENDBRANCH   6  11
ENDBRANCH   1   2
BRANCH   1  21
HETATM   21  C   UNL     1      41.429 -10.158   4.606  1.00  0.00     0.240 C 
HETATM   22  N   UNL     1      41.798 -11.041   5.615  1.00  0.00    -0.325 N 
HETATM   23  H   UNL     1      41.617 -12.003   5.355  1.00  0.00     0.169 HD
HETATM   24  O   UNL     1      41.838  -8.997   4.531  1.00  0.00    -0.271 OA
BRANCH  22  25
HETATM   25  C   UNL     1      43.032 -10.853   6.290  1.00  0.00     0.050 A 
HETATM   26  C   UNL     1      43.243 -10.029   7.413  1.00  0.00     0.058 A 
HETATM   27  C   UNL     1      44.540  -9.950   7.961  1.00  0.00     0.019 A 
HETATM   28  C   UNL     1      45.604 -10.674   7.420  1.00  0.00     0.001 A 
HETATM   29  C   UNL     1      45.383 -11.515   6.338  1.00  0.00     0.002 A 
HETATM   30  C   UNL     1      44.105 -11.611   5.786  1.00  0.00     0.030 A 
BRANCH  26  31
HETATM   31  C   UNL     1      42.189  -9.357   8.228  1.00  0.00     0.254 C 
HETATM   32  N   UNL     1      42.581  -8.436   9.160  1.00  0.00    -0.351 N 
HETATM   33  H   UNL     1      43.573  -8.333   9.362  1.00  0.00     0.163 HD
HETATM   34  O   UNL     1      41.018  -9.692   8.075  1.00  0.00    -0.268 OA
BRANCH  32  35
HETATM   35  C   UNL     1      41.656  -7.820  10.080  1.00  0.00     0.187 C 
BRANCH  35  36
HETATM   36  C   UNL     1      42.081  -8.111  11.472  1.00  0.00     0.070 A 
HETATM   37  O   UNL     1      41.852  -9.373  11.943  1.00  0.00    -0.325 OA
HETATM   38  C   UNL     1      42.282  -9.399  13.231  1.00  0.00     0.142 A 
HETATM   39  C   UNL     1      42.788  -8.172  13.595  1.00  0.00     0.027 A 
HETATM   40  C   UNL     1      42.662  -7.341  12.458  1.00  0.00     0.036 A 
ENDBRANCH  35  36
ENDBRANCH  32  35
ENDBRANCH  26  31
ENDBRANCH  22  25
ENDBRANCH   1  21
TORSDOF 7
ENDMDL
MODEL 10
REMARK VINA RESULT:      -9.6      4.980     10.236
REMARK  7 active torsions:
REMARK  status: ('A' for Active; 'I' for Inactive)
REMARK    1  A    between atoms: C_2  and  C_3 
REMARK    2  A    between atoms: N_16  and  C_17 
REMARK    3  A    between atoms: C_17  and  C_18 
REMARK       I    between atoms: C_18  and  N_19 
REMARK    4  A    between atoms: N_19  and  C_20 
REMARK    5  A    between atoms: C_21  and  C_22 
REMARK       I    between atoms: C_22  and  N_23 
REMARK    6  A    between atoms: N_23  and  C_24 
REMARK    7  A    between atoms: C_24  and  C_25 
ROOT
HETATM    1  C   UNL     1      41.393 -11.331   2.270  1.00  0.00     0.240 C 
ENDROOT
BRANCH   1   2
HETATM    2  N   UNL     1      41.510 -12.529   3.082  1.00  0.00    -0.259 N 
HETATM    3  C   UNL     1      40.525 -12.988   3.896  1.00  0.00     0.326 A 
HETATM    4  N   UNL     1      40.997 -14.062   4.601  1.00  0.00    -0.321 N 
HETATM    5  O   UNL     1      39.389 -12.559   3.986  1.00  0.00    -0.247 OA
HETATM    6  C   UNL     1      42.402 -14.324   4.358  1.00  0.00     0.140 A 
HETATM    7  H   UNL     1      40.431 -14.522   5.302  1.00  0.00     0.165 HD
HETATM    8  C   UNL     1      43.192 -14.069   5.644  1.00  0.00     0.054 C 
HETATM    9  C   UNL     1      42.680 -13.196   3.332  1.00  0.00     0.261 A 
HETATM   10  O   UNL     1      43.771 -12.920   2.850  1.00  0.00    -0.270 OA
BRANCH   6  11
HETATM   11  C   UNL     1      42.659 -15.704   3.762  1.00  0.00    -0.020 A 
HETATM   12  C   UNL     1      43.157 -16.738   4.580  1.00  0.00     0.022 A 
HETATM   13  C   UNL     1      43.409 -18.029   4.081  1.00  0.00    -0.025 A 
HETATM   14  C   UNL     1      43.164 -18.301   2.720  1.00  0.00    -0.026 A 
HETATM   15  C   UNL     1      43.900 -19.051   4.909  1.00  0.00     0.012 A 
HETATM   16  C   UNL     1      42.677 -17.277   1.897  1.00  0.00     0.013 A 
HETATM   17  C   UNL     1      43.418 -19.590   2.220  1.00  0.00     0.012 A 
HETATM   18  C   UNL     1      42.427 -15.999   2.409  1.00  0.00     0.011 A 
HETATM   19  C   UNL     1      43.904 -20.596   3.057  1.00  0.00     0.001 A 
HETATM   20  C   UNL     1      44.144 -20.327   4.400  1.00  0.00     0.001 A 
ENDBRANCH   6  11
ENDBRANCH   1   2
BRANCH   1  21
HETATM   21  C   UNL     1      40.489 -11.496   1.047  1.00  0.00     0.240 C 
HETATM   22  N   UNL     1      41.058 -12.155  -0.038  1.00  0.00    -0.325 N 
HETATM   23  H   UNL     1      41.833 -12.742   0.244  1.00  0.00     0.169 HD
HETATM   24  O   UNL     1      39.362 -10.999   1.028  1.00  0.00    -0.271 OA
BRANCH  22  25
HETATM   25  C   UNL     1      40.217 -12.747  -1.016  1.00  0.00     0.050 A 
HETATM   26  C   UNL     1      39.627 -12.085  -2.110  1.00  0.00     0.058 A 
HETATM   27  C   UNL     1      38.807 -12.825  -2.987  1.00  0.00     0.019 A 
HETATM   28  C   UNL     1      38.582 -14.190  -2.796  1.00  0.00     0.001 A 
HETATM   29  C   UNL     1      39.197 -14.846  -1.739  1.00  0.00     0.002 A 
HETATM   30  C   UNL     1      40.016 -14.132  -0.863  1.00  0.00     0.030 A 
BRANCH  26  31
HETATM   31  C   UNL     1      39.924 -10.698  -2.570  1.00  0.00     0.254 C 
HETATM   32  N   UNL     1      38.885  -9.924  -3.007  1.00  0.00    -0.351 N 
HETATM   33  H   UNL     1      37.971 -10.353  -3.130  1.00  0.00     0.163 HD
HETATM   34  O   UNL     1      41.092 -10.319  -2.595  1.00  0.00    -0.268 OA
BRANCH  32  35
HETATM   35  C   UNL     1      39.080  -8.616  -3.584  1.00  0.00     0.187 C 
BRANCH  35  36
HETATM   36  C   UNL     1      38.748  -8.663  -5.030  1.00  0.00     0.070 A 
HETATM   37  O   UNL     1      39.783  -8.535  -5.912  1.00  0.00    -0.325 OA
HETATM   38  C   UNL     1      39.247  -8.571  -7.160  1.00  0.00     0.142 A 
HETATM   39  C   UNL     1      37.881  -8.723  -7.094  1.00  0.00     0.027 A 
HETATM   40  C   UNL     1      37.558  -8.787  -5.718  1.00  0.00     0.036 A 
ENDBRANCH  35  36
ENDBRANCH  32  35
ENDBRANCH  26  31
ENDBRANCH  22  25
ENDBRANCH   1  21
TORSDOF 7
ENDMDL
