MODEL 1
REMARK VINA RESULT:      -7.3      0.000      0.000
REMARK  5 active torsions:
REMARK  status: ('A' for Active; 'I' for Inactive)
REMARK    1  A    between atoms: C_2  and  C_3 
REMARK    2  A    between atoms: C_3  and  N_4 
REMARK    3  A    between atoms: C_7  and  C_8 
REMARK    4  A    between atoms: C_8  and  O_9 
REMARK    5  A    between atoms: N_13  and  C_15 
ROOT
HETATM    1  N   UNL     1      41.823 -14.688   2.608  1.00  0.00    -0.067 N 
HETATM    2  H   UNL     1      41.821 -15.473   1.942  1.00  0.00     0.280 HD
HETATM    3  C   UNL     1      40.416 -14.668   3.146  1.00  0.00     0.242 C 
HETATM    4  C   UNL     1      40.004 -13.326   3.809  1.00  0.00     0.044 C 
HETATM    5  C   UNL     1      40.352 -12.072   2.924  1.00  0.00    -0.029 C 
HETATM    6  C   UNL     1      39.441 -12.008   1.655  1.00  0.00     0.037 C 
HETATM    7  C   UNL     1      37.994 -11.578   1.929  1.00  0.00     0.236 C 
HETATM    8  N   UNL     1      37.946 -10.240   2.638  1.00  0.00    -0.067 N 
HETATM    9  H   UNL     1      36.962 -10.115   2.920  1.00  0.00     0.280 HD
HETATM   10  C   UNL     1      38.714 -10.346   3.942  1.00  0.00     0.236 C 
HETATM   11  C   UNL     1      40.172 -10.714   3.670  1.00  0.00     0.037 C 
HETATM   12  C   UNL     1      41.845 -12.194   2.501  1.00  0.00     0.037 C 
HETATM   13  C   UNL     1      42.191 -13.494   1.781  1.00  0.00     0.236 C 
ENDROOT
BRANCH   4  14
HETATM   14  C   UNL     1      40.500 -13.226   5.268  1.00  0.00     0.171 C 
BRANCH  14  15
HETATM   15  O   UNL     1      39.506 -13.742   6.130  1.00  0.00    -0.400 OA
HETATM   16  H   UNL     1      39.893 -14.476   6.649  1.00  0.00     0.209 HD
ENDBRANCH  14  15
ENDBRANCH   4  14
BRANCH   1  17
HETATM   17  C   UNL     1      42.903 -15.132   3.587  1.00  0.00     0.273 C 
BRANCH  17  18
HETATM   18  C   UNL     1      43.207 -16.606   3.505  1.00  0.00    -0.033 A 
HETATM   19  C   UNL     1      42.885 -17.343   2.352  1.00  0.00     0.010 A 
HETATM   20  C   UNL     1      43.136 -18.718   2.295  1.00  0.00     0.024 A 
HETATM   21  C   UNL     1      43.718 -19.364   3.383  1.00  0.00     0.034 A 
HETATM   22  C   UNL     1      44.060 -18.646   4.524  1.00  0.00     0.024 A 
HETATM   23 CL   UNL     1      44.014 -21.054   3.315  1.00  0.00    -0.084 Cl
HETATM   24  C   UNL     1      43.808 -17.272   4.584  1.00  0.00     0.010 A 
ENDBRANCH  17  18
ENDBRANCH   1  17
BRANCH   8  25
HETATM   25  C   UNL     1      38.272  -9.001   1.751  1.00  0.00     0.192 C 
HETATM   26  C   UNL     1      37.386  -8.956   0.496  1.00  0.00     0.059 C 
HETATM   27  C   UNL     1      35.945  -8.599   0.832  1.00  0.00     0.169 C 
HETATM   28  O   UNL     1      35.897  -7.378   1.555  1.00  0.00    -0.391 OA
HETATM   29  C   UNL     1      36.620  -7.384   2.778  1.00  0.00     0.169 C 
HETATM   30  C   UNL     1      38.088  -7.681   2.514  1.00  0.00     0.059 C 
ENDBRANCH   8  25
TORSDOF 5
ENDMDL
MODEL 2
REMARK VINA RESULT:      -7.3      2.817      3.677
REMARK  5 active torsions:
REMARK  status: ('A' for Active; 'I' for Inactive)
REMARK    1  A    between atoms: C_2  and  C_3 
REMARK    2  A    between atoms: C_3  and  N_4 
REMARK    3  A    between atoms: C_7  and  C_8 
REMARK    4  A    between atoms: C_8  and  O_9 
REMARK    5  A    between atoms: N_13  and  C_15 
ROOT
HETATM    1  N   UNL     1      41.642 -14.641   4.885  1.00  0.00    -0.067 N 
HETATM    2  H   UNL     1      41.085 -14.940   5.698  1.00  0.00     0.280 HD
HETATM    3  C   UNL     1      41.332 -13.171   4.758  1.00  0.00     0.242 C 
HETATM    4  C   UNL     1      41.658 -12.567   3.365  1.00  0.00     0.044 C 
HETATM    5  C   UNL     1      41.094 -13.430   2.176  1.00  0.00    -0.029 C 
HETATM    6  C   UNL     1      39.534 -13.355   2.116  1.00  0.00     0.037 C 
HETATM    7  C   UNL     1      38.978 -12.024   1.590  1.00  0.00     0.236 C 
HETATM    8  N   UNL     1      39.539 -11.701   0.220  1.00  0.00    -0.067 N 
HETATM    9  H   UNL     1      39.243 -10.732   0.026  1.00  0.00     0.280 HD
HETATM   10  C   UNL     1      41.052 -11.634   0.312  1.00  0.00     0.236 C 
HETATM   11  C   UNL     1      41.616 -12.976   0.777  1.00  0.00     0.037 C 
HETATM   12  C   UNL     1      41.548 -14.901   2.404  1.00  0.00     0.037 C 
HETATM   13  C   UNL     1      41.138 -15.483   3.753  1.00  0.00     0.236 C 
ENDROOT
BRANCH   4  14
HETATM   14  C   UNL     1      43.152 -12.204   3.228  1.00  0.00     0.171 C 
BRANCH  14  15
HETATM   15  O   UNL     1      43.272 -10.810   3.029  1.00  0.00    -0.400 OA
HETATM   16  H   UNL     1      42.417 -10.466   2.699  1.00  0.00     0.209 HD
ENDBRANCH  14  15
ENDBRANCH   4  14
BRANCH   1  17
HETATM   17  C   UNL     1      43.052 -14.985   5.347  1.00  0.00     0.273 C 
BRANCH  17  18
HETATM   18  C   UNL     1      43.328 -16.467   5.351  1.00  0.00    -0.033 A 
HETATM   19  C   UNL     1      43.020 -17.252   6.476  1.00  0.00     0.010 A 
HETATM   20  C   UNL     1      43.312 -18.620   6.489  1.00  0.00     0.024 A 
HETATM   21  C   UNL     1      43.903 -19.215   5.377  1.00  0.00     0.034 A 
HETATM   22  C   UNL     1      44.197 -18.456   4.248  1.00  0.00     0.024 A 
HETATM   23 CL   UNL     1      44.272 -20.892   5.400  1.00  0.00    -0.084 Cl
HETATM   24  C   UNL     1      43.908 -17.089   4.235  1.00  0.00     0.010 A 
ENDBRANCH  17  18
ENDBRANCH   1  17
BRANCH   8  25
HETATM   25  C   UNL     1      38.962 -12.544  -0.956  1.00  0.00     0.192 C 
HETATM   26  C   UNL     1      37.500 -12.174  -1.252  1.00  0.00     0.059 C 
HETATM   27  C   UNL     1      37.384 -10.802  -1.902  1.00  0.00     0.169 C 
HETATM   28  O   UNL     1      38.190 -10.741  -3.069  1.00  0.00    -0.391 OA
HETATM   29  C   UNL     1      39.573 -10.981  -2.848  1.00  0.00     0.169 C 
HETATM   30  C   UNL     1      39.774 -12.364  -2.248  1.00  0.00     0.059 C 
ENDBRANCH   8  25
TORSDOF 5
ENDMDL
MODEL 3
REMARK VINA RESULT:      -7.3      3.945      9.341
REMARK  5 active torsions:
REMARK  status: ('A' for Active; 'I' for Inactive)
REMARK    1  A    between atoms: C_2  and  C_3 
REMARK    2  A    between atoms: C_3  and  N_4 
REMARK    3  A    between atoms: C_7  and  C_8 
REMARK    4  A    between atoms: C_8  and  O_9 
REMARK    5  A    between atoms: N_13  and  C_15 
ROOT
HETATM    1  N   UNL     1      41.965 -11.822   4.072  1.00  0.00    -0.067 N 
HETATM    2  H   UNL     1      42.118 -11.276   4.932  1.00  0.00     0.280 HD
HETATM    3  C   UNL     1      41.007 -12.904   4.497  1.00  0.00     0.242 C 
HETATM    4  C   UNL     1      40.963 -14.129   3.543  1.00  0.00     0.044 C 
HETATM    5  C   UNL     1      42.393 -14.670   3.174  1.00  0.00    -0.029 C 
HETATM    6  C   UNL     1      43.076 -15.346   4.408  1.00  0.00     0.037 C 
HETATM    7  C   UNL     1      42.506 -16.721   4.780  1.00  0.00     0.236 C 
HETATM    8  N   UNL     1      42.565 -17.673   3.603  1.00  0.00    -0.067 N 
HETATM    9  H   UNL     1      42.022 -18.500   3.894  1.00  0.00     0.280 HD
HETATM   10  C   UNL     1      41.779 -17.078   2.450  1.00  0.00     0.236 C 
HETATM   11  C   UNL     1      42.380 -15.736   2.035  1.00  0.00     0.037 C 
HETATM   12  C   UNL     1      43.245 -13.460   2.691  1.00  0.00     0.037 C 
HETATM   13  C   UNL     1      43.329 -12.311   3.691  1.00  0.00     0.236 C 
ENDROOT
BRANCH   4  14
HETATM   14  C   UNL     1      40.049 -13.880   2.325  1.00  0.00     0.171 C 
BRANCH  14  15
HETATM   15  O   UNL     1      38.721 -13.694   2.773  1.00  0.00    -0.400 OA
HETATM   16  H   UNL     1      38.462 -14.467   3.315  1.00  0.00     0.209 HD
ENDBRANCH  14  15
ENDBRANCH   4  14
BRANCH   1  17
HETATM   17  C   UNL     1      41.396 -10.758   3.142  1.00  0.00     0.273 C 
BRANCH  17  18
HETATM   18  C   UNL     1      40.498  -9.773   3.848  1.00  0.00    -0.033 A 
HETATM   19  C   UNL     1      41.032  -8.820   4.732  1.00  0.00     0.010 A 
HETATM   20  C   UNL     1      40.192  -7.932   5.412  1.00  0.00     0.024 A 
HETATM   21  C   UNL     1      38.815  -7.984   5.207  1.00  0.00     0.034 A 
HETATM   22  C   UNL     1      38.272  -8.908   4.320  1.00  0.00     0.024 A 
HETATM   23 CL   UNL     1      37.784  -6.901   6.052  1.00  0.00    -0.084 Cl
HETATM   24  C   UNL     1      39.110  -9.797   3.641  1.00  0.00     0.010 A 
ENDBRANCH  17  18
ENDBRANCH   1  17
BRANCH   8  25
HETATM   25  C   UNL     1      43.981 -18.222   3.255  1.00  0.00     0.192 C 
HETATM   26  C   UNL     1      44.565 -19.050   4.411  1.00  0.00     0.059 C 
HETATM   27  C   UNL     1      43.856 -20.387   4.565  1.00  0.00     0.169 C 
HETATM   28  O   UNL     1      43.882 -21.102   3.338  1.00  0.00    -0.391 OA
HETATM   29  C   UNL     1      43.270 -20.430   2.246  1.00  0.00     0.169 C 
HETATM   30  C   UNL     1      43.966 -19.100   1.996  1.00  0.00     0.059 C 
ENDBRANCH   8  25
TORSDOF 5
ENDMDL
MODEL 4
REMARK VINA RESULT:      -7.3     10.953     13.450
REMARK  5 active torsions:
REMARK  status: ('A' for Active; 'I' for Inactive)
REMARK    1  A    between atoms: C_2  and  C_3 
REMARK    2  A    between atoms: C_3  and  N_4 
REMARK    3  A    between atoms: C_7  and  C_8 
REMARK    4  A    between atoms: C_8  and  O_9 
REMARK    5  A    between atoms: N_13  and  C_15 
ROOT
HETATM    1  N   UNL     1      42.296  -7.600  15.095  1.00  0.00    -0.067 N 
HETATM    2  H   UNL     1      42.907  -7.849  15.886  1.00  0.00     0.280 HD
HETATM    3  C   UNL     1      41.769  -8.928  14.615  1.00  0.00     0.242 C 
HETATM    4  C   UNL     1      41.202  -8.906  13.170  1.00  0.00     0.044 C 
HETATM    5  C   UNL     1      42.168  -8.208  12.142  1.00  0.00    -0.029 C 
HETATM    6  C   UNL     1      43.444  -9.076  11.891  1.00  0.00     0.037 C 
HETATM    7  C   UNL     1      43.209 -10.322  11.026  1.00  0.00     0.236 C 
HETATM    8  N   UNL     1      42.593  -9.953   9.692  1.00  0.00    -0.067 N 
HETATM    9  H   UNL     1      42.327 -10.850   9.257  1.00  0.00     0.280 HD
HETATM   10  C   UNL     1      41.280  -9.235   9.938  1.00  0.00     0.236 C 
HETATM   11  C   UNL     1      41.516  -7.959  10.747  1.00  0.00     0.037 C 
HETATM   12  C   UNL     1      42.571  -6.828  12.738  1.00  0.00     0.037 C 
HETATM   13  C   UNL     1      43.200  -6.901  14.126  1.00  0.00     0.236 C 
ENDROOT
BRANCH   4  14
HETATM   14  C   UNL     1      39.750  -8.383  13.127  1.00  0.00     0.171 C 
BRANCH  14  15
HETATM   15  O   UNL     1      38.901  -9.412  12.662  1.00  0.00    -0.400 OA
HETATM   16  H   UNL     1      38.944 -10.161  13.291  1.00  0.00     0.209 HD
ENDBRANCH  14  15
ENDBRANCH   4  14
BRANCH   1  17
HETATM   17  C   UNL     1      41.282  -6.691  15.778  1.00  0.00     0.273 C 
BRANCH  17  18
HETATM   18  C   UNL     1      41.129  -6.976  17.251  1.00  0.00    -0.033 A 
HETATM   19  C   UNL     1      42.171  -6.690  18.150  1.00  0.00     0.010 A 
HETATM   20  C   UNL     1      42.038  -6.989  19.510  1.00  0.00     0.024 A 
HETATM   21  C   UNL     1      40.862  -7.565  19.983  1.00  0.00     0.034 A 
HETATM   22  C   UNL     1      39.813  -7.837  19.109  1.00  0.00     0.024 A 
HETATM   23 CL   UNL     1      40.705  -7.943  21.651  1.00  0.00    -0.084 Cl
HETATM   24  C   UNL     1      39.945  -7.541  17.750  1.00  0.00     0.010 A 
ENDBRANCH  17  18
ENDBRANCH   1  17
BRANCH   8  25
HETATM   25  C   UNL     1      43.560  -9.281   8.671  1.00  0.00     0.192 C 
HETATM   26  C   UNL     1      44.798 -10.154   8.407  1.00  0.00     0.059 C 
HETATM   27  C   UNL     1      44.455 -11.390   7.587  1.00  0.00     0.169 C 
HETATM   28  O   UNL     1      43.806 -11.015   6.381  1.00  0.00    -0.391 OA
HETATM   29  C   UNL     1      42.600 -10.285   6.557  1.00  0.00     0.169 C 
HETATM   30  C   UNL     1      42.875  -9.001   7.326  1.00  0.00     0.059 C 
ENDBRANCH   8  25
TORSDOF 5
ENDMDL
MODEL 5
REMARK VINA RESULT:      -7.2      6.177      9.181
REMARK  5 active torsions:
REMARK  status: ('A' for Active; 'I' for Inactive)
REMARK    1  A    between atoms: C_2  and  C_3 
REMARK    2  A    between atoms: C_3  and  N_4 
REMARK    3  A    between atoms: C_7  and  C_8 
REMARK    4  A    between atoms: C_8  and  O_9 
REMARK    5  A    between atoms: N_13  and  C_15 
ROOT
HETATM    1  N   UNL     1      45.025 -10.548   8.416  1.00  0.00    -0.067 N 
HETATM    2  H   UNL     1      45.384 -10.884   9.321  1.00  0.00     0.280 HD
HETATM    3  C   UNL     1      43.594 -11.021   8.399  1.00  0.00     0.242 C 
HETATM    4  C   UNL     1      42.953 -11.064   6.986  1.00  0.00     0.044 C 
HETATM    5  C   UNL     1      43.861 -11.782   5.921  1.00  0.00    -0.029 C 
HETATM    6  C   UNL     1      43.947 -13.319   6.198  1.00  0.00     0.037 C 
HETATM    7  C   UNL     1      42.678 -14.104   5.839  1.00  0.00     0.236 C 
HETATM    8  N   UNL     1      42.291 -13.885   4.391  1.00  0.00    -0.067 N 
HETATM    9  H   UNL     1      41.357 -14.311   4.290  1.00  0.00     0.280 HD
HETATM   10  C   UNL     1      42.069 -12.403   4.159  1.00  0.00     0.236 C 
HETATM   11  C   UNL     1      43.349 -11.622   4.456  1.00  0.00     0.037 C 
HETATM   12  C   UNL     1      45.280 -11.147   6.007  1.00  0.00     0.037 C 
HETATM   13  C   UNL     1      45.909 -11.197   7.396  1.00  0.00     0.236 C 
ENDROOT
BRANCH   4  14
HETATM   14  C   UNL     1      42.437  -9.678   6.543  1.00  0.00     0.171 C 
BRANCH  14  15
HETATM   15  O   UNL     1      41.157  -9.461   7.103  1.00  0.00    -0.400 OA
HETATM   16  H   UNL     1      40.833  -8.585   6.811  1.00  0.00     0.209 HD
ENDBRANCH  14  15
ENDBRANCH   4  14
BRANCH   1  17
HETATM   17  C   UNL     1      45.225  -9.044   8.557  1.00  0.00     0.273 C 
BRANCH  17  18
HETATM   18  C   UNL     1      44.352  -8.427   9.619  1.00  0.00    -0.033 A 
HETATM   19  C   UNL     1      44.301  -8.971  10.914  1.00  0.00     0.010 A 
HETATM   20  C   UNL     1      43.462  -8.416  11.886  1.00  0.00     0.024 A 
HETATM   21  C   UNL     1      42.675  -7.310  11.574  1.00  0.00     0.034 A 
HETATM   22  C   UNL     1      42.727  -6.747  10.303  1.00  0.00     0.024 A 
HETATM   23 CL   UNL     1      41.636  -6.638  12.765  1.00  0.00    -0.084 Cl
HETATM   24  C   UNL     1      43.564  -7.302   9.330  1.00  0.00     0.010 A 
ENDBRANCH  17  18
ENDBRANCH   1  17
BRANCH   8  25
HETATM   25  C   UNL     1      43.182 -14.615   3.342  1.00  0.00     0.192 C 
HETATM   26  C   UNL     1      43.187 -16.136   3.566  1.00  0.00     0.059 C 
HETATM   27  C   UNL     1      41.856 -16.769   3.185  1.00  0.00     0.169 C 
HETATM   28  O   UNL     1      41.517 -16.434   1.848  1.00  0.00    -0.391 OA
HETATM   29  C   UNL     1      41.402 -15.041   1.596  1.00  0.00     0.169 C 
HETATM   30  C   UNL     1      42.719 -14.344   1.903  1.00  0.00     0.059 C 
ENDBRANCH   8  25
TORSDOF 5
ENDMDL
MODEL 6
REMARK VINA RESULT:      -7.0      2.437      2.908
REMARK  5 active torsions:
REMARK  status: ('A' for Active; 'I' for Inactive)
REMARK    1  A    between atoms: C_2  and  C_3 
REMARK    2  A    between atoms: C_3  and  N_4 
REMARK    3  A    between atoms: C_7  and  C_8 
REMARK    4  A    between atoms: C_8  and  O_9 
REMARK    5  A    between atoms: N_13  and  C_15 
ROOT
HETATM    1  N   UNL     1      41.611 -15.490   2.719  1.00  0.00    -0.067 N 
HETATM    2  H   UNL     1      41.543 -16.489   2.477  1.00  0.00     0.280 HD
HETATM    3  C   UNL     1      40.187 -15.003   2.637  1.00  0.00     0.242 C 
HETATM    4  C   UNL     1      40.047 -13.463   2.499  1.00  0.00     0.044 C 
HETATM    5  C   UNL     1      40.980 -12.859   1.384  1.00  0.00    -0.029 C 
HETATM    6  C   UNL     1      40.496 -13.279  -0.043  1.00  0.00     0.037 C 
HETATM    7  C   UNL     1      39.230 -12.558  -0.525  1.00  0.00     0.236 C 
HETATM    8  N   UNL     1      39.410 -11.054  -0.489  1.00  0.00    -0.067 N 
HETATM    9  H   UNL     1      38.473 -10.663  -0.670  1.00  0.00     0.280 HD
HETATM   10  C   UNL     1      39.740 -10.633   0.930  1.00  0.00     0.236 C 
HETATM   11  C   UNL     1      41.034 -11.300   1.395  1.00  0.00     0.037 C 
HETATM   12  C   UNL     1      42.420 -13.393   1.636  1.00  0.00     0.037 C 
HETATM   13  C   UNL     1      42.528 -14.914   1.685  1.00  0.00     0.236 C 
ENDROOT
BRANCH   4  14
HETATM   14  C   UNL     1      40.150 -12.748   3.862  1.00  0.00     0.171 C 
BRANCH  14  15
HETATM   15  O   UNL     1      39.407 -13.472   4.822  1.00  0.00    -0.400 OA
HETATM   16  H   UNL     1      38.799 -12.856   5.278  1.00  0.00     0.209 HD
ENDBRANCH  14  15
ENDBRANCH   4  14
BRANCH   1  17
HETATM   17  C   UNL     1      42.208 -15.564   4.119  1.00  0.00     0.273 C 
BRANCH  17  18
HETATM   18  C   UNL     1      42.855 -16.893   4.418  1.00  0.00    -0.033 A 
HETATM   19  C   UNL     1      43.338 -17.706   3.379  1.00  0.00     0.010 A 
HETATM   20  C   UNL     1      43.905 -18.954   3.658  1.00  0.00     0.024 A 
HETATM   21  C   UNL     1      44.002 -19.393   4.977  1.00  0.00     0.034 A 
HETATM   22  C   UNL     1      43.546 -18.592   6.018  1.00  0.00     0.024 A 
HETATM   23 CL   UNL     1      44.687 -20.931   5.317  1.00  0.00    -0.084 Cl
HETATM   24  C   UNL     1      42.977 -17.346   5.740  1.00  0.00     0.010 A 
ENDBRANCH  17  18
ENDBRANCH   1  17
BRANCH   8  25
HETATM   25  C   UNL     1      40.318 -10.461  -1.607  1.00  0.00     0.192 C 
HETATM   26  C   UNL     1      39.835 -10.876  -3.006  1.00  0.00     0.059 C 
HETATM   27  C   UNL     1      38.543 -10.171  -3.392  1.00  0.00     0.169 C 
HETATM   28  O   UNL     1      38.699  -8.763  -3.283  1.00  0.00    -0.391 OA
HETATM   29  C   UNL     1      39.053  -8.303  -1.987  1.00  0.00     0.169 C 
HETATM   30  C   UNL     1      40.372  -8.926  -1.554  1.00  0.00     0.059 C 
ENDBRANCH   8  25
TORSDOF 5
ENDMDL
MODEL 7
REMARK VINA RESULT:      -7.0      8.869     10.549
REMARK  5 active torsions:
REMARK  status: ('A' for Active; 'I' for Inactive)
REMARK    1  A    between atoms: C_2  and  C_3 
REMARK    2  A    between atoms: C_3  and  N_4 
REMARK    3  A    between atoms: C_7  and  C_8 
REMARK    4  A    between atoms: C_8  and  O_9 
REMARK    5  A    between atoms: N_13  and  C_15 
ROOT
HETATM    1  N   UNL     1      42.517  -8.684   8.732  1.00  0.00    -0.067 N 
HETATM    2  H   UNL     1      41.873  -8.682   7.928  1.00  0.00     0.280 HD
HETATM    3  C   UNL     1      41.854  -9.607   9.722  1.00  0.00     0.242 C 
HETATM    4  C   UNL     1      42.352  -9.441  11.183  1.00  0.00     0.044 C 
HETATM    5  C   UNL     1      42.385  -7.940  11.653  1.00  0.00    -0.029 C 
HETATM    6  C   UNL     1      40.938  -7.370  11.821  1.00  0.00     0.037 C 
HETATM    7  C   UNL     1      40.191  -7.881  13.061  1.00  0.00     0.236 C 
HETATM    8  N   UNL     1      40.979  -7.605  14.326  1.00  0.00    -0.067 N 
HETATM    9  H   UNL     1      40.485  -8.119  15.072  1.00  0.00     0.280 HD
HETATM   10  C   UNL     1      42.332  -8.281  14.219  1.00  0.00     0.236 C 
HETATM   11  C   UNL     1      43.107  -7.732  13.020  1.00  0.00     0.037 C 
HETATM   12  C   UNL     1      43.155  -7.125  10.574  1.00  0.00     0.037 C 
HETATM   13  C   UNL     1      42.584  -7.251   9.164  1.00  0.00     0.236 C 
ENDROOT
BRANCH   4  14
HETATM   14  C   UNL     1      43.665 -10.211  11.437  1.00  0.00     0.171 C 
BRANCH  14  15
HETATM   15  O   UNL     1      43.541 -11.521  10.923  1.00  0.00    -0.400 OA
HETATM   16  H   UNL     1      43.641 -12.157  11.660  1.00  0.00     0.209 HD
ENDBRANCH  14  15
ENDBRANCH   4  14
BRANCH   1  17
HETATM   17  C   UNL     1      43.795  -9.208   8.088  1.00  0.00     0.273 C 
BRANCH  17  18
HETATM   18  C   UNL     1      43.577 -10.455   7.268  1.00  0.00    -0.033 A 
HETATM   19  C   UNL     1      42.585 -10.496   6.273  1.00  0.00     0.010 A 
HETATM   20  C   UNL     1      42.363 -11.666   5.540  1.00  0.00     0.024 A 
HETATM   21  C   UNL     1      43.135 -12.799   5.788  1.00  0.00     0.034 A 
HETATM   22  C   UNL     1      44.133 -12.769   6.757  1.00  0.00     0.024 A 
HETATM   23 CL   UNL     1      42.851 -14.238   4.895  1.00  0.00    -0.084 Cl
HETATM   24  C   UNL     1      44.355 -11.601   7.492  1.00  0.00     0.010 A 
ENDBRANCH  17  18
ENDBRANCH   1  17
BRANCH   8  25
HETATM   25  C   UNL     1      40.990  -6.120  14.797  1.00  0.00     0.192 C 
HETATM   26  C   UNL     1      39.575  -5.522  14.812  1.00  0.00     0.059 C 
HETATM   27  C   UNL     1      38.730  -6.093  15.942  1.00  0.00     0.169 C 
HETATM   28  O   UNL     1      39.390  -5.917  17.187  1.00  0.00    -0.391 OA
HETATM   29  C   UNL     1      40.669  -6.530  17.272  1.00  0.00     0.169 C 
HETATM   30  C   UNL     1      41.591  -5.966  16.202  1.00  0.00     0.059 C 
ENDBRANCH   8  25
TORSDOF 5
ENDMDL
MODEL 8
REMARK VINA RESULT:      -7.0      1.770      2.370
REMARK  5 active torsions:
REMARK  status: ('A' for Active; 'I' for Inactive)
REMARK    1  A    between atoms: C_2  and  C_3 
REMARK    2  A    between atoms: C_3  and  N_4 
REMARK    3  A    between atoms: C_7  and  C_8 
REMARK    4  A    between atoms: C_8  and  O_9 
REMARK    5  A    between atoms: N_13  and  C_15 
ROOT
HETATM    1  N   UNL     1      41.757 -15.006   3.032  1.00  0.00    -0.067 N 
HETATM    2  H   UNL     1      41.376 -15.750   3.634  1.00  0.00     0.280 HD
HETATM    3  C   UNL     1      41.516 -13.746   3.823  1.00  0.00     0.242 C 
HETATM    4  C   UNL     1      41.563 -12.443   2.980  1.00  0.00     0.044 C 
HETATM    5  C   UNL     1      40.699 -12.531   1.667  1.00  0.00    -0.029 C 
HETATM    6  C   UNL     1      39.171 -12.554   1.998  1.00  0.00     0.037 C 
HETATM    7  C   UNL     1      38.595 -11.204   2.445  1.00  0.00     0.236 C 
HETATM    8  N   UNL     1      38.858 -10.127   1.412  1.00  0.00    -0.067 N 
HETATM    9  H   UNL     1      38.586  -9.242   1.864  1.00  0.00     0.280 HD
HETATM   10  C   UNL     1      40.355 -10.009   1.196  1.00  0.00     0.236 C 
HETATM   11  C   UNL     1      40.925 -11.335   0.692  1.00  0.00     0.037 C 
HETATM   12  C   UNL     1      41.102 -13.839   0.925  1.00  0.00     0.037 C 
HETATM   13  C   UNL     1      40.965 -15.106   1.764  1.00  0.00     0.236 C 
ENDROOT
BRANCH   4  14
HETATM   14  C   UNL     1      43.008 -11.953   2.752  1.00  0.00     0.171 C 
BRANCH  14  15
HETATM   15  O   UNL     1      43.150 -10.658   3.300  1.00  0.00    -0.400 OA
HETATM   16  H   UNL     1      42.458 -10.080   2.920  1.00  0.00     0.209 HD
ENDBRANCH  14  15
ENDBRANCH   4  14
BRANCH   1  17
HETATM   17  C   UNL     1      43.210 -15.442   2.903  1.00  0.00     0.273 C 
BRANCH  17  18
HETATM   18  C   UNL     1      43.477 -16.799   3.503  1.00  0.00    -0.033 A 
HETATM   19  C   UNL     1      43.678 -16.946   4.887  1.00  0.00     0.010 A 
HETATM   20  C   UNL     1      43.961 -18.201   5.434  1.00  0.00     0.024 A 
HETATM   21  C   UNL     1      44.036 -19.319   4.606  1.00  0.00     0.034 A 
HETATM   22  C   UNL     1      43.822 -19.194   3.237  1.00  0.00     0.024 A 
HETATM   23 CL   UNL     1      44.396 -20.858   5.279  1.00  0.00    -0.084 Cl
HETATM   24  C   UNL     1      43.541 -17.940   2.689  1.00  0.00     0.010 A 
ENDBRANCH  17  18
ENDBRANCH   1  17
BRANCH   8  25
HETATM   25  C   UNL     1      37.986 -10.209   0.123  1.00  0.00     0.192 C 
HETATM   26  C   UNL     1      36.486 -10.177   0.455  1.00  0.00     0.059 C 
HETATM   27  C   UNL     1      36.038  -8.800   0.923  1.00  0.00     0.169 C 
HETATM   28  O   UNL     1      36.387  -7.815  -0.038  1.00  0.00    -0.391 OA
HETATM   29  C   UNL     1      37.776  -7.727  -0.321  1.00  0.00     0.169 C 
HETATM   30  C   UNL     1      38.286  -9.059  -0.850  1.00  0.00     0.059 C 
ENDBRANCH   8  25
TORSDOF 5
ENDMDL
MODEL 9
REMARK VINA RESULT:      -7.0      2.719      3.398
REMARK  5 active torsions:
REMARK  status: ('A' for Active; 'I' for Inactive)
REMARK    1  A    between atoms: C_2  and  C_3 
REMARK    2  A    between atoms: C_3  and  N_4 
REMARK    3  A    between atoms: C_7  and  C_8 
REMARK    4  A    between atoms: C_8  and  O_9 
REMARK    5  A    between atoms: N_13  and  C_15 
ROOT
HETATM    1  N   UNL     1      42.175 -15.017   5.075  1.00  0.00    -0.067 N 
HETATM    2  H   UNL     1      41.527 -15.816   5.024  1.00  0.00     0.280 HD
HETATM    3  C   UNL     1      41.787 -14.320   6.354  1.00  0.00     0.242 C 
HETATM    4  C   UNL     1      42.272 -12.848   6.451  1.00  0.00     0.044 C 
HETATM    5  C   UNL     1      41.949 -12.009   5.160  1.00  0.00    -0.029 C 
HETATM    6  C   UNL     1      40.412 -11.753   5.024  1.00  0.00     0.037 C 
HETATM    7  C   UNL     1      39.850 -10.712   6.002  1.00  0.00     0.236 C 
HETATM    8  N   UNL     1      40.583  -9.392   5.876  1.00  0.00    -0.067 N 
HETATM    9  H   UNL     1      40.252  -8.820   6.668  1.00  0.00     0.280 HD
HETATM   10  C   UNL     1      42.057  -9.620   6.149  1.00  0.00     0.236 C 
HETATM   11  C   UNL     1      42.637 -10.609   5.139  1.00  0.00     0.037 C 
HETATM   12  C   UNL     1      42.464 -12.816   3.933  1.00  0.00     0.037 C 
HETATM   13  C   UNL     1      41.901 -14.231   3.829  1.00  0.00     0.236 C 
ENDROOT
BRANCH   4  14
HETATM   14  C   UNL     1      43.740 -12.753   6.915  1.00  0.00     0.171 C 
BRANCH  14  15
HETATM   15  O   UNL     1      43.782 -12.186   8.209  1.00  0.00    -0.400 OA
HETATM   16  H   UNL     1      43.518 -11.246   8.147  1.00  0.00     0.209 HD
ENDBRANCH  14  15
ENDBRANCH   4  14
BRANCH   1  17
HETATM   17  C   UNL     1      43.522 -15.728   5.088  1.00  0.00     0.273 C 
BRANCH  17  18
HETATM   18  C   UNL     1      43.542 -16.977   4.244  1.00  0.00    -0.033 A 
HETATM   19  C   UNL     1      44.205 -18.134   4.688  1.00  0.00     0.010 A 
HETATM   20  C   UNL     1      44.251 -19.279   3.886  1.00  0.00     0.024 A 
HETATM   21  C   UNL     1      43.627 -19.280   2.641  1.00  0.00     0.034 A 
HETATM   22  C   UNL     1      42.949 -18.149   2.195  1.00  0.00     0.024 A 
HETATM   23 CL   UNL     1      43.695 -20.683   1.653  1.00  0.00    -0.084 Cl
HETATM   24  C   UNL     1      42.905 -17.004   2.994  1.00  0.00     0.010 A 
ENDBRANCH  17  18
ENDBRANCH   1  17
BRANCH   8  25
HETATM   25  C   UNL     1      40.243  -8.557   4.605  1.00  0.00     0.192 C 
HETATM   26  C   UNL     1      38.731  -8.316   4.475  1.00  0.00     0.059 C 
HETATM   27  C   UNL     1      38.222  -7.328   5.515  1.00  0.00     0.169 C 
HETATM   28  O   UNL     1      38.958  -6.116   5.443  1.00  0.00    -0.391 OA
HETATM   29  C   UNL     1      40.356  -6.256   5.651  1.00  0.00     0.169 C 
HETATM   30  C   UNL     1      40.948  -7.191   4.607  1.00  0.00     0.059 C 
ENDBRANCH   8  25
TORSDOF 5
ENDMDL
MODEL 10
REMARK VINA RESULT:      -6.8      2.862      3.877
REMARK  5 active torsions:
REMARK  status: ('A' for Active; 'I' for Inactive)
REMARK    1  A    between atoms: C_2  and  C_3 
REMARK    2  A    between atoms: C_3  and  N_4 
REMARK    3  A    between atoms: C_7  and  C_8 
REMARK    4  A    between atoms: C_8  and  O_9 
REMARK    5  A    between atoms: N_13  and  C_15 
ROOT
HETATM    1  N   UNL     1      42.582 -14.225   4.292  1.00  0.00    -0.067 N 
HETATM    2  H   UNL     1      43.235 -14.764   4.878  1.00  0.00     0.280 HD
HETATM    3  C   UNL     1      43.252 -12.882   4.150  1.00  0.00     0.242 C 
HETATM    4  C   UNL     1      42.299 -11.736   3.717  1.00  0.00     0.044 C 
HETATM    5  C   UNL     1      40.973 -11.687   4.563  1.00  0.00    -0.029 C 
HETATM    6  C   UNL     1      41.258 -11.226   6.030  1.00  0.00     0.037 C 
HETATM    7  C   UNL     1      41.567  -9.731   6.182  1.00  0.00     0.236 C 
HETATM    8  N   UNL     1      40.452  -8.881   5.607  1.00  0.00    -0.067 N 
HETATM    9  H   UNL     1      40.816  -7.916   5.607  1.00  0.00     0.280 HD
HETATM   10  C   UNL     1      40.273  -9.231   4.142  1.00  0.00     0.236 C 
HETATM   11  C   UNL     1      39.904 -10.706   3.990  1.00  0.00     0.037 C 
HETATM   12  C   UNL     1      40.362 -13.118   4.565  1.00  0.00     0.037 C 
HETATM   13  C   UNL     1      41.304 -14.204   5.074  1.00  0.00     0.236 C 
ENDROOT
BRANCH   4  14
HETATM   14  C   UNL     1      42.073 -11.718   2.190  1.00  0.00     0.171 C 
BRANCH  14  15
HETATM   15  O   UNL     1      42.449 -10.454   1.681  1.00  0.00    -0.400 OA
HETATM   16  H   UNL     1      43.305 -10.198   2.080  1.00  0.00     0.209 HD
ENDBRANCH  14  15
ENDBRANCH   4  14
BRANCH   1  17
HETATM   17  C   UNL     1      42.536 -15.081   3.033  1.00  0.00     0.273 C 
BRANCH  17  18
HETATM   18  C   UNL     1      42.988 -16.500   3.264  1.00  0.00    -0.033 A 
HETATM   19  C   UNL     1      42.819 -17.479   2.270  1.00  0.00     0.010 A 
HETATM   20  C   UNL     1      43.207 -18.803   2.503  1.00  0.00     0.024 A 
HETATM   21  C   UNL     1      43.775 -19.155   3.725  1.00  0.00     0.034 A 
HETATM   22  C   UNL     1      43.967 -18.194   4.712  1.00  0.00     0.024 A 
HETATM   23 CL   UNL     1      44.239 -20.783   4.013  1.00  0.00    -0.084 Cl
HETATM   24  C   UNL     1      43.578 -16.872   4.482  1.00  0.00     0.010 A 
ENDBRANCH  17  18
ENDBRANCH   1  17
BRANCH   8  25
HETATM   25  C   UNL     1      39.150  -8.821   6.461  1.00  0.00     0.192 C 
HETATM   26  C   UNL     1      39.449  -8.448   7.921  1.00  0.00     0.059 C 
HETATM   27  C   UNL     1      39.858  -6.988   8.061  1.00  0.00     0.169 C 
HETATM   28  O   UNL     1      38.868  -6.143   7.493  1.00  0.00    -0.391 OA
HETATM   29  C   UNL     1      38.611  -6.373   6.115  1.00  0.00     0.169 C 
HETATM   30  C   UNL     1      38.141  -7.805   5.903  1.00  0.00     0.059 C 
ENDBRANCH   8  25
TORSDOF 5
ENDMDL
