MODEL 1
REMARK VINA RESULT:      -9.2      0.000      0.000
REMARK  7 active torsions:
REMARK  status: ('A' for Active; 'I' for Inactive)
REMARK    1  A    between atoms: C_4  and  C_5 
REMARK    2  A    between atoms: C_5  and  C_6 
REMARK    3  A    between atoms: C_6  and  C_7 
REMARK    4  A    between atoms: C_7  and  N_8 
REMARK    5  A    between atoms: C_12  and  O_13 
REMARK    6  A    between atoms: C_12  and  C_14 
REMARK    7  A    between atoms: C_19  and  C_20 
REMARK       I    between atoms: C_20  and  N_21 
ROOT
HETATM    1  C   UNL     1      41.146 -11.255   2.923  1.00  0.00    -0.023 A 
HETATM    2  C   UNL     1      40.926 -10.822   4.253  1.00  0.00     0.024 A 
HETATM    3  C   UNL     1      41.987 -10.804   5.179  1.00  0.00     0.001 A 
HETATM    4  C   UNL     1      43.256 -11.155   4.745  1.00  0.00     0.086 A 
HETATM    5  O   UNL     1      44.140 -11.122   5.780  1.00  0.00    -0.304 OA
HETATM    6  C   UNL     1      43.439 -10.754   6.901  1.00  0.00     0.144 A 
HETATM    7  C   UNL     1      42.124 -10.496   6.555  1.00  0.00     0.057 A 
HETATM    8  C   UNL     1      43.552 -11.485   3.430  1.00  0.00     0.039 A 
HETATM    9  C   UNL     1      42.475 -11.516   2.529  1.00  0.00     0.013 A 
ENDROOT
BRANCH   1  10
HETATM   10  C   UNL     1      39.970 -11.406   1.943  1.00  0.00     0.088 C 
HETATM   11  C   UNL     1      38.822 -12.294   2.459  1.00  0.00     0.071 C 
HETATM   12  C   UNL     1      39.262 -13.735   2.650  1.00  0.00     0.238 C 
HETATM   13  N   UNL     1      39.818 -14.319   1.371  1.00  0.00    -0.071 N 
HETATM   14  H   UNL     1      39.028 -14.447   0.718  1.00  0.00     0.279 HD
HETATM   15  C   UNL     1      40.826 -13.425   0.672  1.00  0.00     0.238 C 
HETATM   16  C   UNL     1      40.335 -11.992   0.568  1.00  0.00     0.071 C 
BRANCH  13  17
HETATM   17  C   UNL     1      40.449 -15.695   1.579  1.00  0.00     0.235 C 
BRANCH  17  18
HETATM   18  C   UNL     1      40.825 -15.950   3.037  1.00  0.00     0.038 C 
BRANCH  18  19
HETATM   19  C   UNL     1      42.335 -15.742   3.279  1.00  0.00     0.040 C 
HETATM   20  C   UNL     1      42.564 -14.851   4.500  1.00  0.00     0.017 C 
BRANCH  19  21
HETATM   21  C   UNL     1      43.078 -17.028   3.430  1.00  0.00     0.057 A 
HETATM   22  O   UNL     1      42.859 -17.983   2.483  1.00  0.00    -0.319 OA
HETATM   23  C   UNL     1      43.611 -19.067   2.827  1.00  0.00     0.049 A 
HETATM   24  C   UNL     1      43.499 -20.259   1.960  1.00  0.00     0.076 C 
HETATM   25  C   UNL     1      44.328 -18.802   3.972  1.00  0.00     0.035 A 
HETATM   26  C   UNL     1      43.986 -17.485   4.362  1.00  0.00     0.035 A 
ENDBRANCH  19  21
ENDBRANCH  18  19
ENDBRANCH  17  18
ENDBRANCH  13  17
BRANCH  10  27
HETATM   27  O   UNL     1      39.417 -10.112   1.705  1.00  0.00    -0.385 OA
HETATM   28  H   UNL     1      39.252  -9.656   2.551  1.00  0.00     0.211 HD
ENDBRANCH  10  27
ENDBRANCH   1  10
BRANCH   6  29
HETATM   29  C   UNL     1      44.097 -10.606   8.188  1.00  0.00     0.277 C 
HETATM   30  N   UNL     1      43.924  -9.429   8.946  1.00  0.00    -0.345 N 
HETATM   31  C   UNL     1      44.527  -9.385  10.281  1.00  0.00     0.154 C 
HETATM   32  C   UNL     1      43.213  -8.235   8.490  1.00  0.00     0.128 C 
HETATM   33  C   UNL     1      43.509  -9.163  11.412  1.00  0.00     0.254 C 
HETATM   34  N   UNL     1      42.959  -7.741  11.373  1.00  0.00    -0.073 N 
HETATM   35  H   UNL     1      43.710  -7.134  11.017  1.00  0.00     0.279 HD
HETATM   36  C   UNL     1      42.685  -7.226  12.770  1.00  0.00     0.269 C 
HETATM   37  C   UNL     1      41.751  -7.536  10.492  1.00  0.00     0.236 C 
HETATM   38  C   UNL     1      41.826  -8.178   9.110  1.00  0.00     0.048 C 
HETATM   39  O   UNL     1      44.828 -11.500   8.615  1.00  0.00    -0.265 OA
ENDBRANCH   6  29
TORSDOF 7
ENDMDL
MODEL 2
REMARK VINA RESULT:      -9.1      2.778      8.892
REMARK  7 active torsions:
REMARK  status: ('A' for Active; 'I' for Inactive)
REMARK    1  A    between atoms: C_4  and  C_5 
REMARK    2  A    between atoms: C_5  and  C_6 
REMARK    3  A    between atoms: C_6  and  C_7 
REMARK    4  A    between atoms: C_7  and  N_8 
REMARK    5  A    between atoms: C_12  and  O_13 
REMARK    6  A    between atoms: C_12  and  C_14 
REMARK    7  A    between atoms: C_19  and  C_20 
REMARK       I    between atoms: C_20  and  N_21 
ROOT
HETATM    1  C   UNL     1      40.162  -9.046   7.678  1.00  0.00    -0.023 A 
HETATM    2  C   UNL     1      39.567 -10.313   7.470  1.00  0.00     0.024 A 
HETATM    3  C   UNL     1      40.053 -11.170   6.463  1.00  0.00     0.001 A 
HETATM    4  C   UNL     1      41.161 -10.775   5.730  1.00  0.00     0.086 A 
HETATM    5  O   UNL     1      41.460 -11.703   4.780  1.00  0.00    -0.304 OA
HETATM    6  C   UNL     1      40.534 -12.709   4.889  1.00  0.00     0.144 A 
HETATM    7  C   UNL     1      39.688 -12.439   5.951  1.00  0.00     0.057 A 
HETATM    8  C   UNL     1      41.852  -9.593   5.961  1.00  0.00     0.039 A 
HETATM    9  C   UNL     1      41.336  -8.745   6.955  1.00  0.00     0.013 A 
ENDROOT
BRANCH   1  10
HETATM   10  C   UNL     1      39.556  -8.050   8.681  1.00  0.00     0.088 C 
HETATM   11  C   UNL     1      40.399  -6.780   8.904  1.00  0.00     0.071 C 
HETATM   12  C   UNL     1      41.740  -7.095   9.542  1.00  0.00     0.238 C 
HETATM   13  N   UNL     1      41.571  -7.827  10.855  1.00  0.00    -0.071 N 
HETATM   14  H   UNL     1      41.189  -7.156  11.539  1.00  0.00     0.279 HD
HETATM   15  C   UNL     1      40.600  -8.992  10.790  1.00  0.00     0.238 C 
HETATM   16  C   UNL     1      39.307  -8.612  10.093  1.00  0.00     0.071 C 
BRANCH  13  17
HETATM   17  C   UNL     1      42.898  -8.331  11.422  1.00  0.00     0.235 C 
BRANCH  17  18
HETATM   18  C   UNL     1      43.985  -8.440  10.353  1.00  0.00     0.038 C 
BRANCH  18  19
HETATM   19  C   UNL     1      44.659  -9.829  10.369  1.00  0.00     0.040 C 
HETATM   20  C   UNL     1      43.853 -10.806  11.225  1.00  0.00     0.017 C 
BRANCH  19  21
HETATM   21  C   UNL     1      44.863 -10.388   9.000  1.00  0.00     0.057 A 
HETATM   22  O   UNL     1      44.131 -11.488   8.666  1.00  0.00    -0.319 OA
HETATM   23  C   UNL     1      44.489 -11.838   7.399  1.00  0.00     0.049 A 
HETATM   24  C   UNL     1      43.852 -13.045   6.833  1.00  0.00     0.076 C 
HETATM   25  C   UNL     1      45.426 -10.953   6.911  1.00  0.00     0.035 A 
HETATM   26  C   UNL     1      45.667 -10.016   7.943  1.00  0.00     0.035 A 
ENDBRANCH  19  21
ENDBRANCH  18  19
ENDBRANCH  17  18
ENDBRANCH  13  17
BRANCH  10  27
HETATM   27  O   UNL     1      38.290  -7.624   8.179  1.00  0.00    -0.385 OA
HETATM   28  H   UNL     1      37.628  -7.623   8.893  1.00  0.00     0.211 HD
ENDBRANCH  10  27
ENDBRANCH   1  10
BRANCH   6  29
HETATM   29  C   UNL     1      40.578 -13.875   4.023  1.00  0.00     0.277 C 
HETATM   30  N   UNL     1      39.808 -13.915   2.843  1.00  0.00    -0.345 N 
HETATM   31  C   UNL     1      39.977 -15.073   1.959  1.00  0.00     0.154 C 
HETATM   32  C   UNL     1      38.831 -12.903   2.443  1.00  0.00     0.128 C 
HETATM   33  C   UNL     1      40.451 -14.705   0.542  1.00  0.00     0.254 C 
HETATM   34  N   UNL     1      39.342 -14.000  -0.232  1.00  0.00    -0.073 N 
HETATM   35  H   UNL     1      38.448 -14.385   0.098  1.00  0.00     0.279 HD
HETATM   36  C   UNL     1      39.393 -14.359  -1.701  1.00  0.00     0.269 C 
HETATM   37  C   UNL     1      39.285 -12.501  -0.060  1.00  0.00     0.236 C 
HETATM   38  C   UNL     1      39.417 -11.996   1.374  1.00  0.00     0.048 C 
HETATM   39  O   UNL     1      41.271 -14.846   4.328  1.00  0.00    -0.265 OA
ENDBRANCH   6  29
TORSDOF 7
ENDMDL
MODEL 3
REMARK VINA RESULT:      -9.1      3.524      8.940
REMARK  7 active torsions:
REMARK  status: ('A' for Active; 'I' for Inactive)
REMARK    1  A    between atoms: C_4  and  C_5 
REMARK    2  A    between atoms: C_5  and  C_6 
REMARK    3  A    between atoms: C_6  and  C_7 
REMARK    4  A    between atoms: C_7  and  N_8 
REMARK    5  A    between atoms: C_12  and  O_13 
REMARK    6  A    between atoms: C_12  and  C_14 
REMARK    7  A    between atoms: C_19  and  C_20 
REMARK       I    between atoms: C_20  and  N_21 
ROOT
HETATM    1  C   UNL     1      42.498 -16.312   4.226  1.00  0.00    -0.023 A 
HETATM    2  C   UNL     1      41.184 -16.305   3.700  1.00  0.00     0.024 A 
HETATM    3  C   UNL     1      40.939 -15.807   2.405  1.00  0.00     0.001 A 
HETATM    4  C   UNL     1      42.015 -15.387   1.639  1.00  0.00     0.086 A 
HETATM    5  O   UNL     1      41.587 -14.901   0.441  1.00  0.00    -0.304 OA
HETATM    6  C   UNL     1      40.219 -14.997   0.430  1.00  0.00     0.144 A 
HETATM    7  C   UNL     1      39.793 -15.602   1.599  1.00  0.00     0.057 A 
HETATM    8  C   UNL     1      43.335 -15.469   2.060  1.00  0.00     0.039 A 
HETATM    9  C   UNL     1      43.553 -15.950   3.362  1.00  0.00     0.013 A 
ENDROOT
BRANCH   1  10
HETATM   10  C   UNL     1      42.756 -16.727   5.684  1.00  0.00     0.088 C 
HETATM   11  C   UNL     1      41.687 -16.244   6.682  1.00  0.00     0.071 C 
HETATM   12  C   UNL     1      41.652 -14.729   6.785  1.00  0.00     0.238 C 
HETATM   13  N   UNL     1      43.000 -14.169   7.179  1.00  0.00    -0.071 N 
HETATM   14  H   UNL     1      43.167 -14.422   8.165  1.00  0.00     0.279 HD
HETATM   15  C   UNL     1      44.159 -14.732   6.377  1.00  0.00     0.238 C 
HETATM   16  C   UNL     1      44.094 -16.245   6.275  1.00  0.00     0.071 C 
BRANCH  13  17
HETATM   17  C   UNL     1      43.048 -12.643   7.099  1.00  0.00     0.235 C 
BRANCH  17  18
HETATM   18  C   UNL     1      44.033 -12.146   6.042  1.00  0.00     0.038 C 
BRANCH  18  19
HETATM   19  C   UNL     1      43.316 -11.369   4.918  1.00  0.00     0.040 C 
HETATM   20  C   UNL     1      43.996 -11.624   3.573  1.00  0.00     0.017 C 
BRANCH  19  21
HETATM   21  C   UNL     1      41.861 -11.691   4.831  1.00  0.00     0.057 A 
HETATM   22  O   UNL     1      41.019 -10.968   5.622  1.00  0.00    -0.319 OA
HETATM   23  C   UNL     1      39.759 -11.439   5.402  1.00  0.00     0.049 A 
HETATM   24  C   UNL     1      38.671 -10.829   6.194  1.00  0.00     0.076 C 
HETATM   25  C   UNL     1      39.787 -12.440   4.457  1.00  0.00     0.035 A 
HETATM   26  C   UNL     1      41.143 -12.603   4.086  1.00  0.00     0.035 A 
ENDBRANCH  19  21
ENDBRANCH  18  19
ENDBRANCH  17  18
ENDBRANCH  13  17
BRANCH  10  27
HETATM   27  O   UNL     1      42.768 -18.152   5.748  1.00  0.00    -0.385 OA
HETATM   28  H   UNL     1      42.067 -18.468   6.347  1.00  0.00     0.211 HD
ENDBRANCH  10  27
ENDBRANCH   1  10
BRANCH   6  29
HETATM   29  C   UNL     1      39.441 -14.574  -0.722  1.00  0.00     0.277 C 
HETATM   30  N   UNL     1      39.059 -13.224  -0.867  1.00  0.00    -0.345 N 
HETATM   31  C   UNL     1      38.367 -12.842  -2.102  1.00  0.00     0.154 C 
HETATM   32  C   UNL     1      39.274 -12.179   0.133  1.00  0.00     0.128 C 
HETATM   33  C   UNL     1      39.103 -11.762  -2.914  1.00  0.00     0.254 C 
HETATM   34  N   UNL     1      39.040 -10.415  -2.202  1.00  0.00    -0.073 N 
HETATM   35  H   UNL     1      38.147 -10.380  -1.694  1.00  0.00     0.279 HD
HETATM   36  C   UNL     1      38.956  -9.278  -3.198  1.00  0.00     0.269 C 
HETATM   37  C   UNL     1      40.144 -10.157  -1.205  1.00  0.00     0.236 C 
HETATM   38  C   UNL     1      40.459 -11.310  -0.257  1.00  0.00     0.048 C 
HETATM   39  O   UNL     1      39.090 -15.397  -1.568  1.00  0.00    -0.265 OA
ENDBRANCH   6  29
TORSDOF 7
ENDMDL
MODEL 4
REMARK VINA RESULT:      -9.1      2.841      9.469
REMARK  7 active torsions:
REMARK  status: ('A' for Active; 'I' for Inactive)
REMARK    1  A    between atoms: C_4  and  C_5 
REMARK    2  A    between atoms: C_5  and  C_6 
REMARK    3  A    between atoms: C_6  and  C_7 
REMARK    4  A    between atoms: C_7  and  N_8 
REMARK    5  A    between atoms: C_12  and  O_13 
REMARK    6  A    between atoms: C_12  and  C_14 
REMARK    7  A    between atoms: C_19  and  C_20 
REMARK       I    between atoms: C_20  and  N_21 
ROOT
HETATM    1  C   UNL     1      42.468 -16.316   4.326  1.00  0.00    -0.023 A 
HETATM    2  C   UNL     1      41.162 -16.011   3.876  1.00  0.00     0.024 A 
HETATM    3  C   UNL     1      40.939 -15.642   2.535  1.00  0.00     0.001 A 
HETATM    4  C   UNL     1      42.012 -15.648   1.656  1.00  0.00     0.086 A 
HETATM    5  O   UNL     1      41.620 -15.226   0.423  1.00  0.00    -0.304 OA
HETATM    6  C   UNL     1      40.281 -14.934   0.500  1.00  0.00     0.144 A 
HETATM    7  C   UNL     1      39.820 -15.233   1.770  1.00  0.00     0.057 A 
HETATM    8  C   UNL     1      43.294 -16.041   2.014  1.00  0.00     0.039 A 
HETATM    9  C   UNL     1      43.496 -16.385   3.361  1.00  0.00     0.013 A 
ENDROOT
BRANCH   1  10
HETATM   10  C   UNL     1      42.742 -16.589   5.815  1.00  0.00     0.088 C 
HETATM   11  C   UNL     1      41.636 -16.091   6.765  1.00  0.00     0.071 C 
HETATM   12  C   UNL     1      41.505 -14.578   6.739  1.00  0.00     0.238 C 
HETATM   13  N   UNL     1      42.812 -13.902   7.086  1.00  0.00    -0.071 N 
HETATM   14  H   UNL     1      42.988 -14.059   8.091  1.00  0.00     0.279 HD
HETATM   15  C   UNL     1      44.010 -14.457   6.337  1.00  0.00     0.238 C 
HETATM   16  C   UNL     1      44.042 -15.974   6.365  1.00  0.00     0.071 C 
BRANCH  13  17
HETATM   17  C   UNL     1      42.765 -12.389   6.875  1.00  0.00     0.235 C 
BRANCH  17  18
HETATM   18  C   UNL     1      44.105 -11.822   6.411  1.00  0.00     0.038 C 
BRANCH  18  19
HETATM   19  C   UNL     1      45.006 -11.443   7.606  1.00  0.00     0.040 C 
HETATM   20  C   UNL     1      46.301 -10.794   7.115  1.00  0.00     0.017 C 
BRANCH  19  21
HETATM   21  C   UNL     1      44.320 -10.551   8.587  1.00  0.00     0.057 A 
HETATM   22  O   UNL     1      44.119 -11.049   9.839  1.00  0.00    -0.319 OA
HETATM   23  C   UNL     1      43.464 -10.089  10.551  1.00  0.00     0.049 A 
HETATM   24  C   UNL     1      43.095 -10.425  11.942  1.00  0.00     0.076 C 
HETATM   25  C   UNL     1      43.269  -8.972   9.770  1.00  0.00     0.035 A 
HETATM   26  C   UNL     1      43.821  -9.269   8.502  1.00  0.00     0.035 A 
ENDBRANCH  19  21
ENDBRANCH  18  19
ENDBRANCH  17  18
ENDBRANCH  13  17
BRANCH  10  27
HETATM   27  O   UNL     1      42.843 -18.000   6.000  1.00  0.00    -0.385 OA
HETATM   28  H   UNL     1      42.958 -18.444   5.140  1.00  0.00     0.211 HD
ENDBRANCH  10  27
ENDBRANCH   1  10
BRANCH   6  29
HETATM   29  C   UNL     1      39.542 -14.468  -0.661  1.00  0.00     0.277 C 
HETATM   30  N   UNL     1      39.316 -13.090  -0.855  1.00  0.00    -0.345 N 
HETATM   31  C   UNL     1      38.656 -12.677  -2.097  1.00  0.00     0.154 C 
HETATM   32  C   UNL     1      39.664 -12.039   0.101  1.00  0.00     0.128 C 
HETATM   33  C   UNL     1      39.500 -11.722  -2.958  1.00  0.00     0.254 C 
HETATM   34  N   UNL     1      39.604 -10.350  -2.299  1.00  0.00    -0.073 N 
HETATM   35  H   UNL     1      38.728 -10.192  -1.784  1.00  0.00     0.279 HD
HETATM   36  C   UNL     1      39.638  -9.250  -3.338  1.00  0.00     0.269 C 
HETATM   37  C   UNL     1      40.743 -10.184  -1.323  1.00  0.00     0.236 C 
HETATM   38  C   UNL     1      40.936 -11.330  -0.334  1.00  0.00     0.048 C 
HETATM   39  O   UNL     1      39.086 -15.277  -1.470  1.00  0.00    -0.265 OA
ENDBRANCH   6  29
TORSDOF 7
ENDMDL
MODEL 5
REMARK VINA RESULT:      -9.0      3.985      7.794
REMARK  7 active torsions:
REMARK  status: ('A' for Active; 'I' for Inactive)
REMARK    1  A    between atoms: C_4  and  C_5 
REMARK    2  A    between atoms: C_5  and  C_6 
REMARK    3  A    between atoms: C_6  and  C_7 
REMARK    4  A    between atoms: C_7  and  N_8 
REMARK    5  A    between atoms: C_12  and  O_13 
REMARK    6  A    between atoms: C_12  and  C_14 
REMARK    7  A    between atoms: C_19  and  C_20 
REMARK       I    between atoms: C_20  and  N_21 
ROOT
HETATM    1  C   UNL     1      41.504 -13.230   4.599  1.00  0.00    -0.023 A 
HETATM    2  C   UNL     1      40.348 -13.138   3.789  1.00  0.00     0.024 A 
HETATM    3  C   UNL     1      40.425 -12.576   2.499  1.00  0.00     0.001 A 
HETATM    4  C   UNL     1      41.664 -12.178   2.021  1.00  0.00     0.086 A 
HETATM    5  O   UNL     1      41.541 -11.622   0.784  1.00  0.00    -0.304 OA
HETATM    6  C   UNL     1      40.209 -11.651   0.456  1.00  0.00     0.144 A 
HETATM    7  C   UNL     1      39.503 -12.283   1.466  1.00  0.00     0.057 A 
HETATM    8  C   UNL     1      42.848 -12.341   2.727  1.00  0.00     0.039 A 
HETATM    9  C   UNL     1      42.742 -12.885   4.018  1.00  0.00     0.013 A 
ENDROOT
BRANCH   1  10
HETATM   10  C   UNL     1      41.405 -13.717   6.055  1.00  0.00     0.088 C 
HETATM   11  C   UNL     1      42.730 -13.653   6.838  1.00  0.00     0.071 C 
HETATM   12  C   UNL     1      43.775 -14.591   6.260  1.00  0.00     0.238 C 
HETATM   13  N   UNL     1      43.279 -16.019   6.222  1.00  0.00    -0.071 N 
HETATM   14  H   UNL     1      43.236 -16.360   7.196  1.00  0.00     0.279 HD
HETATM   15  C   UNL     1      41.886 -16.172   5.640  1.00  0.00     0.238 C 
HETATM   16  C   UNL     1      40.913 -15.166   6.229  1.00  0.00     0.071 C 
BRANCH  13  17
HETATM   17  C   UNL     1      44.227 -16.951   5.468  1.00  0.00     0.235 C 
BRANCH  17  18
HETATM   18  C   UNL     1      43.485 -18.065   4.731  1.00  0.00     0.038 C 
BRANCH  18  19
HETATM   19  C   UNL     1      43.853 -18.097   3.232  1.00  0.00     0.040 C 
HETATM   20  C   UNL     1      43.621 -19.493   2.654  1.00  0.00     0.017 C 
BRANCH  19  21
HETATM   21  C   UNL     1      43.112 -17.077   2.434  1.00  0.00     0.057 A 
HETATM   22  O   UNL     1      41.750 -17.131   2.473  1.00  0.00    -0.319 OA
HETATM   23  C   UNL     1      41.287 -16.137   1.665  1.00  0.00     0.049 A 
HETATM   24  C   UNL     1      39.821 -16.028   1.512  1.00  0.00     0.076 C 
HETATM   25  C   UNL     1      42.342 -15.431   1.129  1.00  0.00     0.035 A 
HETATM   26  C   UNL     1      43.521 -16.037   1.626  1.00  0.00     0.035 A 
ENDBRANCH  19  21
ENDBRANCH  18  19
ENDBRANCH  17  18
ENDBRANCH  13  17
BRANCH  10  27
HETATM   27  O   UNL     1      40.476 -12.882   6.744  1.00  0.00    -0.385 OA
HETATM   28  H   UNL     1      39.663 -12.776   6.216  1.00  0.00     0.211 HD
ENDBRANCH  10  27
ENDBRANCH   1  10
BRANCH   6  29
HETATM   29  C   UNL     1      39.733 -11.144  -0.819  1.00  0.00     0.277 C 
HETATM   30  N   UNL     1      40.070  -9.841  -1.238  1.00  0.00    -0.345 N 
HETATM   31  C   UNL     1      39.648  -9.427  -2.580  1.00  0.00     0.154 C 
HETATM   32  C   UNL     1      40.785  -8.856  -0.426  1.00  0.00     0.128 C 
HETATM   33  C   UNL     1      40.815  -9.032  -3.501  1.00  0.00     0.254 C 
HETATM   34  N   UNL     1      41.436  -7.714  -3.051  1.00  0.00    -0.073 N 
HETATM   35  H   UNL     1      40.683  -7.146  -2.641  1.00  0.00     0.279 HD
HETATM   36  C   UNL     1      41.918  -6.908  -4.238  1.00  0.00     0.269 C 
HETATM   37  C   UNL     1      42.531  -7.832  -2.018  1.00  0.00     0.236 C 
HETATM   38  C   UNL     1      42.241  -8.775  -0.855  1.00  0.00     0.048 C 
HETATM   39  O   UNL     1      39.012 -11.842  -1.533  1.00  0.00    -0.265 OA
ENDBRANCH   6  29
TORSDOF 7
ENDMDL
MODEL 6
REMARK VINA RESULT:      -8.9      2.908      4.567
REMARK  7 active torsions:
REMARK  status: ('A' for Active; 'I' for Inactive)
REMARK    1  A    between atoms: C_4  and  C_5 
REMARK    2  A    between atoms: C_5  and  C_6 
REMARK    3  A    between atoms: C_6  and  C_7 
REMARK    4  A    between atoms: C_7  and  N_8 
REMARK    5  A    between atoms: C_12  and  O_13 
REMARK    6  A    between atoms: C_12  and  C_14 
REMARK    7  A    between atoms: C_19  and  C_20 
REMARK       I    between atoms: C_20  and  N_21 
ROOT
HETATM    1  C   UNL     1      41.512 -10.668   6.096  1.00  0.00    -0.023 A 
HETATM    2  C   UNL     1      41.950  -9.901   7.201  1.00  0.00     0.024 A 
HETATM    3  C   UNL     1      41.023  -9.426   8.149  1.00  0.00     0.001 A 
HETATM    4  C   UNL     1      39.689  -9.780   8.011  1.00  0.00     0.086 A 
HETATM    5  O   UNL     1      38.938  -9.199   8.987  1.00  0.00    -0.304 OA
HETATM    6  C   UNL     1      39.789  -8.453   9.764  1.00  0.00     0.144 A 
HETATM    7  C   UNL     1      41.086  -8.617   9.309  1.00  0.00     0.057 A 
HETATM    8  C   UNL     1      39.217 -10.616   7.009  1.00  0.00     0.039 A 
HETATM    9  C   UNL     1      40.157 -11.060   6.064  1.00  0.00     0.013 A 
ENDROOT
BRANCH   1  10
HETATM   10  C   UNL     1      42.495 -11.076   4.985  1.00  0.00     0.088 C 
HETATM   11  C   UNL     1      42.091 -12.347   4.214  1.00  0.00     0.071 C 
HETATM   12  C   UNL     1      42.092 -13.576   5.106  1.00  0.00     0.238 C 
HETATM   13  N   UNL     1      43.440 -13.788   5.757  1.00  0.00    -0.071 N 
HETATM   14  H   UNL     1      44.098 -14.088   5.021  1.00  0.00     0.279 HD
HETATM   15  C   UNL     1      44.024 -12.536   6.386  1.00  0.00     0.238 C 
HETATM   16  C   UNL     1      43.938 -11.341   5.454  1.00  0.00     0.071 C 
BRANCH  13  17
HETATM   17  C   UNL     1      43.417 -14.896   6.809  1.00  0.00     0.235 C 
BRANCH  17  18
HETATM   18  C   UNL     1      42.648 -16.129   6.340  1.00  0.00     0.038 C 
BRANCH  18  19
HETATM   19  C   UNL     1      43.600 -17.234   5.834  1.00  0.00     0.040 C 
HETATM   20  C   UNL     1      43.410 -18.517   6.644  1.00  0.00     0.017 C 
BRANCH  19  21
HETATM   21  C   UNL     1      43.438 -17.514   4.377  1.00  0.00     0.057 A 
HETATM   22  O   UNL     1      43.592 -18.807   3.975  1.00  0.00    -0.319 OA
HETATM   23  C   UNL     1      43.427 -18.829   2.622  1.00  0.00     0.049 A 
HETATM   24  C   UNL     1      43.596 -20.133   1.949  1.00  0.00     0.076 C 
HETATM   25  C   UNL     1      43.144 -17.562   2.160  1.00  0.00     0.035 A 
HETATM   26  C   UNL     1      43.150 -16.713   3.292  1.00  0.00     0.035 A 
ENDBRANCH  19  21
ENDBRANCH  18  19
ENDBRANCH  17  18
ENDBRANCH  13  17
BRANCH  10  27
HETATM   27  O   UNL     1      42.560 -10.016   4.033  1.00  0.00    -0.385 OA
HETATM   28  H   UNL     1      43.207  -9.346   4.319  1.00  0.00     0.211 HD
ENDBRANCH  10  27
ENDBRANCH   1  10
BRANCH   6  29
HETATM   29  C   UNL     1      39.305  -7.710  10.915  1.00  0.00     0.277 C 
HETATM   30  N   UNL     1      39.564  -8.172  12.222  1.00  0.00    -0.345 N 
HETATM   31  C   UNL     1      39.142  -7.324  13.340  1.00  0.00     0.154 C 
HETATM   32  C   UNL     1      40.198  -9.449  12.550  1.00  0.00     0.128 C 
HETATM   33  C   UNL     1      40.298  -6.886  14.255  1.00  0.00     0.254 C 
HETATM   34  N   UNL     1      40.824  -8.068  15.064  1.00  0.00    -0.073 N 
HETATM   35  H   UNL     1      40.028  -8.694  15.241  1.00  0.00     0.279 HD
HETATM   36  C   UNL     1      41.275  -7.626  16.440  1.00  0.00     0.269 C 
HETATM   37  C   UNL     1      41.905  -8.882  14.394  1.00  0.00     0.236 C 
HETATM   38  C   UNL     1      41.654  -9.233  12.931  1.00  0.00     0.048 C 
HETATM   39  O   UNL     1      38.644  -6.683  10.756  1.00  0.00    -0.265 OA
ENDBRANCH   6  29
TORSDOF 7
ENDMDL
MODEL 7
REMARK VINA RESULT:      -8.6      3.057      9.329
REMARK  7 active torsions:
REMARK  status: ('A' for Active; 'I' for Inactive)
REMARK    1  A    between atoms: C_4  and  C_5 
REMARK    2  A    between atoms: C_5  and  C_6 
REMARK    3  A    between atoms: C_6  and  C_7 
REMARK    4  A    between atoms: C_7  and  N_8 
REMARK    5  A    between atoms: C_12  and  O_13 
REMARK    6  A    between atoms: C_12  and  C_14 
REMARK    7  A    between atoms: C_19  and  C_20 
REMARK       I    between atoms: C_20  and  N_21 
ROOT
HETATM    1  C   UNL     1      40.665 -15.085   3.687  1.00  0.00    -0.023 A 
HETATM    2  C   UNL     1      39.885 -14.025   3.168  1.00  0.00     0.024 A 
HETATM    3  C   UNL     1      39.895 -13.743   1.788  1.00  0.00     0.001 A 
HETATM    4  C   UNL     1      40.631 -14.563   0.947  1.00  0.00     0.086 A 
HETATM    5  O   UNL     1      40.560 -14.117  -0.337  1.00  0.00    -0.304 OA
HETATM    6  C   UNL     1      39.776 -12.991  -0.333  1.00  0.00     0.144 A 
HETATM    7  C   UNL     1      39.306 -12.766   0.949  1.00  0.00     0.057 A 
HETATM    8  C   UNL     1      41.330 -15.681   1.383  1.00  0.00     0.039 A 
HETATM    9  C   UNL     1      41.322 -15.929   2.766  1.00  0.00     0.013 A 
ENDROOT
BRANCH   1  10
HETATM   10  C   UNL     1      40.766 -15.316   5.204  1.00  0.00     0.088 C 
HETATM   11  C   UNL     1      40.366 -14.099   6.060  1.00  0.00     0.071 C 
HETATM   12  C   UNL     1      41.310 -12.927   5.854  1.00  0.00     0.238 C 
HETATM   13  N   UNL     1      42.742 -13.309   6.156  1.00  0.00    -0.071 N 
HETATM   14  H   UNL     1      42.821 -13.439   7.177  1.00  0.00     0.279 HD
HETATM   15  C   UNL     1      43.181 -14.610   5.510  1.00  0.00     0.238 C 
HETATM   16  C   UNL     1      42.162 -15.716   5.715  1.00  0.00     0.071 C 
BRANCH  13  17
HETATM   17  C   UNL     1      43.736 -12.214   5.770  1.00  0.00     0.235 C 
BRANCH  17  18
HETATM   18  C   UNL     1      43.730 -11.048   6.757  1.00  0.00     0.038 C 
BRANCH  18  19
HETATM   19  C   UNL     1      44.820 -11.213   7.838  1.00  0.00     0.040 C 
HETATM   20  C   UNL     1      46.189 -10.821   7.281  1.00  0.00     0.017 C 
BRANCH  19  21
HETATM   21  C   UNL     1      44.525 -10.437   9.079  1.00  0.00     0.057 A 
HETATM   22  O   UNL     1      43.964 -11.121  10.116  1.00  0.00    -0.319 OA
HETATM   23  C   UNL     1      43.761 -10.225  11.123  1.00  0.00     0.049 A 
HETATM   24  C   UNL     1      43.113 -10.734  12.350  1.00  0.00     0.076 C 
HETATM   25  C   UNL     1      44.212  -8.979  10.746  1.00  0.00     0.035 A 
HETATM   26  C   UNL     1      44.706  -9.115   9.427  1.00  0.00     0.035 A 
ENDBRANCH  19  21
ENDBRANCH  18  19
ENDBRANCH  17  18
ENDBRANCH  13  17
BRANCH  10  27
HETATM   27  O   UNL     1      39.879 -16.377   5.555  1.00  0.00    -0.385 OA
HETATM   28  H   UNL     1      39.861 -16.494   6.522  1.00  0.00     0.211 HD
ENDBRANCH  10  27
ENDBRANCH   1  10
BRANCH   6  29
HETATM   29  C   UNL     1      39.482 -12.270  -1.559  1.00  0.00     0.277 C 
HETATM   30  N   UNL     1      39.796 -10.900  -1.673  1.00  0.00    -0.345 N 
HETATM   31  C   UNL     1      39.572 -10.255  -2.971  1.00  0.00     0.154 C 
HETATM   32  C   UNL     1      40.303 -10.062  -0.586  1.00  0.00     0.128 C 
HETATM   33  C   UNL     1      40.845  -9.655  -3.591  1.00  0.00     0.254 C 
HETATM   34  N   UNL     1      41.297  -8.424  -2.811  1.00  0.00    -0.073 N 
HETATM   35  H   UNL     1      40.451  -7.970  -2.442  1.00  0.00     0.279 HD
HETATM   36  C   UNL     1      41.911  -7.393  -3.734  1.00  0.00     0.269 C 
HETATM   37  C   UNL     1      42.215  -8.697  -1.644  1.00  0.00     0.236 C 
HETATM   38  C   UNL     1      41.801  -9.852  -0.737  1.00  0.00     0.048 C 
HETATM   39  O   UNL     1      38.933 -12.845  -2.499  1.00  0.00    -0.265 OA
ENDBRANCH   6  29
TORSDOF 7
ENDMDL
MODEL 8
REMARK VINA RESULT:      -8.6      4.135      8.330
REMARK  7 active torsions:
REMARK  status: ('A' for Active; 'I' for Inactive)
REMARK    1  A    between atoms: C_4  and  C_5 
REMARK    2  A    between atoms: C_5  and  C_6 
REMARK    3  A    between atoms: C_6  and  C_7 
REMARK    4  A    between atoms: C_7  and  N_8 
REMARK    5  A    between atoms: C_12  and  O_13 
REMARK    6  A    between atoms: C_12  and  C_14 
REMARK    7  A    between atoms: C_19  and  C_20 
REMARK       I    between atoms: C_20  and  N_21 
ROOT
HETATM    1  C   UNL     1      40.362 -13.952   4.442  1.00  0.00    -0.023 A 
HETATM    2  C   UNL     1      40.418 -12.767   3.672  1.00  0.00     0.024 A 
HETATM    3  C   UNL     1      40.376 -12.830   2.265  1.00  0.00     0.001 A 
HETATM    4  C   UNL     1      40.213 -14.067   1.659  1.00  0.00     0.086 A 
HETATM    5  O   UNL     1      40.239 -13.941   0.304  1.00  0.00    -0.304 OA
HETATM    6  C   UNL     1      40.427 -12.611   0.023  1.00  0.00     0.144 A 
HETATM    7  C   UNL     1      40.459 -11.894   1.206  1.00  0.00     0.057 A 
HETATM    8  C   UNL     1      40.046 -15.250   2.365  1.00  0.00     0.039 A 
HETATM    9  C   UNL     1      40.112 -15.165   3.765  1.00  0.00     0.013 A 
ENDROOT
BRANCH   1  10
HETATM   10  C   UNL     1      40.543 -13.904   5.969  1.00  0.00     0.088 C 
HETATM   11  C   UNL     1      41.942 -13.455   6.430  1.00  0.00     0.071 C 
HETATM   12  C   UNL     1      43.019 -14.441   6.014  1.00  0.00     0.238 C 
HETATM   13  N   UNL     1      42.734 -15.829   6.543  1.00  0.00    -0.071 N 
HETATM   14  H   UNL     1      42.880 -15.809   7.565  1.00  0.00     0.279 HD
HETATM   15  C   UNL     1      41.309 -16.297   6.310  1.00  0.00     0.238 C 
HETATM   16  C   UNL     1      40.295 -15.237   6.700  1.00  0.00     0.071 C 
BRANCH  13  17
HETATM   17  C   UNL     1      43.690 -16.880   5.980  1.00  0.00     0.235 C 
BRANCH  17  18
HETATM   18  C   UNL     1      44.213 -16.510   4.593  1.00  0.00     0.038 C 
BRANCH  18  19
HETATM   19  C   UNL     1      43.257 -16.989   3.479  1.00  0.00     0.040 C 
HETATM   20  C   UNL     1      43.455 -16.158   2.211  1.00  0.00     0.017 C 
BRANCH  19  21
HETATM   21  C   UNL     1      43.407 -18.442   3.175  1.00  0.00     0.057 A 
HETATM   22  O   UNL     1      43.744 -19.259   4.212  1.00  0.00    -0.319 OA
HETATM   23  C   UNL     1      43.850 -20.522   3.709  1.00  0.00     0.049 A 
HETATM   24  C   UNL     1      44.256 -21.585   4.652  1.00  0.00     0.076 C 
HETATM   25  C   UNL     1      43.556 -20.521   2.363  1.00  0.00     0.035 A 
HETATM   26  C   UNL     1      43.269 -19.179   2.017  1.00  0.00     0.035 A 
ENDBRANCH  19  21
ENDBRANCH  18  19
ENDBRANCH  17  18
ENDBRANCH  13  17
BRANCH  10  27
HETATM   27  O   UNL     1      39.610 -12.964   6.500  1.00  0.00    -0.385 OA
HETATM   28  H   UNL     1      38.861 -12.850   5.887  1.00  0.00     0.211 HD
ENDBRANCH  10  27
ENDBRANCH   1  10
BRANCH   6  29
HETATM   29  C   UNL     1      40.485 -12.128  -1.346  1.00  0.00     0.277 C 
HETATM   30  N   UNL     1      39.298 -11.916  -2.078  1.00  0.00    -0.345 N 
HETATM   31  C   UNL     1      39.419 -11.328  -3.416  1.00  0.00     0.154 C 
HETATM   32  C   UNL     1      37.954 -12.263  -1.616  1.00  0.00     0.128 C 
HETATM   33  C   UNL     1      38.667  -9.996  -3.577  1.00  0.00     0.254 C 
HETATM   34  N   UNL     1      37.159 -10.224  -3.574  1.00  0.00    -0.073 N 
HETATM   35  H   UNL     1      36.989 -11.146  -3.996  1.00  0.00     0.279 HD
HETATM   36  C   UNL     1      36.461  -9.248  -4.496  1.00  0.00     0.269 C 
HETATM   37  C   UNL     1      36.505 -10.219  -2.213  1.00  0.00     0.236 C 
HETATM   38  C   UNL     1      37.225 -11.020  -1.132  1.00  0.00     0.048 C 
HETATM   39  O   UNL     1      41.573 -11.924  -1.885  1.00  0.00    -0.265 OA
ENDBRANCH   6  29
TORSDOF 7
ENDMDL
MODEL 9
REMARK VINA RESULT:      -8.5     18.037     19.563
REMARK  7 active torsions:
REMARK  status: ('A' for Active; 'I' for Inactive)
REMARK    1  A    between atoms: C_4  and  C_5 
REMARK    2  A    between atoms: C_5  and  C_6 
REMARK    3  A    between atoms: C_6  and  C_7 
REMARK    4  A    between atoms: C_7  and  N_8 
REMARK    5  A    between atoms: C_12  and  O_13 
REMARK    6  A    between atoms: C_12  and  C_14 
REMARK    7  A    between atoms: C_19  and  C_20 
REMARK       I    between atoms: C_20  and  N_21 
ROOT
HETATM    1  C   UNL     1      44.157 -30.156  -1.508  1.00  0.00    -0.023 A 
HETATM    2  C   UNL     1      43.863 -29.447  -0.320  1.00  0.00     0.024 A 
HETATM    3  C   UNL     1      43.293 -30.113   0.783  1.00  0.00     0.001 A 
HETATM    4  C   UNL     1      43.089 -31.482   0.702  1.00  0.00     0.086 A 
HETATM    5  O   UNL     1      42.495 -31.944   1.836  1.00  0.00    -0.304 OA
HETATM    6  C   UNL     1      42.302 -30.866   2.662  1.00  0.00     0.144 A 
HETATM    7  C   UNL     1      42.833 -29.734   2.067  1.00  0.00     0.057 A 
HETATM    8  C   UNL     1      43.456 -32.248  -0.396  1.00  0.00     0.039 A 
HETATM    9  C   UNL     1      44.003 -31.559  -1.492  1.00  0.00     0.013 A 
ENDROOT
BRANCH   1  10
HETATM   10  C   UNL     1      44.653 -29.415  -2.762  1.00  0.00     0.088 C 
HETATM   11  C   UNL     1      45.748 -30.159  -3.549  1.00  0.00     0.071 C 
HETATM   12  C   UNL     1      47.026 -30.305  -2.741  1.00  0.00     0.238 C 
HETATM   13  N   UNL     1      47.552 -28.962  -2.288  1.00  0.00    -0.071 N 
HETATM   14  H   UNL     1      47.911 -28.471  -3.122  1.00  0.00     0.279 HD
HETATM   15  C   UNL     1      46.498 -28.065  -1.667  1.00  0.00     0.238 C 
HETATM   16  C   UNL     1      45.234 -28.013  -2.506  1.00  0.00     0.071 C 
BRANCH  13  17
HETATM   17  C   UNL     1      48.721 -29.088  -1.312  1.00  0.00     0.235 C 
BRANCH  17  18
HETATM   18  C   UNL     1      48.633 -30.351  -0.457  1.00  0.00     0.038 C 
BRANCH  18  19
HETATM   19  C   UNL     1      47.620 -30.186   0.697  1.00  0.00     0.040 C 
HETATM   20  C   UNL     1      46.876 -31.498   0.946  1.00  0.00     0.017 C 
BRANCH  19  21
HETATM   21  C   UNL     1      48.256 -29.704   1.959  1.00  0.00     0.057 A 
HETATM   22  O   UNL     1      49.238 -30.483   2.493  1.00  0.00    -0.319 OA
HETATM   23  C   UNL     1      49.654 -29.873   3.639  1.00  0.00     0.049 A 
HETATM   24  C   UNL     1      50.696 -30.566   4.424  1.00  0.00     0.076 C 
HETATM   25  C   UNL     1      48.963 -28.696   3.826  1.00  0.00     0.035 A 
HETATM   26  C   UNL     1      48.061 -28.585   2.741  1.00  0.00     0.035 A 
ENDBRANCH  19  21
ENDBRANCH  18  19
ENDBRANCH  17  18
ENDBRANCH  13  17
BRANCH  10  27
HETATM   27  O   UNL     1      43.547 -29.247  -3.648  1.00  0.00    -0.385 OA
HETATM   28  H   UNL     1      43.850 -28.873  -4.496  1.00  0.00     0.211 HD
ENDBRANCH  10  27
ENDBRANCH   1  10
BRANCH   6  29
HETATM   29  C   UNL     1      41.698 -31.017   3.974  1.00  0.00     0.277 C 
HETATM   30  N   UNL     1      42.231 -31.936   4.902  1.00  0.00    -0.345 N 
HETATM   31  C   UNL     1      41.643 -31.966   6.245  1.00  0.00     0.154 C 
HETATM   32  C   UNL     1      43.309 -32.884   4.621  1.00  0.00     0.128 C 
HETATM   33  C   UNL     1      42.648 -31.657   7.367  1.00  0.00     0.254 C 
HETATM   34  N   UNL     1      43.638 -32.805   7.537  1.00  0.00    -0.073 N 
HETATM   35  H   UNL     1      43.140 -33.673   7.302  1.00  0.00     0.279 HD
HETATM   36  C   UNL     1      44.031 -32.972   8.989  1.00  0.00     0.269 C 
HETATM   37  C   UNL     1      44.868 -32.734   6.665  1.00  0.00     0.236 C 
HETATM   38  C   UNL     1      44.620 -32.380   5.202  1.00  0.00     0.048 C 
HETATM   39  O   UNL     1      40.701 -30.361   4.276  1.00  0.00    -0.265 OA
ENDBRANCH   6  29
TORSDOF 7
ENDMDL
MODEL 10
REMARK VINA RESULT:      -8.5     18.196     19.935
REMARK  7 active torsions:
REMARK  status: ('A' for Active; 'I' for Inactive)
REMARK    1  A    between atoms: C_4  and  C_5 
REMARK    2  A    between atoms: C_5  and  C_6 
REMARK    3  A    between atoms: C_6  and  C_7 
REMARK    4  A    between atoms: C_7  and  N_8 
REMARK    5  A    between atoms: C_12  and  O_13 
REMARK    6  A    between atoms: C_12  and  C_14 
REMARK    7  A    between atoms: C_19  and  C_20 
REMARK       I    between atoms: C_20  and  N_21 
ROOT
HETATM    1  C   UNL     1      44.151 -30.043  -1.435  1.00  0.00    -0.023 A 
HETATM    2  C   UNL     1      43.444 -29.295  -0.463  1.00  0.00     0.024 A 
HETATM    3  C   UNL     1      42.966 -29.919   0.706  1.00  0.00     0.001 A 
HETATM    4  C   UNL     1      43.259 -31.258   0.912  1.00  0.00     0.086 A 
HETATM    5  O   UNL     1      42.684 -31.700   2.064  1.00  0.00    -0.304 OA
HETATM    6  C   UNL     1      42.003 -30.642   2.610  1.00  0.00     0.144 A 
HETATM    7  C   UNL     1      42.203 -29.517   1.828  1.00  0.00     0.057 A 
HETATM    8  C   UNL     1      44.039 -32.015   0.048  1.00  0.00     0.039 A 
HETATM    9  C   UNL     1      44.486 -31.377  -1.121  1.00  0.00     0.013 A 
ENDROOT
BRANCH   1  10
HETATM   10  C   UNL     1      44.558 -29.403  -2.773  1.00  0.00     0.088 C 
HETATM   11  C   UNL     1      45.470 -30.285  -3.647  1.00  0.00     0.071 C 
HETATM   12  C   UNL     1      46.817 -30.532  -2.991  1.00  0.00     0.238 C 
HETATM   13  N   UNL     1      47.525 -29.234  -2.670  1.00  0.00    -0.071 N 
HETATM   14  H   UNL     1      47.824 -28.813  -3.564  1.00  0.00     0.279 HD
HETATM   15  C   UNL     1      46.648 -28.210  -1.973  1.00  0.00     0.238 C 
HETATM   16  C   UNL     1      45.301 -28.059  -2.657  1.00  0.00     0.071 C 
BRANCH  13  17
HETATM   17  C   UNL     1      48.787 -29.444  -1.835  1.00  0.00     0.235 C 
BRANCH  17  18
HETATM   18  C   UNL     1      48.621 -28.958  -0.396  1.00  0.00     0.038 C 
BRANCH  18  19
HETATM   19  C   UNL     1      48.658 -30.130   0.608  1.00  0.00     0.040 C 
HETATM   20  C   UNL     1      50.055 -30.272   1.213  1.00  0.00     0.017 C 
BRANCH  19  21
HETATM   21  C   UNL     1      47.637 -29.998   1.688  1.00  0.00     0.057 A 
HETATM   22  O   UNL     1      47.947 -30.535   2.901  1.00  0.00    -0.319 OA
HETATM   23  C   UNL     1      46.877 -30.324   3.718  1.00  0.00     0.049 A 
HETATM   24  C   UNL     1      46.967 -30.866   5.090  1.00  0.00     0.076 C 
HETATM   25  C   UNL     1      45.896 -29.633   3.043  1.00  0.00     0.035 A 
HETATM   26  C   UNL     1      46.385 -29.421   1.732  1.00  0.00     0.035 A 
ENDBRANCH  19  21
ENDBRANCH  18  19
ENDBRANCH  17  18
ENDBRANCH  13  17
BRANCH  10  27
HETATM   27  O   UNL     1      43.374 -29.155  -3.529  1.00  0.00    -0.385 OA
HETATM   28  H   UNL     1      42.852 -28.445  -3.112  1.00  0.00     0.211 HD
ENDBRANCH  10  27
ENDBRANCH   1  10
BRANCH   6  29
HETATM   29  C   UNL     1      41.283 -30.773   3.866  1.00  0.00     0.277 C 
HETATM   30  N   UNL     1      40.258 -31.731   4.003  1.00  0.00    -0.345 N 
HETATM   31  C   UNL     1      39.643 -31.885   5.325  1.00  0.00     0.154 C 
HETATM   32  C   UNL     1      39.739 -32.565   2.920  1.00  0.00     0.128 C 
HETATM   33  C   UNL     1      39.783 -33.300   5.910  1.00  0.00     0.254 C 
HETATM   34  N   UNL     1      38.909 -34.290   5.146  1.00  0.00    -0.073 N 
HETATM   35  H   UNL     1      38.079 -33.776   4.822  1.00  0.00     0.279 HD
HETATM   36  C   UNL     1      38.360 -35.356   6.070  1.00  0.00     0.269 C 
HETATM   37  C   UNL     1      39.553 -34.924   3.937  1.00  0.00     0.236 C 
HETATM   38  C   UNL     1      40.309 -33.971   3.016  1.00  0.00     0.048 C 
HETATM   39  O   UNL     1      41.549 -30.030   4.811  1.00  0.00    -0.265 OA
ENDBRANCH   6  29
TORSDOF 7
ENDMDL
