MODEL 1
REMARK VINA RESULT:      -8.4      0.000      0.000
REMARK  9 active torsions:
REMARK  status: ('A' for Active; 'I' for Inactive)
REMARK    1  A    between atoms: C_7  and  O_8 
REMARK    2  A    between atoms: O_8  and  C_9 
REMARK    3  A    between atoms: C_9  and  C_10 
REMARK    4  A    between atoms: C_10  and  O_11 
REMARK    5  A    between atoms: C_10  and  C_12 
REMARK    6  A    between atoms: C_12  and  N_13 
REMARK    7  A    between atoms: N_18  and  C_19 
REMARK    8  A    between atoms: C_19  and  C_20 
REMARK    9  A    between atoms: C_20  and  N_21 
ROOT
HETATM    1  N   UNL     1      41.021 -13.351   3.437  1.00  0.00    -0.179 N 
HETATM    2  C   UNL     1      41.571 -12.251   4.065  1.00  0.00     0.681 A 
HETATM    3  N   UNL     1      41.791 -11.084   3.459  1.00  0.00    -0.234 N 
HETATM    4  H   UNL     1      42.100 -10.240   3.907  1.00  0.00     0.174 HD
HETATM    5  H   UNL     1      41.707 -11.064   2.434  1.00  0.00     0.174 HD
HETATM    6  N   UNL     1      41.874 -12.478   5.406  1.00  0.00    -0.180 N 
HETATM    7  C   UNL     1      41.444 -13.821   5.644  1.00  0.00     0.079 A 
HETATM    8  C   UNL     1      40.937 -14.353   4.445  1.00  0.00     0.079 A 
HETATM    9  C   UNL     1      41.473 -14.555   6.811  1.00  0.00     0.032 A 
HETATM   10  C   UNL     1      40.983 -15.864   6.753  1.00  0.00     0.002 A 
HETATM   11  C   UNL     1      40.480 -16.400   5.551  1.00  0.00     0.002 A 
HETATM   12  C   UNL     1      40.450 -15.640   4.376  1.00  0.00     0.032 A 
ENDROOT
BRANCH   1  13
HETATM   13  C   UNL     1      40.506 -13.452   2.058  1.00  0.00     0.181 C 
BRANCH  13  14
HETATM   14  C   UNL     1      41.568 -13.893   1.045  1.00  0.00     0.161 C 
BRANCH  14  15
HETATM   15  C   UNL     1      41.881 -15.391   1.170  1.00  0.00     0.209 C 
BRANCH  15  16
HETATM   16  O   UNL     1      43.106 -15.483   1.903  1.00  0.00    -0.349 OA
BRANCH  16  17
HETATM   17  C   UNL     1      43.361 -16.663   2.548  1.00  0.00     0.069 A 
HETATM   18  C   UNL     1      43.748 -16.523   3.881  1.00  0.00     0.038 A 
HETATM   19  C   UNL     1      44.051 -17.647   4.650  1.00  0.00     0.027 A 
HETATM   20  C   UNL     1      43.966 -18.923   4.090  1.00  0.00     0.040 A 
HETATM   21  C   UNL     1      43.567 -19.086   2.755  1.00  0.00    -0.038 A 
HETATM   22 CL   UNL     1      44.370 -20.272   5.088  1.00  0.00    -0.084 Cl
HETATM   23  C   UNL     1      43.474 -20.446   2.120  1.00  0.00     0.050 C 
HETATM   24  C   UNL     1      43.270 -17.941   1.990  1.00  0.00     0.045 A 
ENDBRANCH  16  17
ENDBRANCH  15  16
ENDBRANCH  14  15
BRANCH  14  25
HETATM   25  O   UNL     1      41.082 -13.626  -0.289  1.00  0.00    -0.392 OA
HETATM   26  H   UNL     1      40.609 -14.452  -0.549  1.00  0.00     0.210 HD
ENDBRANCH  14  25
ENDBRANCH  13  14
ENDBRANCH   1  13
BRANCH   6  27
HETATM   27  C   UNL     1      42.402 -11.544   6.406  1.00  0.00     0.175 C 
BRANCH  27  28
HETATM   28  C   UNL     1      43.784 -11.963   6.948  1.00  0.00     0.256 C 
BRANCH  28  29
HETATM   29  N   UNL     1      44.443 -10.886   7.790  1.00  0.00    -0.066 N 
HETATM   30  H   UNL     1      44.666 -11.264   8.722  1.00  0.00     0.280 HD
HETATM   31  C   UNL     1      45.797 -10.467   7.178  1.00  0.00     0.261 C 
HETATM   32  C   UNL     1      46.446  -9.381   8.043  1.00  0.00     0.195 C 
HETATM   33  O   UNL     1      45.578  -8.252   8.165  1.00  0.00    -0.388 OA
HETATM   34  C   UNL     1      44.349  -8.592   8.811  1.00  0.00     0.195 C 
HETATM   35  C   UNL     1      43.579  -9.635   7.994  1.00  0.00     0.261 C 
ENDBRANCH  28  29
ENDBRANCH  27  28
ENDBRANCH   6  27
TORSDOF 9
ENDMDL
MODEL 2
REMARK VINA RESULT:      -8.2      2.892      4.954
REMARK  9 active torsions:
REMARK  status: ('A' for Active; 'I' for Inactive)
REMARK    1  A    between atoms: C_7  and  O_8 
REMARK    2  A    between atoms: O_8  and  C_9 
REMARK    3  A    between atoms: C_9  and  C_10 
REMARK    4  A    between atoms: C_10  and  O_11 
REMARK    5  A    between atoms: C_10  and  C_12 
REMARK    6  A    between atoms: C_12  and  N_13 
REMARK    7  A    between atoms: N_18  and  C_19 
REMARK    8  A    between atoms: C_19  and  C_20 
REMARK    9  A    between atoms: C_20  and  N_21 
ROOT
HETATM    1  N   UNL     1      42.899 -11.350   6.356  1.00  0.00    -0.179 N 
HETATM    2  C   UNL     1      41.843 -10.551   6.749  1.00  0.00     0.681 A 
HETATM    3  N   UNL     1      40.582 -10.749   6.367  1.00  0.00    -0.234 N 
HETATM    4  H   UNL     1      39.780 -10.247   6.707  1.00  0.00     0.174 HD
HETATM    5  H   UNL     1      40.421 -11.422   5.606  1.00  0.00     0.174 HD
HETATM    6  N   UNL     1      42.227  -9.512   7.595  1.00  0.00    -0.180 N 
HETATM    7  C   UNL     1      43.633  -9.700   7.772  1.00  0.00     0.079 A 
HETATM    8  C   UNL     1      44.041 -10.808   7.010  1.00  0.00     0.079 A 
HETATM    9  C   UNL     1      44.522  -8.976   8.539  1.00  0.00     0.032 A 
HETATM   10  C   UNL     1      45.859  -9.387   8.523  1.00  0.00     0.002 A 
HETATM   11  C   UNL     1      46.270 -10.495   7.755  1.00  0.00     0.002 A 
HETATM   12  C   UNL     1      45.355 -11.223   6.987  1.00  0.00     0.032 A 
ENDROOT
BRANCH   1  13
HETATM   13  C   UNL     1      42.859 -12.578   5.539  1.00  0.00     0.181 C 
BRANCH  13  14
HETATM   14  C   UNL     1      42.207 -13.764   6.259  1.00  0.00     0.161 C 
BRANCH  14  15
HETATM   15  C   UNL     1      42.084 -14.986   5.337  1.00  0.00     0.209 C 
BRANCH  15  16
HETATM   16  O   UNL     1      43.404 -15.519   5.201  1.00  0.00    -0.349 OA
BRANCH  16  17
HETATM   17  C   UNL     1      43.531 -16.713   4.545  1.00  0.00     0.069 A 
HETATM   18  C   UNL     1      43.262 -16.655   3.177  1.00  0.00     0.038 A 
HETATM   19  C   UNL     1      43.342 -17.805   2.391  1.00  0.00     0.027 A 
HETATM   20  C   UNL     1      43.696 -19.025   2.969  1.00  0.00     0.040 A 
HETATM   21  C   UNL     1      43.982 -19.103   4.341  1.00  0.00    -0.038 A 
HETATM   22 CL   UNL     1      43.762 -20.415   1.948  1.00  0.00    -0.084 Cl
HETATM   23  C   UNL     1      44.358 -20.404   4.995  1.00  0.00     0.050 C 
HETATM   24  C   UNL     1      43.891 -17.934   5.121  1.00  0.00     0.045 A 
ENDBRANCH  16  17
ENDBRANCH  15  16
ENDBRANCH  14  15
BRANCH  14  25
HETATM   25  O   UNL     1      43.015 -14.119   7.403  1.00  0.00    -0.392 OA
HETATM   26  H   UNL     1      43.939 -13.910   7.127  1.00  0.00     0.210 HD
ENDBRANCH  14  25
ENDBRANCH  13  14
ENDBRANCH   1  13
BRANCH   6  27
HETATM   27  C   UNL     1      41.392  -8.509   8.265  1.00  0.00     0.175 C 
BRANCH  27  28
HETATM   28  C   UNL     1      40.333  -9.135   9.197  1.00  0.00     0.256 C 
BRANCH  28  29
HETATM   29  N   UNL     1      40.903  -9.570  10.534  1.00  0.00    -0.066 N 
HETATM   30  H   UNL     1      41.482 -10.411  10.406  1.00  0.00     0.280 HD
HETATM   31  C   UNL     1      41.853  -8.492  11.099  1.00  0.00     0.261 C 
HETATM   32  C   UNL     1      42.418  -8.951  12.448  1.00  0.00     0.195 C 
HETATM   33  O   UNL     1      41.359  -9.220  13.369  1.00  0.00    -0.388 OA
HETATM   34  C   UNL     1      40.512 -10.277  12.914  1.00  0.00     0.195 C 
HETATM   35  C   UNL     1      39.839  -9.899  11.590  1.00  0.00     0.261 C 
ENDBRANCH  28  29
ENDBRANCH  27  28
ENDBRANCH   6  27
TORSDOF 9
ENDMDL
MODEL 3
REMARK VINA RESULT:      -8.2      3.283      7.270
REMARK  9 active torsions:
REMARK  status: ('A' for Active; 'I' for Inactive)
REMARK    1  A    between atoms: C_7  and  O_8 
REMARK    2  A    between atoms: O_8  and  C_9 
REMARK    3  A    between atoms: C_9  and  C_10 
REMARK    4  A    between atoms: C_10  and  O_11 
REMARK    5  A    between atoms: C_10  and  C_12 
REMARK    6  A    between atoms: C_12  and  N_13 
REMARK    7  A    between atoms: N_18  and  C_19 
REMARK    8  A    between atoms: C_19  and  C_20 
REMARK    9  A    between atoms: C_20  and  N_21 
ROOT
HETATM    1  N   UNL     1      41.926 -16.268   5.425  1.00  0.00    -0.179 N 
HETATM    2  C   UNL     1      41.070 -15.730   4.484  1.00  0.00     0.681 A 
HETATM    3  N   UNL     1      40.139 -14.818   4.764  1.00  0.00    -0.234 N 
HETATM    4  H   UNL     1      39.565 -14.340   4.092  1.00  0.00     0.174 HD
HETATM    5  H   UNL     1      39.938 -14.642   5.758  1.00  0.00     0.174 HD
HETATM    6  N   UNL     1      41.277 -16.234   3.201  1.00  0.00    -0.180 N 
HETATM    7  C   UNL     1      42.378 -17.134   3.348  1.00  0.00     0.079 A 
HETATM    8  C   UNL     1      42.764 -17.162   4.700  1.00  0.00     0.079 A 
HETATM    9  C   UNL     1      43.025 -17.887   2.391  1.00  0.00     0.032 A 
HETATM   10  C   UNL     1      44.083 -18.694   2.822  1.00  0.00     0.002 A 
HETATM   11  C   UNL     1      44.467 -18.727   4.178  1.00  0.00     0.002 A 
HETATM   12  C   UNL     1      43.805 -17.951   5.137  1.00  0.00     0.032 A 
ENDROOT
BRANCH   1  13
HETATM   13  C   UNL     1      42.052 -15.914   6.852  1.00  0.00     0.181 C 
BRANCH  13  14
HETATM   14  C   UNL     1      43.258 -15.015   7.150  1.00  0.00     0.161 C 
BRANCH  14  15
HETATM   15  C   UNL     1      43.224 -13.729   6.312  1.00  0.00     0.209 C 
BRANCH  15  16
HETATM   16  O   UNL     1      44.422 -13.014   6.628  1.00  0.00    -0.349 OA
BRANCH  16  17
HETATM   17  C   UNL     1      44.282 -11.741   7.109  1.00  0.00     0.069 A 
HETATM   18  C   UNL     1      45.458 -11.173   7.598  1.00  0.00     0.038 A 
HETATM   19  C   UNL     1      45.452  -9.883   8.130  1.00  0.00     0.027 A 
HETATM   20  C   UNL     1      44.266  -9.149   8.174  1.00  0.00     0.040 A 
HETATM   21  C   UNL     1      43.074  -9.697   7.676  1.00  0.00    -0.038 A 
HETATM   22 CL   UNL     1      44.320  -7.565   8.858  1.00  0.00    -0.084 Cl
HETATM   23  C   UNL     1      41.778  -8.935   7.717  1.00  0.00     0.050 C 
HETATM   24  C   UNL     1      43.096 -11.003   7.148  1.00  0.00     0.045 A 
ENDBRANCH  16  17
ENDBRANCH  15  16
ENDBRANCH  14  15
BRANCH  14  25
HETATM   25  O   UNL     1      43.245 -14.663   8.551  1.00  0.00    -0.392 OA
HETATM   26  H   UNL     1      42.427 -15.087   8.904  1.00  0.00     0.210 HD
ENDBRANCH  14  25
ENDBRANCH  13  14
ENDBRANCH   1  13
BRANCH   6  27
HETATM   27  C   UNL     1      40.618 -15.863   1.944  1.00  0.00     0.175 C 
BRANCH  27  28
HETATM   28  C   UNL     1      41.428 -14.840   1.121  1.00  0.00     0.256 C 
BRANCH  28  29
HETATM   29  N   UNL     1      41.427 -13.451   1.732  1.00  0.00    -0.066 N 
HETATM   30  H   UNL     1      40.715 -13.401   2.475  1.00  0.00     0.280 HD
HETATM   31  C   UNL     1      42.774 -13.160   2.428  1.00  0.00     0.261 C 
HETATM   32  C   UNL     1      42.752 -11.755   3.040  1.00  0.00     0.195 C 
HETATM   33  O   UNL     1      42.482 -10.775   2.034  1.00  0.00    -0.388 OA
HETATM   34  C   UNL     1      41.201 -10.966   1.433  1.00  0.00     0.195 C 
HETATM   35  C   UNL     1      41.130 -12.327   0.731  1.00  0.00     0.261 C 
ENDBRANCH  28  29
ENDBRANCH  27  28
ENDBRANCH   6  27
TORSDOF 9
ENDMDL
MODEL 4
REMARK VINA RESULT:      -8.1      2.455      3.438
REMARK  9 active torsions:
REMARK  status: ('A' for Active; 'I' for Inactive)
REMARK    1  A    between atoms: C_7  and  O_8 
REMARK    2  A    between atoms: O_8  and  C_9 
REMARK    3  A    between atoms: C_9  and  C_10 
REMARK    4  A    between atoms: C_10  and  O_11 
REMARK    5  A    between atoms: C_10  and  C_12 
REMARK    6  A    between atoms: C_12  and  N_13 
REMARK    7  A    between atoms: N_18  and  C_19 
REMARK    8  A    between atoms: C_19  and  C_20 
REMARK    9  A    between atoms: C_20  and  N_21 
ROOT
HETATM    1  N   UNL     1      41.168 -12.855   5.389  1.00  0.00    -0.179 N 
HETATM    2  C   UNL     1      40.349 -11.769   5.632  1.00  0.00     0.681 A 
HETATM    3  N   UNL     1      39.065 -11.714   5.277  1.00  0.00    -0.234 N 
HETATM    4  H   UNL     1      38.420 -10.983   5.520  1.00  0.00     0.174 HD
HETATM    5  H   UNL     1      38.723 -12.444   4.638  1.00  0.00     0.174 HD
HETATM    6  N   UNL     1      40.999 -10.730   6.295  1.00  0.00    -0.180 N 
HETATM    7  C   UNL     1      42.323 -11.222   6.514  1.00  0.00     0.079 A 
HETATM    8  C   UNL     1      42.427 -12.507   5.954  1.00  0.00     0.079 A 
HETATM    9  C   UNL     1      43.385 -10.620   7.157  1.00  0.00     0.032 A 
HETATM   10  C   UNL     1      44.581 -11.340   7.223  1.00  0.00     0.002 A 
HETATM   11  C   UNL     1      44.688 -12.627   6.656  1.00  0.00     0.002 A 
HETATM   12  C   UNL     1      43.600 -13.227   6.013  1.00  0.00     0.032 A 
ENDROOT
BRANCH   1  13
HETATM   13  C   UNL     1      40.806 -14.154   4.790  1.00  0.00     0.181 C 
BRANCH  13  14
HETATM   14  C   UNL     1      40.603 -14.087   3.272  1.00  0.00     0.161 C 
BRANCH  14  15
HETATM   15  C   UNL     1      41.169 -15.331   2.572  1.00  0.00     0.209 C 
BRANCH  15  16
HETATM   16  O   UNL     1      42.535 -15.434   2.981  1.00  0.00    -0.349 OA
BRANCH  16  17
HETATM   17  C   UNL     1      42.994 -16.678   3.321  1.00  0.00     0.069 A 
HETATM   18  C   UNL     1      43.458 -16.786   4.633  1.00  0.00     0.038 A 
HETATM   19  C   UNL     1      43.966 -17.997   5.105  1.00  0.00     0.027 A 
HETATM   20  C   UNL     1      44.010 -19.112   4.267  1.00  0.00     0.040 A 
HETATM   21  C   UNL     1      43.537 -19.027   2.949  1.00  0.00    -0.038 A 
HETATM   22 CL   UNL     1      44.664 -20.576   4.905  1.00  0.00    -0.084 Cl
HETATM   23  C   UNL     1      43.581 -20.209   2.018  1.00  0.00     0.050 C 
HETATM   24  C   UNL     1      43.034 -17.796   2.485  1.00  0.00     0.045 A 
ENDBRANCH  16  17
ENDBRANCH  15  16
ENDBRANCH  14  15
BRANCH  14  25
HETATM   25  O   UNL     1      39.189 -13.994   2.992  1.00  0.00    -0.392 OA
HETATM   26  H   UNL     1      39.028 -13.030   2.856  1.00  0.00     0.210 HD
ENDBRANCH  14  25
ENDBRANCH  13  14
ENDBRANCH   1  13
BRANCH   6  27
HETATM   27  C   UNL     1      40.452  -9.457   6.778  1.00  0.00     0.175 C 
BRANCH  27  28
HETATM   28  C   UNL     1      39.571  -9.620   8.034  1.00  0.00     0.256 C 
BRANCH  28  29
HETATM   29  N   UNL     1      40.377  -9.747   9.313  1.00  0.00    -0.066 N 
HETATM   30  H   UNL     1      40.926 -10.619   9.290  1.00  0.00     0.280 HD
HETATM   31  C   UNL     1      41.413  -8.607   9.420  1.00  0.00     0.261 C 
HETATM   32  C   UNL     1      42.218  -8.754  10.716  1.00  0.00     0.195 C 
HETATM   33  O   UNL     1      41.346  -8.751  11.849  1.00  0.00    -0.388 OA
HETATM   34  C   UNL     1      40.433  -9.849  11.823  1.00  0.00     0.195 C 
HETATM   35  C   UNL     1      39.527  -9.770  10.589  1.00  0.00     0.261 C 
ENDBRANCH  28  29
ENDBRANCH  27  28
ENDBRANCH   6  27
TORSDOF 9
ENDMDL
MODEL 5
REMARK VINA RESULT:      -8.1      3.105      6.061
REMARK  9 active torsions:
REMARK  status: ('A' for Active; 'I' for Inactive)
REMARK    1  A    between atoms: C_7  and  O_8 
REMARK    2  A    between atoms: O_8  and  C_9 
REMARK    3  A    between atoms: C_9  and  C_10 
REMARK    4  A    between atoms: C_10  and  O_11 
REMARK    5  A    between atoms: C_10  and  C_12 
REMARK    6  A    between atoms: C_12  and  N_13 
REMARK    7  A    between atoms: N_18  and  C_19 
REMARK    8  A    between atoms: C_19  and  C_20 
REMARK    9  A    between atoms: C_20  and  N_21 
ROOT
HETATM    1  N   UNL     1      40.553 -13.367   4.003  1.00  0.00    -0.179 N 
HETATM    2  C   UNL     1      40.950 -12.102   3.618  1.00  0.00     0.681 A 
HETATM    3  N   UNL     1      41.243 -11.123   4.474  1.00  0.00    -0.234 N 
HETATM    4  H   UNL     1      41.623 -10.225   4.232  1.00  0.00     0.174 HD
HETATM    5  H   UNL     1      40.990 -11.271   5.461  1.00  0.00     0.174 HD
HETATM    6  N   UNL     1      41.021 -11.947   2.235  1.00  0.00    -0.180 N 
HETATM    7  C   UNL     1      40.673 -13.232   1.716  1.00  0.00     0.079 A 
HETATM    8  C   UNL     1      40.378 -14.090   2.790  1.00  0.00     0.079 A 
HETATM    9  C   UNL     1      40.612 -13.659   0.405  1.00  0.00     0.032 A 
HETATM   10  C   UNL     1      40.234 -14.988   0.185  1.00  0.00     0.002 A 
HETATM   11  C   UNL     1      39.933 -15.847   1.261  1.00  0.00     0.002 A 
HETATM   12  C   UNL     1      40.006 -15.401   2.585  1.00  0.00     0.032 A 
ENDROOT
BRANCH   1  13
HETATM   13  C   UNL     1      40.448 -13.914   5.370  1.00  0.00     0.181 C 
BRANCH  13  14
HETATM   14  C   UNL     1      41.810 -14.212   6.009  1.00  0.00     0.161 C 
BRANCH  14  15
HETATM   15  C   UNL     1      42.858 -14.593   4.954  1.00  0.00     0.209 C 
BRANCH  15  16
HETATM   16  O   UNL     1      43.608 -15.677   5.508  1.00  0.00    -0.349 OA
BRANCH  16  17
HETATM   17  C   UNL     1      43.662 -16.835   4.781  1.00  0.00     0.069 A 
HETATM   18  C   UNL     1      43.358 -16.686   3.428  1.00  0.00     0.038 A 
HETATM   19  C   UNL     1      43.364 -17.791   2.576  1.00  0.00     0.027 A 
HETATM   20  C   UNL     1      43.678 -19.056   3.073  1.00  0.00     0.040 A 
HETATM   21  C   UNL     1      43.998 -19.227   4.428  1.00  0.00    -0.038 A 
HETATM   22 CL   UNL     1      43.652 -20.386   1.973  1.00  0.00    -0.084 Cl
HETATM   23  C   UNL     1      44.331 -20.579   4.996  1.00  0.00     0.050 C 
HETATM   24  C   UNL     1      43.982 -18.102   5.277  1.00  0.00     0.045 A 
ENDBRANCH  16  17
ENDBRANCH  15  16
ENDBRANCH  14  15
BRANCH  14  25
HETATM   25  O   UNL     1      42.262 -13.037   6.717  1.00  0.00    -0.392 OA
HETATM   26  H   UNL     1      41.958 -12.281   6.161  1.00  0.00     0.210 HD
ENDBRANCH  14  25
ENDBRANCH  13  14
ENDBRANCH   1  13
BRANCH   6  27
HETATM   27  C   UNL     1      41.461 -10.784   1.456  1.00  0.00     0.175 C 
BRANCH  27  28
HETATM   28  C   UNL     1      40.298  -9.851   1.060  1.00  0.00     0.256 C 
BRANCH  28  29
HETATM   29  N   UNL     1      39.979  -9.896  -0.422  1.00  0.00    -0.066 N 
HETATM   30  H   UNL     1      39.776  -8.945  -0.761  1.00  0.00     0.280 HD
HETATM   31  C   UNL     1      41.205 -10.373  -1.230  1.00  0.00     0.261 C 
HETATM   32  C   UNL     1      40.863 -10.410  -2.724  1.00  0.00     0.195 C 
HETATM   33  O   UNL     1      39.742 -11.265  -2.959  1.00  0.00    -0.388 OA
HETATM   34  C   UNL     1      38.567 -10.799  -2.295  1.00  0.00     0.195 C 
HETATM   35  C   UNL     1      38.775 -10.779  -0.777  1.00  0.00     0.261 C 
ENDBRANCH  28  29
ENDBRANCH  27  28
ENDBRANCH   6  27
TORSDOF 9
ENDMDL
MODEL 6
REMARK VINA RESULT:      -8.1      3.250      6.479
REMARK  9 active torsions:
REMARK  status: ('A' for Active; 'I' for Inactive)
REMARK    1  A    between atoms: C_7  and  O_8 
REMARK    2  A    between atoms: O_8  and  C_9 
REMARK    3  A    between atoms: C_9  and  C_10 
REMARK    4  A    between atoms: C_10  and  O_11 
REMARK    5  A    between atoms: C_10  and  C_12 
REMARK    6  A    between atoms: C_12  and  N_13 
REMARK    7  A    between atoms: N_18  and  C_19 
REMARK    8  A    between atoms: C_19  and  C_20 
REMARK    9  A    between atoms: C_20  and  N_21 
ROOT
HETATM    1  N   UNL     1      40.290 -13.954   5.035  1.00  0.00    -0.179 N 
HETATM    2  C   UNL     1      40.305 -14.190   3.674  1.00  0.00     0.681 A 
HETATM    3  N   UNL     1      40.690 -15.343   3.126  1.00  0.00    -0.234 N 
HETATM    4  H   UNL     1      40.626 -15.579   2.151  1.00  0.00     0.174 HD
HETATM    5  H   UNL     1      41.162 -16.021   3.740  1.00  0.00     0.174 HD
HETATM    6  N   UNL     1      39.872 -13.100   2.923  1.00  0.00    -0.180 N 
HETATM    7  C   UNL     1      39.523 -12.114   3.897  1.00  0.00     0.079 A 
HETATM    8  C   UNL     1      39.788 -12.630   5.178  1.00  0.00     0.079 A 
HETATM    9  C   UNL     1      39.005 -10.849   3.715  1.00  0.00     0.032 A 
HETATM   10  C   UNL     1      38.759 -10.089   4.864  1.00  0.00     0.002 A 
HETATM   11  C   UNL     1      39.030 -10.603   6.148  1.00  0.00     0.002 A 
HETATM   12  C   UNL     1      39.549 -11.892   6.317  1.00  0.00     0.032 A 
ENDROOT
BRANCH   1  13
HETATM   13  C   UNL     1      40.598 -14.896   6.128  1.00  0.00     0.181 C 
BRANCH  13  14
HETATM   14  C   UNL     1      42.007 -14.716   6.704  1.00  0.00     0.161 C 
BRANCH  14  15
HETATM   15  C   UNL     1      42.752 -16.055   6.804  1.00  0.00     0.209 C 
BRANCH  15  16
HETATM   16  O   UNL     1      43.709 -16.060   5.742  1.00  0.00    -0.349 OA
BRANCH  16  17
HETATM   17  C   UNL     1      43.750 -17.169   4.942  1.00  0.00     0.069 A 
HETATM   18  C   UNL     1      43.568 -16.911   3.583  1.00  0.00     0.038 A 
HETATM   19  C   UNL     1      43.574 -17.956   2.658  1.00  0.00     0.027 A 
HETATM   20  C   UNL     1      43.765 -19.270   3.087  1.00  0.00     0.040 A 
HETATM   21  C   UNL     1      43.962 -19.550   4.448  1.00  0.00    -0.038 A 
HETATM   22 CL   UNL     1      43.746 -20.520   1.897  1.00  0.00    -0.084 Cl
HETATM   23  C   UNL     1      44.162 -20.956   4.942  1.00  0.00     0.050 C 
HETATM   24  C   UNL     1      43.948 -18.485   5.369  1.00  0.00     0.045 A 
ENDBRANCH  16  17
ENDBRANCH  15  16
ENDBRANCH  14  15
BRANCH  14  25
HETATM   25  O   UNL     1      42.754 -13.826   5.846  1.00  0.00    -0.392 OA
HETATM   26  H   UNL     1      43.152 -13.167   6.462  1.00  0.00     0.210 HD
ENDBRANCH  14  25
ENDBRANCH  13  14
ENDBRANCH   1  13
BRANCH   6  27
HETATM   27  C   UNL     1      39.689 -12.991   1.471  1.00  0.00     0.175 C 
BRANCH  27  28
HETATM   28  C   UNL     1      41.001 -12.678   0.722  1.00  0.00     0.256 C 
BRANCH  28  29
HETATM   29  N   UNL     1      40.951 -13.057  -0.746  1.00  0.00    -0.066 N 
HETATM   30  H   UNL     1      41.753 -13.662  -0.974  1.00  0.00     0.280 HD
HETATM   31  C   UNL     1      39.695 -13.901  -1.050  1.00  0.00     0.261 C 
HETATM   32  C   UNL     1      39.664 -14.275  -2.536  1.00  0.00     0.195 C 
HETATM   33  O   UNL     1      39.689 -13.099  -3.348  1.00  0.00    -0.388 OA
HETATM   34  C   UNL     1      40.885 -12.342  -3.154  1.00  0.00     0.195 C 
HETATM   35  C   UNL     1      40.990 -11.859  -1.703  1.00  0.00     0.261 C 
ENDBRANCH  28  29
ENDBRANCH  27  28
ENDBRANCH   6  27
TORSDOF 9
ENDMDL
MODEL 7
REMARK VINA RESULT:      -8.0      2.091      3.392
REMARK  9 active torsions:
REMARK  status: ('A' for Active; 'I' for Inactive)
REMARK    1  A    between atoms: C_7  and  O_8 
REMARK    2  A    between atoms: O_8  and  C_9 
REMARK    3  A    between atoms: C_9  and  C_10 
REMARK    4  A    between atoms: C_10  and  O_11 
REMARK    5  A    between atoms: C_10  and  C_12 
REMARK    6  A    between atoms: C_12  and  N_13 
REMARK    7  A    between atoms: N_18  and  C_19 
REMARK    8  A    between atoms: C_19  and  C_20 
REMARK    9  A    between atoms: C_20  and  N_21 
ROOT
HETATM    1  N   UNL     1      39.701 -13.289   2.913  1.00  0.00    -0.179 N 
HETATM    2  C   UNL     1      40.035 -13.188   4.250  1.00  0.00     0.681 A 
HETATM    3  N   UNL     1      40.671 -14.142   4.929  1.00  0.00    -0.234 N 
HETATM    4  H   UNL     1      41.010 -14.064   5.872  1.00  0.00     0.174 HD
HETATM    5  H   UNL     1      40.757 -15.063   4.478  1.00  0.00     0.174 HD
HETATM    6  N   UNL     1      39.644 -11.979   4.823  1.00  0.00    -0.180 N 
HETATM    7  C   UNL     1      39.048 -11.253   3.746  1.00  0.00     0.079 A 
HETATM    8  C   UNL     1      39.073 -12.053   2.590  1.00  0.00     0.079 A 
HETATM    9  C   UNL     1      38.516  -9.980   3.738  1.00  0.00     0.032 A 
HETATM   10  C   UNL     1      37.990  -9.516   2.528  1.00  0.00     0.002 A 
HETATM   11  C   UNL     1      38.010 -10.320   1.370  1.00  0.00     0.002 A 
HETATM   12  C   UNL     1      38.559 -11.607   1.392  1.00  0.00     0.032 A 
ENDROOT
BRANCH   1  13
HETATM   13  C   UNL     1      40.026 -14.378   1.971  1.00  0.00     0.181 C 
BRANCH  13  14
HETATM   14  C   UNL     1      41.358 -14.169   1.240  1.00  0.00     0.161 C 
BRANCH  14  15
HETATM   15  C   UNL     1      42.323 -15.339   1.479  1.00  0.00     0.209 C 
BRANCH  15  16
HETATM   16  O   UNL     1      42.084 -15.788   2.816  1.00  0.00    -0.349 OA
BRANCH  16  17
HETATM   17  C   UNL     1      42.682 -16.957   3.198  1.00  0.00     0.069 A 
HETATM   18  C   UNL     1      43.126 -16.976   4.521  1.00  0.00     0.038 A 
HETATM   19  C   UNL     1      43.765 -18.104   5.036  1.00  0.00     0.027 A 
HETATM   20  C   UNL     1      43.964 -19.226   4.230  1.00  0.00     0.040 A 
HETATM   21  C   UNL     1      43.515 -19.232   2.901  1.00  0.00    -0.038 A 
HETATM   22 CL   UNL     1      44.776 -20.583   4.920  1.00  0.00    -0.084 Cl
HETATM   23  C   UNL     1      43.722 -20.422   2.004  1.00  0.00     0.050 C 
HETATM   24  C   UNL     1      42.876 -18.083   2.394  1.00  0.00     0.045 A 
ENDBRANCH  16  17
ENDBRANCH  15  16
ENDBRANCH  14  15
BRANCH  14  25
HETATM   25  O   UNL     1      41.101 -14.054  -0.177  1.00  0.00    -0.392 OA
HETATM   26  H   UNL     1      41.968 -14.256  -0.601  1.00  0.00     0.210 HD
ENDBRANCH  14  25
ENDBRANCH  13  14
ENDBRANCH   1  13
BRANCH   6  27
HETATM   27  C   UNL     1      39.877 -11.483   6.183  1.00  0.00     0.175 C 
BRANCH  27  28
HETATM   28  C   UNL     1      41.103 -10.550   6.280  1.00  0.00     0.256 C 
BRANCH  28  29
HETATM   29  N   UNL     1      42.403 -11.238   5.908  1.00  0.00    -0.066 N 
HETATM   30  H   UNL     1      42.260 -12.258   5.883  1.00  0.00     0.280 HD
HETATM   31  C   UNL     1      42.839 -10.845   4.480  1.00  0.00     0.261 C 
HETATM   32  C   UNL     1      44.152 -11.551   4.123  1.00  0.00     0.195 C 
HETATM   33  O   UNL     1      45.171 -11.221   5.069  1.00  0.00    -0.388 OA
HETATM   34  C   UNL     1      44.834 -11.653   6.388  1.00  0.00     0.195 C 
HETATM   35  C   UNL     1      43.559 -10.958   6.877  1.00  0.00     0.261 C 
ENDBRANCH  28  29
ENDBRANCH  27  28
ENDBRANCH   6  27
TORSDOF 9
ENDMDL
MODEL 8
REMARK VINA RESULT:      -8.0      3.534      7.548
REMARK  9 active torsions:
REMARK  status: ('A' for Active; 'I' for Inactive)
REMARK    1  A    between atoms: C_7  and  O_8 
REMARK    2  A    between atoms: O_8  and  C_9 
REMARK    3  A    between atoms: C_9  and  C_10 
REMARK    4  A    between atoms: C_10  and  O_11 
REMARK    5  A    between atoms: C_10  and  C_12 
REMARK    6  A    between atoms: C_12  and  N_13 
REMARK    7  A    between atoms: N_18  and  C_19 
REMARK    8  A    between atoms: C_19  and  C_20 
REMARK    9  A    between atoms: C_20  and  N_21 
ROOT
HETATM    1  N   UNL     1      41.750 -16.238   5.498  1.00  0.00    -0.179 N 
HETATM    2  C   UNL     1      40.982 -15.608   4.539  1.00  0.00     0.681 A 
HETATM    3  N   UNL     1      40.074 -14.671   4.814  1.00  0.00    -0.234 N 
HETATM    4  H   UNL     1      39.567 -14.129   4.137  1.00  0.00     0.174 HD
HETATM    5  H   UNL     1      39.816 -14.543   5.801  1.00  0.00     0.174 HD
HETATM    6  N   UNL     1      41.252 -16.046   3.244  1.00  0.00    -0.180 N 
HETATM    7  C   UNL     1      42.301 -17.003   3.406  1.00  0.00     0.079 A 
HETATM    8  C   UNL     1      42.595 -17.127   4.775  1.00  0.00     0.079 A 
HETATM    9  C   UNL     1      42.978 -17.730   2.448  1.00  0.00     0.032 A 
HETATM   10  C   UNL     1      43.969 -18.609   2.897  1.00  0.00     0.002 A 
HETATM   11  C   UNL     1      44.260 -18.738   4.270  1.00  0.00     0.002 A 
HETATM   12  C   UNL     1      43.570 -17.988   5.230  1.00  0.00     0.032 A 
ENDROOT
BRANCH   1  13
HETATM   13  C   UNL     1      41.796 -15.973   6.949  1.00  0.00     0.181 C 
BRANCH  13  14
HETATM   14  C   UNL     1      43.130 -15.380   7.416  1.00  0.00     0.161 C 
BRANCH  14  15
HETATM   15  C   UNL     1      43.144 -13.850   7.285  1.00  0.00     0.209 C 
BRANCH  15  16
HETATM   16  O   UNL     1      43.618 -13.566   5.966  1.00  0.00    -0.349 OA
BRANCH  16  17
HETATM   17  C   UNL     1      42.955 -12.600   5.259  1.00  0.00     0.069 A 
HETATM   18  C   UNL     1      43.393 -12.440   3.944  1.00  0.00     0.038 A 
HETATM   19  C   UNL     1      42.811 -11.480   3.116  1.00  0.00     0.027 A 
HETATM   20  C   UNL     1      41.781 -10.671   3.599  1.00  0.00     0.040 A 
HETATM   21  C   UNL     1      41.318 -10.823   4.915  1.00  0.00    -0.038 A 
HETATM   22 CL   UNL     1      41.113  -9.491   2.532  1.00  0.00    -0.084 Cl
HETATM   23  C   UNL     1      40.216  -9.961   5.467  1.00  0.00     0.050 C 
HETATM   24  C   UNL     1      41.920 -11.793   5.739  1.00  0.00     0.045 A 
ENDBRANCH  16  17
ENDBRANCH  15  16
ENDBRANCH  14  15
BRANCH  14  25
HETATM   25  O   UNL     1      43.342 -15.735   8.800  1.00  0.00    -0.392 OA
HETATM   26  H   UNL     1      42.522 -16.219   9.058  1.00  0.00     0.210 HD
ENDBRANCH  14  25
ENDBRANCH  13  14
ENDBRANCH   1  13
BRANCH   6  27
HETATM   27  C   UNL     1      40.695 -15.573   1.972  1.00  0.00     0.175 C 
BRANCH  27  28
HETATM   28  C   UNL     1      41.587 -14.523   1.279  1.00  0.00     0.256 C 
BRANCH  28  29
HETATM   29  N   UNL     1      40.872 -13.776   0.168  1.00  0.00    -0.066 N 
HETATM   30  H   UNL     1      41.549 -13.513  -0.562  1.00  0.00     0.280 HD
HETATM   31  C   UNL     1      39.842 -14.690  -0.529  1.00  0.00     0.261 C 
HETATM   32  C   UNL     1      39.132 -13.919  -1.647  1.00  0.00     0.195 C 
HETATM   33  O   UNL     1      38.496 -12.751  -1.124  1.00  0.00    -0.388 OA
HETATM   34  C   UNL     1      39.437 -11.842  -0.550  1.00  0.00     0.195 C 
HETATM   35  C   UNL     1      40.168 -12.493   0.629  1.00  0.00     0.261 C 
ENDBRANCH  28  29
ENDBRANCH  27  28
ENDBRANCH   6  27
TORSDOF 9
ENDMDL
MODEL 9
REMARK VINA RESULT:      -7.9      4.272      6.495
REMARK  9 active torsions:
REMARK  status: ('A' for Active; 'I' for Inactive)
REMARK    1  A    between atoms: C_7  and  O_8 
REMARK    2  A    between atoms: O_8  and  C_9 
REMARK    3  A    between atoms: C_9  and  C_10 
REMARK    4  A    between atoms: C_10  and  O_11 
REMARK    5  A    between atoms: C_10  and  C_12 
REMARK    6  A    between atoms: C_12  and  N_13 
REMARK    7  A    between atoms: N_18  and  C_19 
REMARK    8  A    between atoms: C_19  and  C_20 
REMARK    9  A    between atoms: C_20  and  N_21 
ROOT
HETATM    1  N   UNL     1      39.936 -13.612   0.196  1.00  0.00    -0.179 N 
HETATM    2  C   UNL     1      39.482 -12.355   0.545  1.00  0.00     0.681 A 
HETATM    3  N   UNL     1      39.908 -11.683   1.615  1.00  0.00    -0.234 N 
HETATM    4  H   UNL     1      39.670 -10.735   1.845  1.00  0.00     0.174 HD
HETATM    5  H   UNL     1      40.470 -12.203   2.303  1.00  0.00     0.174 HD
HETATM    6  N   UNL     1      38.531 -11.850  -0.339  1.00  0.00    -0.180 N 
HETATM    7  C   UNL     1      38.407 -12.860  -1.342  1.00  0.00     0.079 A 
HETATM    8  C   UNL     1      39.252 -13.934  -1.010  1.00  0.00     0.079 A 
HETATM    9  C   UNL     1      37.626 -12.874  -2.479  1.00  0.00     0.032 A 
HETATM   10  C   UNL     1      37.702 -14.010  -3.292  1.00  0.00     0.002 A 
HETATM   11  C   UNL     1      38.545 -15.088  -2.957  1.00  0.00     0.002 A 
HETATM   12  C   UNL     1      39.337 -15.058  -1.803  1.00  0.00     0.032 A 
ENDROOT
BRANCH   1  13
HETATM   13  C   UNL     1      40.993 -14.412   0.843  1.00  0.00     0.181 C 
BRANCH  13  14
HETATM   14  C   UNL     1      40.495 -15.209   2.054  1.00  0.00     0.161 C 
BRANCH  14  15
HETATM   15  C   UNL     1      41.422 -15.034   3.265  1.00  0.00     0.209 C 
BRANCH  15  16
HETATM   16  O   UNL     1      42.718 -15.464   2.843  1.00  0.00    -0.349 OA
BRANCH  16  17
HETATM   17  C   UNL     1      43.118 -16.716   3.225  1.00  0.00     0.069 A 
HETATM   18  C   UNL     1      43.528 -16.813   4.555  1.00  0.00     0.038 A 
HETATM   19  C   UNL     1      43.973 -18.031   5.070  1.00  0.00     0.027 A 
HETATM   20  C   UNL     1      44.007 -19.165   4.257  1.00  0.00     0.040 A 
HETATM   21  C   UNL     1      43.587 -19.091   2.920  1.00  0.00    -0.038 A 
HETATM   22 CL   UNL     1      44.582 -20.638   4.948  1.00  0.00    -0.084 Cl
HETATM   23  C   UNL     1      43.620 -20.292   2.016  1.00  0.00     0.050 C 
HETATM   24  C   UNL     1      43.147 -17.853   2.413  1.00  0.00     0.045 A 
ENDBRANCH  16  17
ENDBRANCH  15  16
ENDBRANCH  14  15
BRANCH  14  25
HETATM   25  O   UNL     1      39.171 -14.749   2.405  1.00  0.00    -0.392 OA
HETATM   26  H   UNL     1      38.686 -14.718   1.547  1.00  0.00     0.210 HD
ENDBRANCH  14  25
ENDBRANCH  13  14
ENDBRANCH   1  13
BRANCH   6  27
HETATM   27  C   UNL     1      37.873 -10.539  -0.339  1.00  0.00     0.175 C 
BRANCH  27  28
HETATM   28  C   UNL     1      38.248  -9.679  -1.564  1.00  0.00     0.256 C 
BRANCH  28  29
HETATM   29  N   UNL     1      39.601  -9.006  -1.425  1.00  0.00    -0.066 N 
HETATM   30  H   UNL     1      39.616  -8.141  -1.984  1.00  0.00     0.280 HD
HETATM   31  C   UNL     1      39.843  -8.562   0.034  1.00  0.00     0.261 C 
HETATM   32  C   UNL     1      41.212  -7.884   0.153  1.00  0.00     0.195 C 
HETATM   33  O   UNL     1      42.247  -8.768  -0.282  1.00  0.00    -0.388 OA
HETATM   34  C   UNL     1      42.100  -9.126  -1.657  1.00  0.00     0.195 C 
HETATM   35  C   UNL     1      40.781  -9.873  -1.884  1.00  0.00     0.261 C 
ENDBRANCH  28  29
ENDBRANCH  27  28
ENDBRANCH   6  27
TORSDOF 9
ENDMDL
MODEL 10
REMARK VINA RESULT:      -7.8      3.025      5.132
REMARK  9 active torsions:
REMARK  status: ('A' for Active; 'I' for Inactive)
REMARK    1  A    between atoms: C_7  and  O_8 
REMARK    2  A    between atoms: O_8  and  C_9 
REMARK    3  A    between atoms: C_9  and  C_10 
REMARK    4  A    between atoms: C_10  and  O_11 
REMARK    5  A    between atoms: C_10  and  C_12 
REMARK    6  A    between atoms: C_12  and  N_13 
REMARK    7  A    between atoms: N_18  and  C_19 
REMARK    8  A    between atoms: C_19  and  C_20 
REMARK    9  A    between atoms: C_20  and  N_21 
ROOT
HETATM    1  N   UNL     1      43.035 -10.982   6.586  1.00  0.00    -0.179 N 
HETATM    2  C   UNL     1      41.998 -10.315   7.209  1.00  0.00     0.681 A 
HETATM    3  N   UNL     1      40.711 -10.520   6.932  1.00  0.00    -0.234 N 
HETATM    4  H   UNL     1      39.933 -10.123   7.428  1.00  0.00     0.174 HD
HETATM    5  H   UNL     1      40.494 -11.074   6.092  1.00  0.00     0.174 HD
HETATM    6  N   UNL     1      42.432  -9.401   8.168  1.00  0.00    -0.180 N 
HETATM    7  C   UNL     1      43.855  -9.535   8.167  1.00  0.00     0.079 A 
HETATM    8  C   UNL     1      44.220 -10.487   7.199  1.00  0.00     0.079 A 
HETATM    9  C   UNL     1      44.795  -8.892   8.946  1.00  0.00     0.032 A 
HETATM   10  C   UNL     1      46.137  -9.220   8.727  1.00  0.00     0.002 A 
HETATM   11  C   UNL     1      46.504 -10.170   7.753  1.00  0.00     0.002 A 
HETATM   12  C   UNL     1      45.539 -10.819   6.975  1.00  0.00     0.032 A 
ENDROOT
BRANCH   1  13
HETATM   13  C   UNL     1      42.953 -12.068   5.590  1.00  0.00     0.181 C 
BRANCH  13  14
HETATM   14  C   UNL     1      43.576 -11.701   4.239  1.00  0.00     0.161 C 
BRANCH  14  15
HETATM   15  C   UNL     1      43.332 -12.794   3.189  1.00  0.00     0.209 C 
BRANCH  15  16
HETATM   16  O   UNL     1      42.513 -13.781   3.821  1.00  0.00    -0.349 OA
BRANCH  16  17
HETATM   17  C   UNL     1      42.834 -15.093   3.605  1.00  0.00     0.069 A 
HETATM   18  C   UNL     1      42.779 -15.491   2.269  1.00  0.00     0.038 A 
HETATM   19  C   UNL     1      43.071 -16.808   1.911  1.00  0.00     0.027 A 
HETATM   20  C   UNL     1      43.424 -17.738   2.890  1.00  0.00     0.040 A 
HETATM   21  C   UNL     1      43.497 -17.355   4.238  1.00  0.00    -0.038 A 
HETATM   22 CL   UNL     1      43.758 -19.354   2.386  1.00  0.00    -0.084 Cl
HETATM   23  C   UNL     1      43.866 -18.335   5.317  1.00  0.00     0.050 C 
HETATM   24  C   UNL     1      43.194 -16.023   4.583  1.00  0.00     0.045 A 
ENDBRANCH  16  17
ENDBRANCH  15  16
ENDBRANCH  14  15
BRANCH  14  25
HETATM   25  O   UNL     1      42.989 -10.465   3.773  1.00  0.00    -0.392 OA
HETATM   26  H   UNL     1      43.508 -10.235   2.966  1.00  0.00     0.210 HD
ENDBRANCH  14  25
ENDBRANCH  13  14
ENDBRANCH   1  13
BRANCH   6  27
HETATM   27  C   UNL     1      41.638  -8.563   9.072  1.00  0.00     0.175 C 
BRANCH  27  28
HETATM   28  C   UNL     1      40.986  -9.366  10.218  1.00  0.00     0.256 C 
BRANCH  28  29
HETATM   29  N   UNL     1      41.266  -8.778  11.588  1.00  0.00    -0.066 N 
HETATM   30  H   UNL     1      40.772  -7.879  11.686  1.00  0.00     0.280 HD
HETATM   31  C   UNL     1      40.697  -9.687  12.699  1.00  0.00     0.261 C 
HETATM   32  C   UNL     1      40.987  -9.075  14.073  1.00  0.00     0.195 C 
HETATM   33  O   UNL     1      42.393  -8.885  14.250  1.00  0.00    -0.388 OA
HETATM   34  C   UNL     1      42.932  -7.976  13.289  1.00  0.00     0.195 C 
HETATM   35  C   UNL     1      42.752  -8.520  11.868  1.00  0.00     0.261 C 
ENDBRANCH  28  29
ENDBRANCH  27  28
ENDBRANCH   6  27
TORSDOF 9
ENDMDL
