MODEL 1
REMARK VINA RESULT:      -8.5      0.000      0.000
REMARK  3 active torsions:
REMARK  status: ('A' for Active; 'I' for Inactive)
REMARK    1  A    between atoms: C_3  and  N_4 
REMARK    2  A    between atoms: C_14  and  N_15 
REMARK       I    between atoms: N_15  and  C_16 
REMARK    3  A    between atoms: C_16  and  C_17 
ROOT
HETATM    1  N   UNL     1      39.957 -13.590   0.802  1.00  0.00    -0.237 N 
HETATM    2  N   UNL     1      39.378 -12.587   1.519  1.00  0.00    -0.179 NA
HETATM    3  C   UNL     1      39.688 -12.830   2.789  1.00  0.00     0.150 A 
HETATM    4  C   UNL     1      40.469 -13.981   2.934  1.00  0.00     0.008 A 
HETATM    5  C   UNL     1      40.658 -14.447   1.644  1.00  0.00     0.047 A 
HETATM    6  C   UNL     1      41.288 -15.761   1.305  1.00  0.00     0.069 C 
HETATM    7  C   UNL     1      42.140 -16.304   2.495  1.00  0.00    -0.040 C 
HETATM    8  C   UNL     1      43.520 -15.615   2.513  1.00  0.00     0.015 C 
HETATM    9  C   UNL     1      42.375 -17.813   2.281  1.00  0.00     0.015 C 
HETATM   10  C   UNL     1      41.395 -16.110   3.854  1.00  0.00     0.039 C 
HETATM   11  C   UNL     1      40.947 -14.662   4.166  1.00  0.00     0.122 C 
ENDROOT
BRANCH  11  12
HETATM   12  N   UNL     1      42.004 -13.858   4.747  1.00  0.00    -0.347 N 
HETATM   13  C   UNL     1      41.734 -12.960   5.746  1.00  0.00     0.270 C 
HETATM   14  O   UNL     1      40.615 -12.785   6.220  1.00  0.00    -0.266 OA
HETATM   15  H   UNL     1      42.944 -13.986   4.402  1.00  0.00     0.163 HD
BRANCH  13  16
HETATM   16  C   UNL     1      42.887 -12.168   6.245  1.00  0.00     0.120 A 
HETATM   17  N   UNL     1      43.268 -12.247   7.568  1.00  0.00    -0.303 N 
HETATM   18  C   UNL     1      44.358 -11.406   7.792  1.00  0.00     0.324 A 
HETATM   19  H   UNL     1      42.815 -12.821   8.263  1.00  0.00     0.171 HD
HETATM   20  O   UNL     1      44.955 -11.213   8.832  1.00  0.00    -0.247 OA
HETATM   21  N   UNL     1      44.613 -10.826   6.541  1.00  0.00    -0.316 N 
HETATM   22  C   UNL     1      43.707 -11.304   5.624  1.00  0.00     0.128 A 
HETATM   23  H   UNL     1      45.353 -10.159   6.385  1.00  0.00     0.170 HD
ENDBRANCH  13  16
ENDBRANCH  11  12
BRANCH   1  24
HETATM   24  C   UNL     1      39.793 -13.643  -0.614  1.00  0.00     0.064 A 
HETATM   25  C   UNL     1      40.322 -12.637  -1.457  1.00  0.00    -0.033 A 
HETATM   26  C   UNL     1      41.049 -11.416  -0.952  1.00  0.00     0.050 C 
HETATM   27  C   UNL     1      40.146 -12.756  -2.848  1.00  0.00     0.009 A 
HETATM   28  C   UNL     1      39.456 -13.837  -3.398  1.00  0.00     0.001 A 
HETATM   29  C   UNL     1      38.949 -14.828  -2.568  1.00  0.00     0.002 A 
HETATM   30  C   UNL     1      39.122 -14.736  -1.185  1.00  0.00     0.032 A 
ENDBRANCH   1  24
TORSDOF 3
ENDMDL
MODEL 2
REMARK VINA RESULT:      -8.4      3.843      6.505
REMARK  3 active torsions:
REMARK  status: ('A' for Active; 'I' for Inactive)
REMARK    1  A    between atoms: C_3  and  N_4 
REMARK    2  A    between atoms: C_14  and  N_15 
REMARK       I    between atoms: N_15  and  C_16 
REMARK    3  A    between atoms: C_16  and  C_17 
ROOT
HETATM    1  N   UNL     1      42.700 -13.398   5.634  1.00  0.00    -0.237 N 
HETATM    2  N   UNL     1      43.813 -13.537   6.407  1.00  0.00    -0.179 NA
HETATM    3  C   UNL     1      43.934 -12.390   7.069  1.00  0.00     0.150 A 
HETATM    4  C   UNL     1      42.917 -11.484   6.752  1.00  0.00     0.008 A 
HETATM    5  C   UNL     1      42.113 -12.156   5.847  1.00  0.00     0.047 A 
HETATM    6  C   UNL     1      40.989 -11.525   5.087  1.00  0.00     0.069 C 
HETATM    7  C   UNL     1      40.509 -10.208   5.774  1.00  0.00    -0.040 C 
HETATM    8  C   UNL     1      39.566 -10.539   6.949  1.00  0.00     0.015 C 
HETATM    9  C   UNL     1      39.704  -9.385   4.747  1.00  0.00     0.015 C 
HETATM   10  C   UNL     1      41.723  -9.348   6.250  1.00  0.00     0.039 C 
HETATM   11  C   UNL     1      42.727 -10.072   7.178  1.00  0.00     0.122 C 
ENDROOT
BRANCH  11  12
HETATM   12  N   UNL     1      42.311 -10.071   8.567  1.00  0.00    -0.347 N 
HETATM   13  C   UNL     1      43.150  -9.613   9.550  1.00  0.00     0.270 C 
HETATM   14  O   UNL     1      44.274  -9.170   9.334  1.00  0.00    -0.266 OA
HETATM   15  H   UNL     1      41.385 -10.407   8.787  1.00  0.00     0.163 HD
BRANCH  13  16
HETATM   16  C   UNL     1      42.631  -9.687  10.940  1.00  0.00     0.120 A 
HETATM   17  N   UNL     1      41.340 -10.107  11.182  1.00  0.00    -0.303 N 
HETATM   18  C   UNL     1      41.087 -10.076  12.553  1.00  0.00     0.324 A 
HETATM   19  H   UNL     1      40.682 -10.384  10.468  1.00  0.00     0.171 HD
HETATM   20  O   UNL     1      40.062 -10.371  13.134  1.00  0.00    -0.247 OA
HETATM   21  N   UNL     1      42.288  -9.624  13.118  1.00  0.00    -0.316 N 
HETATM   22  C   UNL     1      43.204  -9.394  12.119  1.00  0.00     0.128 A 
HETATM   23  H   UNL     1      42.413  -9.492  14.111  1.00  0.00     0.170 HD
ENDBRANCH  13  16
ENDBRANCH  11  12
BRANCH   1  24
HETATM   24  C   UNL     1      42.296 -14.456   4.767  1.00  0.00     0.064 A 
HETATM   25  C   UNL     1      41.215 -15.308   5.095  1.00  0.00    -0.033 A 
HETATM   26  C   UNL     1      40.435 -15.217   6.381  1.00  0.00     0.050 C 
HETATM   27  C   UNL     1      40.852 -16.322   4.187  1.00  0.00     0.009 A 
HETATM   28  C   UNL     1      41.542 -16.498   2.988  1.00  0.00     0.001 A 
HETATM   29  C   UNL     1      42.595 -15.652   2.665  1.00  0.00     0.002 A 
HETATM   30  C   UNL     1      42.966 -14.632   3.545  1.00  0.00     0.032 A 
ENDBRANCH   1  24
TORSDOF 3
ENDMDL
MODEL 3
REMARK VINA RESULT:      -8.2      3.592      6.551
REMARK  3 active torsions:
REMARK  status: ('A' for Active; 'I' for Inactive)
REMARK    1  A    between atoms: C_3  and  N_4 
REMARK    2  A    between atoms: C_14  and  N_15 
REMARK       I    between atoms: N_15  and  C_16 
REMARK    3  A    between atoms: C_16  and  C_17 
ROOT
HETATM    1  N   UNL     1      41.939 -15.457   4.370  1.00  0.00    -0.237 N 
HETATM    2  N   UNL     1      40.760 -15.452   3.686  1.00  0.00    -0.179 NA
HETATM    3  C   UNL     1      40.323 -14.197   3.737  1.00  0.00     0.150 A 
HETATM    4  C   UNL     1      41.192 -13.360   4.443  1.00  0.00     0.008 A 
HETATM    5  C   UNL     1      42.242 -14.177   4.823  1.00  0.00     0.047 A 
HETATM    6  C   UNL     1      43.338 -13.766   5.755  1.00  0.00     0.069 C 
HETATM    7  C   UNL     1      43.446 -12.211   5.850  1.00  0.00    -0.040 C 
HETATM    8  C   UNL     1      44.231 -11.662   4.640  1.00  0.00     0.015 C 
HETATM    9  C   UNL     1      44.241 -11.853   7.122  1.00  0.00     0.015 C 
HETATM   10  C   UNL     1      42.033 -11.554   5.951  1.00  0.00     0.039 C 
HETATM   11  C   UNL     1      41.044 -11.929   4.821  1.00  0.00     0.122 C 
ENDROOT
BRANCH  11  12
HETATM   12  N   UNL     1      41.221 -11.126   3.628  1.00  0.00    -0.347 N 
HETATM   13  C   UNL     1      40.140 -10.607   2.965  1.00  0.00     0.270 C 
HETATM   14  O   UNL     1      38.978 -10.766   3.328  1.00  0.00    -0.266 OA
HETATM   15  H   UNL     1      42.162 -10.951   3.307  1.00  0.00     0.163 HD
BRANCH  13  16
HETATM   16  C   UNL     1      40.437  -9.825   1.738  1.00  0.00     0.120 A 
HETATM   17  N   UNL     1      41.669  -9.928   1.126  1.00  0.00    -0.303 N 
HETATM   18  C   UNL     1      41.709  -9.092   0.010  1.00  0.00     0.324 A 
HETATM   19  H   UNL     1      42.424 -10.514   1.450  1.00  0.00     0.171 HD
HETATM   20  O   UNL     1      42.629  -8.918  -0.765  1.00  0.00    -0.247 OA
HETATM   21  N   UNL     1      40.443  -8.490  -0.019  1.00  0.00    -0.316 N 
HETATM   22  C   UNL     1      39.695  -8.950   1.038  1.00  0.00     0.128 A 
HETATM   23  H   UNL     1      40.169  -7.820  -0.722  1.00  0.00     0.170 HD
ENDBRANCH  13  16
ENDBRANCH  11  12
BRANCH   1  24
HETATM   24  C   UNL     1      42.667 -16.673   4.529  1.00  0.00     0.064 A 
HETATM   25  C   UNL     1      43.333 -17.282   3.439  1.00  0.00    -0.033 A 
HETATM   26  C   UNL     1      43.299 -16.748   2.030  1.00  0.00     0.050 C 
HETATM   27  C   UNL     1      44.054 -18.471   3.665  1.00  0.00     0.009 A 
HETATM   28  C   UNL     1      44.110 -19.051   4.931  1.00  0.00     0.001 A 
HETATM   29  C   UNL     1      43.464 -18.443   6.000  1.00  0.00     0.002 A 
HETATM   30  C   UNL     1      42.753 -17.257   5.803  1.00  0.00     0.032 A 
ENDBRANCH   1  24
TORSDOF 3
ENDMDL
MODEL 4
REMARK VINA RESULT:      -7.9      3.214      7.085
REMARK  3 active torsions:
REMARK  status: ('A' for Active; 'I' for Inactive)
REMARK    1  A    between atoms: C_3  and  N_4 
REMARK    2  A    between atoms: C_14  and  N_15 
REMARK       I    between atoms: N_15  and  C_16 
REMARK    3  A    between atoms: C_16  and  C_17 
ROOT
HETATM    1  N   UNL     1      41.703 -15.678   3.972  1.00  0.00    -0.237 N 
HETATM    2  N   UNL     1      40.568 -15.915   3.258  1.00  0.00    -0.179 NA
HETATM    3  C   UNL     1      40.071 -14.716   2.967  1.00  0.00     0.150 A 
HETATM    4  C   UNL     1      40.858 -13.678   3.475  1.00  0.00     0.008 A 
HETATM    5  C   UNL     1      41.921 -14.310   4.097  1.00  0.00     0.047 A 
HETATM    6  C   UNL     1      42.941 -13.613   4.942  1.00  0.00     0.069 C 
HETATM    7  C   UNL     1      42.972 -12.081   4.642  1.00  0.00    -0.040 C 
HETATM    8  C   UNL     1      43.800 -11.810   3.369  1.00  0.00     0.015 C 
HETATM    9  C   UNL     1      43.674 -11.367   5.815  1.00  0.00     0.015 C 
HETATM   10  C   UNL     1      41.527 -11.505   4.509  1.00  0.00     0.039 C 
HETATM   11  C   UNL     1      40.623 -12.210   3.469  1.00  0.00     0.122 C 
ENDROOT
BRANCH  11  12
HETATM   12  N   UNL     1      40.832 -11.724   2.120  1.00  0.00    -0.347 N 
HETATM   13  C   UNL     1      39.772 -11.517   1.276  1.00  0.00     0.270 C 
HETATM   14  O   UNL     1      38.602 -11.707   1.594  1.00  0.00    -0.266 OA
HETATM   15  H   UNL     1      41.778 -11.533   1.823  1.00  0.00     0.163 HD
BRANCH  13  16
HETATM   16  C   UNL     1      40.106 -11.047  -0.093  1.00  0.00     0.120 A 
HETATM   17  N   UNL     1      40.481 -11.948  -1.068  1.00  0.00    -0.303 N 
HETATM   18  C   UNL     1      40.756 -11.267  -2.254  1.00  0.00     0.324 A 
HETATM   19  H   UNL     1      40.552 -12.946  -0.932  1.00  0.00     0.171 HD
HETATM   20  O   UNL     1      41.117 -11.729  -3.318  1.00  0.00    -0.247 OA
HETATM   21  N   UNL     1      40.523  -9.920  -1.943  1.00  0.00    -0.316 N 
HETATM   22  C   UNL     1      40.133  -9.816  -0.629  1.00  0.00     0.128 A 
HETATM   23  H   UNL     1      40.645  -9.173  -2.610  1.00  0.00     0.170 HD
ENDBRANCH  13  16
ENDBRANCH  11  12
BRANCH   1  24
HETATM   24  C   UNL     1      42.476 -16.769   4.468  1.00  0.00     0.064 A 
HETATM   25  C   UNL     1      43.287 -17.550   3.610  1.00  0.00    -0.033 A 
HETATM   26  C   UNL     1      43.374 -17.343   2.120  1.00  0.00     0.050 C 
HETATM   27  C   UNL     1      44.043 -18.601   4.164  1.00  0.00     0.009 A 
HETATM   28  C   UNL     1      43.995 -18.883   5.528  1.00  0.00     0.001 A 
HETATM   29  C   UNL     1      43.207 -18.106   6.368  1.00  0.00     0.002 A 
HETATM   30  C   UNL     1      42.457 -17.052   5.844  1.00  0.00     0.032 A 
ENDBRANCH   1  24
TORSDOF 3
ENDMDL
MODEL 5
REMARK VINA RESULT:      -7.9      4.622     10.616
REMARK  3 active torsions:
REMARK  status: ('A' for Active; 'I' for Inactive)
REMARK    1  A    between atoms: C_3  and  N_4 
REMARK    2  A    between atoms: C_14  and  N_15 
REMARK       I    between atoms: N_15  and  C_16 
REMARK    3  A    between atoms: C_16  and  C_17 
ROOT
HETATM    1  N   UNL     1      41.444  -8.527  10.951  1.00  0.00    -0.237 N 
HETATM    2  N   UNL     1      40.140  -8.587  10.562  1.00  0.00    -0.179 NA
HETATM    3  C   UNL     1      40.164  -8.945   9.282  1.00  0.00     0.150 A 
HETATM    4  C   UNL     1      41.466  -9.128   8.806  1.00  0.00     0.008 A 
HETATM    5  C   UNL     1      42.280  -8.882   9.898  1.00  0.00     0.047 A 
HETATM    6  C   UNL     1      43.772  -8.785   9.834  1.00  0.00     0.069 C 
HETATM    7  C   UNL     1      44.329  -9.469   8.546  1.00  0.00    -0.040 C 
HETATM    8  C   UNL     1      44.410 -10.996   8.753  1.00  0.00     0.015 C 
HETATM    9  C   UNL     1      45.762  -8.956   8.299  1.00  0.00     0.015 C 
HETATM   10  C   UNL     1      43.458  -9.114   7.299  1.00  0.00     0.039 C 
HETATM   11  C   UNL     1      41.948  -9.428   7.432  1.00  0.00     0.122 C 
ENDROOT
BRANCH  11  12
HETATM   12  N   UNL     1      41.632 -10.810   7.133  1.00  0.00    -0.347 N 
HETATM   13  C   UNL     1      41.111 -11.164   5.915  1.00  0.00     0.270 C 
HETATM   14  O   UNL     1      40.894 -10.364   5.010  1.00  0.00    -0.266 OA
HETATM   15  H   UNL     1      41.816 -11.505   7.842  1.00  0.00     0.163 HD
BRANCH  13  16
HETATM   16  C   UNL     1      40.797 -12.603   5.730  1.00  0.00     0.120 A 
HETATM   17  N   UNL     1      41.196 -13.531   6.668  1.00  0.00    -0.303 N 
HETATM   18  C   UNL     1      40.799 -14.806   6.265  1.00  0.00     0.324 A 
HETATM   19  H   UNL     1      41.707 -13.314   7.511  1.00  0.00     0.171 HD
HETATM   20  O   UNL     1      40.981 -15.864   6.834  1.00  0.00    -0.247 OA
HETATM   21  N   UNL     1      40.140 -14.595   5.045  1.00  0.00    -0.316 N 
HETATM   22  C   UNL     1      40.155 -13.254   4.746  1.00  0.00     0.128 A 
HETATM   23  H   UNL     1      39.738 -15.344   4.501  1.00  0.00     0.170 HD
ENDBRANCH  13  16
ENDBRANCH  11  12
BRANCH   1  24
HETATM   24  C   UNL     1      41.775  -8.141  12.283  1.00  0.00     0.064 A 
HETATM   25  C   UNL     1      42.124  -6.807  12.600  1.00  0.00    -0.033 A 
HETATM   26  C   UNL     1      42.227  -5.701  11.581  1.00  0.00     0.050 C 
HETATM   27  C   UNL     1      42.420  -6.483  13.938  1.00  0.00     0.009 A 
HETATM   28  C   UNL     1      42.382  -7.453  14.940  1.00  0.00     0.001 A 
HETATM   29  C   UNL     1      42.027  -8.758  14.626  1.00  0.00     0.002 A 
HETATM   30  C   UNL     1      41.719  -9.100  13.308  1.00  0.00     0.032 A 
ENDBRANCH   1  24
TORSDOF 3
ENDMDL
MODEL 6
REMARK VINA RESULT:      -7.7     15.829     18.482
REMARK  3 active torsions:
REMARK  status: ('A' for Active; 'I' for Inactive)
REMARK    1  A    between atoms: C_3  and  N_4 
REMARK    2  A    between atoms: C_14  and  N_15 
REMARK       I    between atoms: N_15  and  C_16 
REMARK    3  A    between atoms: C_16  and  C_17 
ROOT
HETATM    1  N   UNL     1      48.383 -30.418  -0.805  1.00  0.00    -0.237 N 
HETATM    2  N   UNL     1      48.494 -30.524   0.549  1.00  0.00    -0.179 NA
HETATM    3  C   UNL     1      47.448 -29.872   1.047  1.00  0.00     0.150 A 
HETATM    4  C   UNL     1      46.635 -29.331   0.046  1.00  0.00     0.008 A 
HETATM    5  C   UNL     1      47.233 -29.713  -1.142  1.00  0.00     0.047 A 
HETATM    6  C   UNL     1      46.819 -29.219  -2.493  1.00  0.00     0.069 C 
HETATM    7  C   UNL     1      45.368 -28.643  -2.465  1.00  0.00    -0.040 C 
HETATM    8  C   UNL     1      44.343 -29.794  -2.541  1.00  0.00     0.015 C 
HETATM    9  C   UNL     1      45.168 -27.758  -3.712  1.00  0.00     0.015 C 
HETATM   10  C   UNL     1      45.136 -27.764  -1.195  1.00  0.00     0.039 C 
HETATM   11  C   UNL     1      45.437 -28.456   0.156  1.00  0.00     0.122 C 
ENDROOT
BRANCH  11  12
HETATM   12  N   UNL     1      44.332 -29.261   0.635  1.00  0.00    -0.347 N 
HETATM   13  C   UNL     1      44.046 -29.335   1.974  1.00  0.00     0.270 C 
HETATM   14  O   UNL     1      44.676 -28.734   2.839  1.00  0.00    -0.266 OA
HETATM   15  H   UNL     1      43.773 -29.756  -0.044  1.00  0.00     0.163 HD
BRANCH  13  16
HETATM   16  C   UNL     1      42.911 -30.214   2.354  1.00  0.00     0.120 A 
HETATM   17  N   UNL     1      42.245 -30.019   3.546  1.00  0.00    -0.303 N 
HETATM   18  C   UNL     1      41.236 -30.973   3.680  1.00  0.00     0.324 A 
HETATM   19  H   UNL     1      42.467 -29.299   4.217  1.00  0.00     0.171 HD
HETATM   20  O   UNL     1      40.454 -31.113   4.599  1.00  0.00    -0.247 OA
HETATM   21  N   UNL     1      41.328 -31.743   2.512  1.00  0.00    -0.316 N 
HETATM   22  C   UNL     1      42.350 -31.263   1.729  1.00  0.00     0.128 A 
HETATM   23  H   UNL     1      40.721 -32.526   2.321  1.00  0.00     0.170 HD
ENDBRANCH  13  16
ENDBRANCH  11  12
BRANCH   1  24
HETATM   24  C   UNL     1      49.375 -30.996  -1.650  1.00  0.00     0.064 A 
HETATM   25  C   UNL     1      49.104 -32.147  -2.427  1.00  0.00    -0.033 A 
HETATM   26  C   UNL     1      47.791 -32.887  -2.401  1.00  0.00     0.050 C 
HETATM   27  C   UNL     1      50.119 -32.658  -3.259  1.00  0.00     0.009 A 
HETATM   28  C   UNL     1      51.375 -32.054  -3.318  1.00  0.00     0.001 A 
HETATM   29  C   UNL     1      51.632 -30.918  -2.562  1.00  0.00     0.002 A 
HETATM   30  C   UNL     1      50.638 -30.387  -1.738  1.00  0.00     0.032 A 
ENDBRANCH   1  24
TORSDOF 3
ENDMDL
MODEL 7
REMARK VINA RESULT:      -7.7     16.118     17.664
REMARK  3 active torsions:
REMARK  status: ('A' for Active; 'I' for Inactive)
REMARK    1  A    between atoms: C_3  and  N_4 
REMARK    2  A    between atoms: C_14  and  N_15 
REMARK       I    between atoms: N_15  and  C_16 
REMARK    3  A    between atoms: C_16  and  C_17 
ROOT
HETATM    1  N   UNL     1      46.130 -29.735  -1.444  1.00  0.00    -0.237 N 
HETATM    2  N   UNL     1      47.403 -29.251  -1.490  1.00  0.00    -0.179 NA
HETATM    3  C   UNL     1      47.698 -28.903  -0.241  1.00  0.00     0.150 A 
HETATM    4  C   UNL     1      46.642 -29.148   0.643  1.00  0.00     0.008 A 
HETATM    5  C   UNL     1      45.648 -29.709  -0.140  1.00  0.00     0.047 A 
HETATM    6  C   UNL     1      44.254 -29.980   0.332  1.00  0.00     0.069 C 
HETATM    7  C   UNL     1      44.184 -30.033   1.891  1.00  0.00    -0.040 C 
HETATM    8  C   UNL     1      44.653 -31.414   2.393  1.00  0.00     0.015 C 
HETATM    9  C   UNL     1      42.714 -29.854   2.321  1.00  0.00     0.015 C 
HETATM   10  C   UNL     1      45.027 -28.885   2.530  1.00  0.00     0.039 C 
HETATM   11  C   UNL     1      46.509 -28.821   2.087  1.00  0.00     0.122 C 
ENDROOT
BRANCH  11  12
HETATM   12  N   UNL     1      47.359 -29.725   2.835  1.00  0.00    -0.347 N 
HETATM   13  C   UNL     1      48.484 -29.266   3.471  1.00  0.00     0.270 C 
HETATM   14  O   UNL     1      48.836 -28.091   3.466  1.00  0.00    -0.266 OA
HETATM   15  H   UNL     1      47.095 -30.699   2.884  1.00  0.00     0.163 HD
BRANCH  13  16
HETATM   16  C   UNL     1      49.297 -30.286   4.181  1.00  0.00     0.120 A 
HETATM   17  N   UNL     1      50.606 -30.020   4.525  1.00  0.00    -0.303 N 
HETATM   18  C   UNL     1      51.157 -31.131   5.164  1.00  0.00     0.324 A 
HETATM   19  H   UNL     1      51.087 -29.154   4.330  1.00  0.00     0.171 HD
HETATM   20  O   UNL     1      52.283 -31.263   5.601  1.00  0.00    -0.247 OA
HETATM   21  N   UNL     1      50.115 -32.069   5.192  1.00  0.00    -0.316 N 
HETATM   22  C   UNL     1      49.003 -31.532   4.589  1.00  0.00     0.128 A 
HETATM   23  H   UNL     1      50.215 -32.988   5.595  1.00  0.00     0.170 HD
ENDBRANCH  13  16
ENDBRANCH  11  12
BRANCH   1  24
HETATM   24  C   UNL     1      45.492 -30.178  -2.640  1.00  0.00     0.064 A 
HETATM   25  C   UNL     1      45.053 -29.263  -3.626  1.00  0.00    -0.033 A 
HETATM   26  C   UNL     1      45.168 -27.766  -3.492  1.00  0.00     0.050 C 
HETATM   27  C   UNL     1      44.449 -29.764  -4.795  1.00  0.00     0.009 A 
HETATM   28  C   UNL     1      44.272 -31.134  -4.985  1.00  0.00     0.001 A 
HETATM   29  C   UNL     1      44.715 -32.030  -4.020  1.00  0.00     0.002 A 
HETATM   30  C   UNL     1      45.327 -31.556  -2.857  1.00  0.00     0.032 A 
ENDBRANCH   1  24
TORSDOF 3
ENDMDL
MODEL 8
REMARK VINA RESULT:      -7.7      5.464     11.131
REMARK  3 active torsions:
REMARK  status: ('A' for Active; 'I' for Inactive)
REMARK    1  A    between atoms: C_3  and  N_4 
REMARK    2  A    between atoms: C_14  and  N_15 
REMARK       I    between atoms: N_15  and  C_16 
REMARK    3  A    between atoms: C_16  and  C_17 
ROOT
HETATM    1  N   UNL     1      40.661  -8.632  11.728  1.00  0.00    -0.237 N 
HETATM    2  N   UNL     1      39.955  -9.784  11.903  1.00  0.00    -0.179 NA
HETATM    3  C   UNL     1      39.462 -10.087  10.705  1.00  0.00     0.150 A 
HETATM    4  C   UNL     1      39.830  -9.155   9.729  1.00  0.00     0.008 A 
HETATM    5  C   UNL     1      40.624  -8.238  10.396  1.00  0.00     0.047 A 
HETATM    6  C   UNL     1      41.112  -6.954   9.801  1.00  0.00     0.069 C 
HETATM    7  C   UNL     1      41.056  -6.996   8.241  1.00  0.00    -0.040 C 
HETATM    8  C   UNL     1      42.284  -7.750   7.690  1.00  0.00     0.015 C 
HETATM    9  C   UNL     1      41.121  -5.549   7.710  1.00  0.00     0.015 C 
HETATM   10  C   UNL     1      39.726  -7.644   7.743  1.00  0.00     0.039 C 
HETATM   11  C   UNL     1      39.423  -9.055   8.303  1.00  0.00     0.122 C 
ENDROOT
BRANCH  11  12
HETATM   12  N   UNL     1      40.094 -10.108   7.566  1.00  0.00    -0.347 N 
HETATM   13  C   UNL     1      39.376 -11.030   6.850  1.00  0.00     0.270 C 
HETATM   14  O   UNL     1      38.151 -11.025   6.769  1.00  0.00    -0.266 OA
HETATM   15  H   UNL     1      41.103 -10.136   7.587  1.00  0.00     0.163 HD
BRANCH  13  16
HETATM   16  C   UNL     1      40.164 -12.082   6.160  1.00  0.00     0.120 A 
HETATM   17  N   UNL     1      41.504 -12.248   6.442  1.00  0.00    -0.303 N 
HETATM   18  C   UNL     1      42.023 -13.281   5.661  1.00  0.00     0.324 A 
HETATM   19  H   UNL     1      42.024 -11.695   7.107  1.00  0.00     0.171 HD
HETATM   20  O   UNL     1      43.162 -13.703   5.635  1.00  0.00    -0.247 OA
HETATM   21  N   UNL     1      40.930 -13.727   4.904  1.00  0.00    -0.316 N 
HETATM   22  C   UNL     1      39.820 -12.983   5.225  1.00  0.00     0.128 A 
HETATM   23  H   UNL     1      40.996 -14.476   4.232  1.00  0.00     0.170 HD
ENDBRANCH  13  16
ENDBRANCH  11  12
BRANCH   1  24
HETATM   24  C   UNL     1      41.306  -8.015  12.841  1.00  0.00     0.064 A 
HETATM   25  C   UNL     1      42.716  -7.986  12.955  1.00  0.00    -0.033 A 
HETATM   26  C   UNL     1      43.651  -8.631  11.964  1.00  0.00     0.050 C 
HETATM   27  C   UNL     1      43.293  -7.342  14.066  1.00  0.00     0.009 A 
HETATM   28  C   UNL     1      42.500  -6.748  15.048  1.00  0.00     0.001 A 
HETATM   29  C   UNL     1      41.116  -6.768  14.925  1.00  0.00     0.002 A 
HETATM   30  C   UNL     1      40.522  -7.392  13.826  1.00  0.00     0.032 A 
ENDBRANCH   1  24
TORSDOF 3
ENDMDL
MODEL 9
REMARK VINA RESULT:      -7.7      9.976     13.000
REMARK  3 active torsions:
REMARK  status: ('A' for Active; 'I' for Inactive)
REMARK    1  A    between atoms: C_3  and  N_4 
REMARK    2  A    between atoms: C_14  and  N_15 
REMARK       I    between atoms: N_15  and  C_16 
REMARK    3  A    between atoms: C_16  and  C_17 
ROOT
HETATM    1  N   UNL     1      41.985  -8.501  10.784  1.00  0.00    -0.237 N 
HETATM    2  N   UNL     1      40.857  -8.835  10.098  1.00  0.00    -0.179 NA
HETATM    3  C   UNL     1      39.843  -8.452  10.869  1.00  0.00     0.150 A 
HETATM    4  C   UNL     1      40.275  -7.864  12.062  1.00  0.00     0.008 A 
HETATM    5  C   UNL     1      41.657  -7.877  11.983  1.00  0.00     0.047 A 
HETATM    6  C   UNL     1      42.571  -7.510  13.110  1.00  0.00     0.069 C 
HETATM    7  C   UNL     1      41.828  -6.653  14.183  1.00  0.00    -0.040 C 
HETATM    8  C   UNL     1      41.755  -5.181  13.725  1.00  0.00     0.015 C 
HETATM    9  C   UNL     1      42.643  -6.694  15.492  1.00  0.00     0.015 C 
HETATM   10  C   UNL     1      40.404  -7.224  14.473  1.00  0.00     0.039 C 
HETATM   11  C   UNL     1      39.492  -7.394  13.234  1.00  0.00     0.122 C 
ENDROOT
BRANCH  11  12
HETATM   12  N   UNL     1      38.814  -6.168  12.863  1.00  0.00    -0.347 N 
HETATM   13  C   UNL     1      37.873  -5.608  13.688  1.00  0.00     0.270 C 
HETATM   14  O   UNL     1      37.555  -6.080  14.776  1.00  0.00    -0.266 OA
HETATM   15  H   UNL     1      39.061  -5.734  11.985  1.00  0.00     0.163 HD
BRANCH  13  16
HETATM   16  C   UNL     1      37.220  -4.370  13.192  1.00  0.00     0.120 A 
HETATM   17  N   UNL     1      36.345  -3.672  13.997  1.00  0.00    -0.303 N 
HETATM   18  C   UNL     1      35.856  -2.563  13.306  1.00  0.00     0.324 A 
HETATM   19  H   UNL     1      36.095  -3.936  14.939  1.00  0.00     0.171 HD
HETATM   20  O   UNL     1      35.064  -1.727  13.694  1.00  0.00    -0.247 OA
HETATM   21  N   UNL     1      36.484  -2.629  12.054  1.00  0.00    -0.316 N 
HETATM   22  C   UNL     1      37.302  -3.733  12.012  1.00  0.00     0.128 A 
HETATM   23  H   UNL     1      36.323  -1.953  11.322  1.00  0.00     0.170 HD
ENDBRANCH  13  16
ENDBRANCH  11  12
BRANCH   1  24
HETATM   24  C   UNL     1      43.268  -8.803  10.239  1.00  0.00     0.064 A 
HETATM   25  C   UNL     1      44.021  -9.912  10.692  1.00  0.00    -0.033 A 
HETATM   26  C   UNL     1      43.577 -10.831  11.801  1.00  0.00     0.050 C 
HETATM   27  C   UNL     1      45.272 -10.170  10.099  1.00  0.00     0.009 A 
HETATM   28  C   UNL     1      45.774  -9.350   9.089  1.00  0.00     0.001 A 
HETATM   29  C   UNL     1      45.026  -8.270   8.639  1.00  0.00     0.002 A 
HETATM   30  C   UNL     1      43.778  -8.001   9.205  1.00  0.00     0.032 A 
ENDBRANCH   1  24
TORSDOF 3
ENDMDL
MODEL 10
REMARK VINA RESULT:      -7.6      3.694      6.014
REMARK  3 active torsions:
REMARK  status: ('A' for Active; 'I' for Inactive)
REMARK    1  A    between atoms: C_3  and  N_4 
REMARK    2  A    between atoms: C_14  and  N_15 
REMARK       I    between atoms: N_15  and  C_16 
REMARK    3  A    between atoms: C_16  and  C_17 
ROOT
HETATM    1  N   UNL     1      42.711 -13.593   5.189  1.00  0.00    -0.237 N 
HETATM    2  N   UNL     1      43.688 -13.455   6.128  1.00  0.00    -0.179 NA
HETATM    3  C   UNL     1      43.466 -12.279   6.706  1.00  0.00     0.150 A 
HETATM    4  C   UNL     1      42.352 -11.625   6.170  1.00  0.00     0.008 A 
HETATM    5  C   UNL     1      41.859 -12.494   5.212  1.00  0.00     0.047 A 
HETATM    6  C   UNL     1      40.769 -12.154   4.244  1.00  0.00     0.069 C 
HETATM    7  C   UNL     1      39.928 -10.937   4.744  1.00  0.00    -0.040 C 
HETATM    8  C   UNL     1      38.893 -11.405   5.788  1.00  0.00     0.015 C 
HETATM    9  C   UNL     1      39.151 -10.354   3.546  1.00  0.00     0.015 C 
HETATM   10  C   UNL     1      40.849  -9.818   5.325  1.00  0.00     0.039 C 
HETATM   11  C   UNL     1      41.814 -10.268   6.448  1.00  0.00     0.122 C 
ENDROOT
BRANCH  11  12
HETATM   12  N   UNL     1      41.187 -10.288   7.754  1.00  0.00    -0.347 N 
HETATM   13  C   UNL     1      41.220  -9.185   8.567  1.00  0.00     0.270 C 
HETATM   14  O   UNL     1      41.754  -8.125   8.253  1.00  0.00    -0.266 OA
HETATM   15  H   UNL     1      40.716 -11.134   8.044  1.00  0.00     0.163 HD
BRANCH  13  16
HETATM   16  C   UNL     1      40.572  -9.330   9.895  1.00  0.00     0.120 A 
HETATM   17  N   UNL     1      41.253  -9.909  10.945  1.00  0.00    -0.303 N 
HETATM   18  C   UNL     1      40.433  -9.944  12.073  1.00  0.00     0.324 A 
HETATM   19  H   UNL     1      42.198 -10.261  10.893  1.00  0.00     0.171 HD
HETATM   20  O   UNL     1      40.692 -10.385  13.175  1.00  0.00    -0.247 OA
HETATM   21  N   UNL     1      39.234  -9.354  11.649  1.00  0.00    -0.316 N 
HETATM   22  C   UNL     1      39.345  -8.994  10.328  1.00  0.00     0.128 A 
HETATM   23  H   UNL     1      38.434  -9.240  12.254  1.00  0.00     0.170 HD
ENDBRANCH  13  16
ENDBRANCH  11  12
BRANCH   1  24
HETATM   24  C   UNL     1      42.676 -14.752   4.359  1.00  0.00     0.064 A 
HETATM   25  C   UNL     1      43.057 -14.698   2.998  1.00  0.00    -0.033 A 
HETATM   26  C   UNL     1      43.479 -13.434   2.294  1.00  0.00     0.050 C 
HETATM   27  C   UNL     1      43.021 -15.883   2.237  1.00  0.00     0.009 A 
HETATM   28  C   UNL     1      42.612 -17.090   2.800  1.00  0.00     0.001 A 
HETATM   29  C   UNL     1      42.249 -17.141   4.140  1.00  0.00     0.002 A 
HETATM   30  C   UNL     1      42.288 -15.981   4.918  1.00  0.00     0.032 A 
ENDBRANCH   1  24
TORSDOF 3
ENDMDL
