MODEL 1
REMARK VINA RESULT:      -9.0      0.000      0.000
REMARK  6 active torsions:
REMARK  status: ('A' for Active; 'I' for Inactive)
REMARK    1  A    between atoms: C_8  and  C_9 
REMARK    2  A    between atoms: C_9  and  C_10 
REMARK    3  A    between atoms: C_10  and  N_11 
REMARK    4  A    between atoms: C_10  and  C_19 
REMARK       I    between atoms: N_11  and  C_12 
REMARK    5  A    between atoms: C_12  and  C_13 
REMARK       I    between atoms: C_19  and  N_20 
REMARK    6  A    between atoms: N_20  and  C_21 
ROOT
HETATM    1  C   UNL     1      42.162 -14.626   3.661  1.00  0.00     0.181 C 
ENDROOT
BRANCH   1   2
HETATM    2  C   UNL     1      43.114 -15.602   2.938  1.00  0.00     0.075 C 
BRANCH   2   3
HETATM    3  C   UNL     1      43.509 -16.775   3.786  1.00  0.00    -0.028 A 
HETATM    4  C   UNL     1      43.548 -18.157   3.406  1.00  0.00    -0.002 A 
HETATM    5  C   UNL     1      43.262 -18.866   2.221  1.00  0.00     0.014 A 
HETATM    6  C   UNL     1      43.968 -18.884   4.521  1.00  0.00     0.042 A 
HETATM    7  C   UNL     1      43.384 -20.261   2.199  1.00  0.00     0.001 A 
HETATM    8  C   UNL     1      43.799 -20.955   3.332  1.00  0.00     0.002 A 
HETATM    9  C   UNL     1      44.106 -20.277   4.515  1.00  0.00     0.030 A 
HETATM   10  N   UNL     1      44.196 -17.981   5.532  1.00  0.00    -0.365 N 
HETATM   11  H   UNL     1      44.520 -18.229   6.456  1.00  0.00     0.165 HD
HETATM   12  C   UNL     1      43.922 -16.712   5.104  1.00  0.00     0.096 A 
ENDBRANCH   2   3
ENDBRANCH   1   2
BRANCH   1  13
HETATM   13  N   UNL     1      42.854 -13.617   4.472  1.00  0.00    -0.343 N 
HETATM   14  C   UNL     1      42.571 -13.341   5.790  1.00  0.00     0.259 C 
HETATM   15  O   UNL     1      41.718 -13.991   6.394  1.00  0.00    -0.267 OA
HETATM   16  H   UNL     1      43.624 -13.118   4.043  1.00  0.00     0.163 HD
BRANCH  14  17
HETATM   17  C   UNL     1      43.343 -12.269   6.403  1.00  0.00     0.072 A 
HETATM   18  S   UNL     1      42.660 -10.737   6.764  1.00  0.00    -0.097 SA
HETATM   19  C   UNL     1      44.129 -10.152   7.410  1.00  0.00     0.050 A 
HETATM   20  C   UNL     1      45.128 -11.098   7.358  1.00  0.00     0.009 A 
HETATM   21  C   UNL     1      44.674 -12.318   6.776  1.00  0.00     0.025 A 
ENDBRANCH  14  17
ENDBRANCH   1  13
BRANCH   1  22
HETATM   22  C   UNL     1      41.161 -13.941   2.704  1.00  0.00     0.245 C 
HETATM   23  N   UNL     1      41.543 -13.957   1.375  1.00  0.00    -0.324 N 
HETATM   24  H   UNL     1      42.500 -14.261   1.183  1.00  0.00     0.169 HD
HETATM   25  O   UNL     1      40.134 -13.423   3.137  1.00  0.00    -0.271 OA
BRANCH  23  26
HETATM   26  C   UNL     1      40.775 -13.565   0.262  1.00  0.00     0.052 A 
HETATM   27  C   UNL     1      40.724 -12.278  -0.267  1.00  0.00     0.145 A 
HETATM   28  N   UNL     1      39.937 -11.917  -1.316  1.00  0.00    -0.271 NA
HETATM   29  C   UNL     1      39.172 -12.883  -1.863  1.00  0.00     0.116 A 
HETATM   30  C   UNL     1      39.153 -14.192  -1.415  1.00  0.00     0.021 A 
HETATM   31  C   UNL     1      39.968 -14.534  -0.338  1.00  0.00     0.032 A 
ENDBRANCH  23  26
ENDBRANCH   1  22
TORSDOF 6
ENDMDL
MODEL 2
REMARK VINA RESULT:      -8.9      1.820      6.030
REMARK  6 active torsions:
REMARK  status: ('A' for Active; 'I' for Inactive)
REMARK    1  A    between atoms: C_8  and  C_9 
REMARK    2  A    between atoms: C_9  and  C_10 
REMARK    3  A    between atoms: C_10  and  N_11 
REMARK    4  A    between atoms: C_10  and  C_19 
REMARK       I    between atoms: N_11  and  C_12 
REMARK    5  A    between atoms: C_12  and  C_13 
REMARK       I    between atoms: C_19  and  N_20 
REMARK    6  A    between atoms: N_20  and  C_21 
ROOT
HETATM    1  C   UNL     1      42.406 -13.309   2.971  1.00  0.00     0.181 C 
ENDROOT
BRANCH   1   2
HETATM    2  C   UNL     1      40.870 -13.401   2.849  1.00  0.00     0.075 C 
BRANCH   2   3
HETATM    3  C   UNL     1      40.419 -14.004   1.551  1.00  0.00    -0.028 A 
HETATM    4  C   UNL     1      40.510 -13.431   0.239  1.00  0.00    -0.002 A 
HETATM    5  C   UNL     1      41.005 -12.216  -0.277  1.00  0.00     0.014 A 
HETATM    6  C   UNL     1      39.960 -14.350  -0.656  1.00  0.00     0.042 A 
HETATM    7  C   UNL     1      40.913 -11.956  -1.650  1.00  0.00     0.001 A 
HETATM    8  C   UNL     1      40.351 -12.891  -2.513  1.00  0.00     0.002 A 
HETATM    9  C   UNL     1      39.869 -14.111  -2.032  1.00  0.00     0.030 A 
HETATM   10  N   UNL     1      39.567 -15.445   0.076  1.00  0.00    -0.365 N 
HETATM   11  H   UNL     1      39.143 -16.273  -0.319  1.00  0.00     0.165 HD
HETATM   12  C   UNL     1      39.836 -15.249   1.403  1.00  0.00     0.096 A 
ENDBRANCH   2   3
ENDBRANCH   1   2
BRANCH   1  13
HETATM   13  N   UNL     1      42.865 -12.761   4.253  1.00  0.00    -0.343 N 
HETATM   14  C   UNL     1      43.860 -11.821   4.393  1.00  0.00     0.259 C 
HETATM   15  O   UNL     1      44.403 -11.336   3.401  1.00  0.00    -0.267 OA
HETATM   16  H   UNL     1      42.385 -13.065   5.092  1.00  0.00     0.163 HD
BRANCH  14  17
HETATM   17  C   UNL     1      44.199 -11.440   5.757  1.00  0.00     0.072 A 
HETATM   18  S   UNL     1      43.019 -10.894   6.877  1.00  0.00    -0.097 SA
HETATM   19  C   UNL     1      44.179 -10.693   8.114  1.00  0.00     0.050 A 
HETATM   20  C   UNL     1      45.445 -11.034   7.694  1.00  0.00     0.009 A 
HETATM   21  C   UNL     1      45.455 -11.463   6.334  1.00  0.00     0.025 A 
ENDBRANCH  14  17
ENDBRANCH   1  13
BRANCH   1  22
HETATM   22  C   UNL     1      43.114 -14.653   2.685  1.00  0.00     0.245 C 
HETATM   23  N   UNL     1      42.866 -15.638   3.624  1.00  0.00    -0.324 N 
HETATM   24  H   UNL     1      42.389 -15.338   4.477  1.00  0.00     0.169 HD
HETATM   25  O   UNL     1      43.843 -14.781   1.703  1.00  0.00    -0.271 OA
BRANCH  23  26
HETATM   26  C   UNL     1      43.229 -16.996   3.553  1.00  0.00     0.052 A 
HETATM   27  C   UNL     1      43.998 -17.673   4.494  1.00  0.00     0.145 A 
HETATM   28  N   UNL     1      44.373 -18.975   4.376  1.00  0.00    -0.271 NA
HETATM   29  C   UNL     1      43.959 -19.631   3.273  1.00  0.00     0.116 A 
HETATM   30  C   UNL     1      43.188 -19.050   2.281  1.00  0.00     0.021 A 
HETATM   31  C   UNL     1      42.820 -17.714   2.427  1.00  0.00     0.032 A 
ENDBRANCH  23  26
ENDBRANCH   1  22
TORSDOF 6
ENDMDL
MODEL 3
REMARK VINA RESULT:      -8.7      2.429      7.533
REMARK  6 active torsions:
REMARK  status: ('A' for Active; 'I' for Inactive)
REMARK    1  A    between atoms: C_8  and  C_9 
REMARK    2  A    between atoms: C_9  and  C_10 
REMARK    3  A    between atoms: C_10  and  N_11 
REMARK    4  A    between atoms: C_10  and  C_19 
REMARK       I    between atoms: N_11  and  C_12 
REMARK    5  A    between atoms: C_12  and  C_13 
REMARK       I    between atoms: C_19  and  N_20 
REMARK    6  A    between atoms: N_20  and  C_21 
ROOT
HETATM    1  C   UNL     1      42.061 -14.084   2.270  1.00  0.00     0.181 C 
ENDROOT
BRANCH   1   2
HETATM    2  C   UNL     1      42.822 -12.865   2.834  1.00  0.00     0.075 C 
BRANCH   2   3
HETATM    3  C   UNL     1      42.735 -12.760   4.329  1.00  0.00    -0.028 A 
HETATM    4  C   UNL     1      43.704 -12.199   5.225  1.00  0.00    -0.002 A 
HETATM    5  C   UNL     1      44.970 -11.597   5.064  1.00  0.00     0.014 A 
HETATM    6  C   UNL     1      43.197 -12.325   6.519  1.00  0.00     0.042 A 
HETATM    7  C   UNL     1      45.683 -11.169   6.190  1.00  0.00     0.001 A 
HETATM    8  C   UNL     1      45.150 -11.317   7.466  1.00  0.00     0.002 A 
HETATM    9  C   UNL     1      43.892 -11.893   7.655  1.00  0.00     0.030 A 
HETATM   10  N   UNL     1      41.962 -12.920   6.415  1.00  0.00    -0.365 N 
HETATM   11  H   UNL     1      41.359 -13.125   7.200  1.00  0.00     0.165 HD
HETATM   12  C   UNL     1      41.674 -13.187   5.105  1.00  0.00     0.096 A 
ENDBRANCH   2   3
ENDBRANCH   1   2
BRANCH   1  13
HETATM   13  N   UNL     1      41.444 -13.840   0.960  1.00  0.00    -0.343 N 
HETATM   14  C   UNL     1      40.396 -14.565   0.439  1.00  0.00     0.259 C 
HETATM   15  O   UNL     1      39.871 -15.462   1.098  1.00  0.00    -0.267 OA
HETATM   16  H   UNL     1      41.786 -13.054   0.420  1.00  0.00     0.163 HD
BRANCH  14  17
HETATM   17  C   UNL     1      39.958 -14.192  -0.898  1.00  0.00     0.072 A 
HETATM   18  S   UNL     1      40.364 -12.685  -1.611  1.00  0.00    -0.097 SA
HETATM   19  C   UNL     1      39.524 -13.056  -3.051  1.00  0.00     0.050 A 
HETATM   20  C   UNL     1      38.941 -14.302  -3.001  1.00  0.00     0.009 A 
HETATM   21  C   UNL     1      39.191 -14.956  -1.759  1.00  0.00     0.025 A 
ENDBRANCH  14  17
ENDBRANCH   1  13
BRANCH   1  22
HETATM   22  C   UNL     1      42.927 -15.363   2.218  1.00  0.00     0.245 C 
HETATM   23  N   UNL     1      42.551 -16.341   3.121  1.00  0.00    -0.324 N 
HETATM   24  H   UNL     1      41.866 -16.064   3.827  1.00  0.00     0.169 HD
HETATM   25  O   UNL     1      43.873 -15.449   1.437  1.00  0.00    -0.271 OA
BRANCH  23  26
HETATM   26  C   UNL     1      43.034 -17.660   3.200  1.00  0.00     0.052 A 
HETATM   27  C   UNL     1      43.836 -18.164   4.220  1.00  0.00     0.145 A 
HETATM   28  N   UNL     1      44.326 -19.432   4.246  1.00  0.00    -0.271 NA
HETATM   29  C   UNL     1      44.000 -20.234   3.213  1.00  0.00     0.116 A 
HETATM   30  C   UNL     1      43.206 -19.831   2.152  1.00  0.00     0.021 A 
HETATM   31  C   UNL     1      42.718 -18.526   2.150  1.00  0.00     0.032 A 
ENDBRANCH  23  26
ENDBRANCH   1  22
TORSDOF 6
ENDMDL
MODEL 4
REMARK VINA RESULT:      -8.7      1.889      2.130
REMARK  6 active torsions:
REMARK  status: ('A' for Active; 'I' for Inactive)
REMARK    1  A    between atoms: C_8  and  C_9 
REMARK    2  A    between atoms: C_9  and  C_10 
REMARK    3  A    between atoms: C_10  and  N_11 
REMARK    4  A    between atoms: C_10  and  C_19 
REMARK       I    between atoms: N_11  and  C_12 
REMARK    5  A    between atoms: C_12  and  C_13 
REMARK       I    between atoms: C_19  and  N_20 
REMARK    6  A    between atoms: N_20  and  C_21 
ROOT
HETATM    1  C   UNL     1      41.391 -15.145   2.441  1.00  0.00     0.181 C 
ENDROOT
BRANCH   1   2
HETATM    2  C   UNL     1      42.756 -15.782   2.108  1.00  0.00     0.075 C 
BRANCH   2   3
HETATM    3  C   UNL     1      43.250 -16.709   3.180  1.00  0.00    -0.028 A 
HETATM    4  C   UNL     1      43.418 -18.131   3.100  1.00  0.00    -0.002 A 
HETATM    5  C   UNL     1      43.207 -19.097   2.095  1.00  0.00     0.014 A 
HETATM    6  C   UNL     1      43.894 -18.564   4.338  1.00  0.00     0.042 A 
HETATM    7  C   UNL     1      43.457 -20.448   2.367  1.00  0.00     0.001 A 
HETATM    8  C   UNL     1      43.924 -20.846   3.616  1.00  0.00     0.002 A 
HETATM    9  C   UNL     1      44.158 -19.909   4.625  1.00  0.00     0.030 A 
HETATM   10  N   UNL     1      44.029 -17.451   5.134  1.00  0.00    -0.365 N 
HETATM   11  H   UNL     1      44.367 -17.468   6.086  1.00  0.00     0.165 HD
HETATM   12  C   UNL     1      43.644 -16.331   4.450  1.00  0.00     0.096 A 
ENDBRANCH   2   3
ENDBRANCH   1   2
BRANCH   1  13
HETATM   13  N   UNL     1      41.493 -13.814   3.052  1.00  0.00    -0.343 N 
HETATM   14  C   UNL     1      41.115 -13.510   4.340  1.00  0.00     0.259 C 
HETATM   15  O   UNL     1      40.700 -14.392   5.092  1.00  0.00    -0.267 OA
HETATM   16  H   UNL     1      41.911 -13.076   2.499  1.00  0.00     0.163 HD
BRANCH  14  17
HETATM   17  C   UNL     1      41.255 -12.118   4.740  1.00  0.00     0.072 A 
HETATM   18  S   UNL     1      42.388 -11.060   4.004  1.00  0.00    -0.097 SA
HETATM   19  C   UNL     1      41.912  -9.746   4.986  1.00  0.00     0.050 A 
HETATM   20  C   UNL     1      40.909 -10.095   5.862  1.00  0.00     0.009 A 
HETATM   21  C   UNL     1      40.531 -11.462   5.720  1.00  0.00     0.025 A 
ENDBRANCH  14  17
ENDBRANCH   1  13
BRANCH   1  22
HETATM   22  C   UNL     1      40.435 -15.100   1.228  1.00  0.00     0.245 C 
HETATM   23  N   UNL     1      40.483 -13.919   0.510  1.00  0.00    -0.324 N 
HETATM   24  H   UNL     1      41.007 -13.152   0.936  1.00  0.00     0.169 HD
HETATM   25  O   UNL     1      39.697 -16.051   0.974  1.00  0.00    -0.271 OA
BRANCH  23  26
HETATM   26  C   UNL     1      39.862 -13.644  -0.723  1.00  0.00     0.052 A 
HETATM   27  C   UNL     1      40.221 -14.203  -1.947  1.00  0.00     0.145 A 
HETATM   28  N   UNL     1      39.633 -13.885  -3.130  1.00  0.00    -0.271 NA
HETATM   29  C   UNL     1      38.640 -12.973  -3.092  1.00  0.00     0.116 A 
HETATM   30  C   UNL     1      38.206 -12.362  -1.928  1.00  0.00     0.021 A 
HETATM   31  C   UNL     1      38.828 -12.706  -0.729  1.00  0.00     0.032 A 
ENDBRANCH  23  26
ENDBRANCH   1  22
TORSDOF 6
ENDMDL
MODEL 5
REMARK VINA RESULT:      -8.4      2.288      6.387
REMARK  6 active torsions:
REMARK  status: ('A' for Active; 'I' for Inactive)
REMARK    1  A    between atoms: C_8  and  C_9 
REMARK    2  A    between atoms: C_9  and  C_10 
REMARK    3  A    between atoms: C_10  and  N_11 
REMARK    4  A    between atoms: C_10  and  C_19 
REMARK       I    between atoms: N_11  and  C_12 
REMARK    5  A    between atoms: C_12  and  C_13 
REMARK       I    between atoms: C_19  and  N_20 
REMARK    6  A    between atoms: N_20  and  C_21 
ROOT
HETATM    1  C   UNL     1      42.835 -13.454   4.226  1.00  0.00     0.181 C 
ENDROOT
BRANCH   1   2
HETATM    2  C   UNL     1      42.313 -14.463   5.270  1.00  0.00     0.075 C 
BRANCH   2   3
HETATM    3  C   UNL     1      43.134 -15.717   5.338  1.00  0.00    -0.028 A 
HETATM    4  C   UNL     1      43.207 -16.771   4.368  1.00  0.00    -0.002 A 
HETATM    5  C   UNL     1      42.602 -17.007   3.116  1.00  0.00     0.014 A 
HETATM    6  C   UNL     1      44.093 -17.730   4.861  1.00  0.00     0.042 A 
HETATM    7  C   UNL     1      42.884 -18.189   2.421  1.00  0.00     0.001 A 
HETATM    8  C   UNL     1      43.766 -19.128   2.946  1.00  0.00     0.002 A 
HETATM    9  C   UNL     1      44.394 -18.913   4.176  1.00  0.00     0.030 A 
HETATM   10  N   UNL     1      44.555 -17.271   6.072  1.00  0.00    -0.365 N 
HETATM   11  H   UNL     1      45.223 -17.762   6.651  1.00  0.00     0.165 HD
HETATM   12  C   UNL     1      43.986 -16.064   6.370  1.00  0.00     0.096 A 
ENDBRANCH   2   3
ENDBRANCH   1   2
BRANCH   1  13
HETATM   13  N   UNL     1      41.925 -13.252   3.091  1.00  0.00    -0.343 N 
HETATM   14  C   UNL     1      42.177 -13.659   1.801  1.00  0.00     0.259 C 
HETATM   15  O   UNL     1      43.204 -14.284   1.534  1.00  0.00    -0.267 OA
HETATM   16  H   UNL     1      41.029 -12.820   3.281  1.00  0.00     0.163 HD
BRANCH  14  17
HETATM   17  C   UNL     1      41.165 -13.322   0.810  1.00  0.00     0.072 A 
HETATM   18  S   UNL     1      40.800 -11.699   0.387  1.00  0.00    -0.097 SA
HETATM   19  C   UNL     1      39.615 -12.184  -0.744  1.00  0.00     0.050 A 
HETATM   20  C   UNL     1      39.492 -13.553  -0.807  1.00  0.00     0.009 A 
HETATM   21  C   UNL     1      40.385 -14.208   0.091  1.00  0.00     0.025 A 
ENDBRANCH  14  17
ENDBRANCH   1  13
BRANCH   1  22
HETATM   22  C   UNL     1      43.221 -12.092   4.845  1.00  0.00     0.245 C 
HETATM   23  N   UNL     1      43.622 -12.161   6.167  1.00  0.00    -0.324 N 
HETATM   24  H   UNL     1      43.468 -13.054   6.639  1.00  0.00     0.169 HD
HETATM   25  O   UNL     1      43.142 -11.058   4.185  1.00  0.00    -0.271 OA
BRANCH  23  26
HETATM   26  C   UNL     1      44.182 -11.130   6.944  1.00  0.00     0.052 A 
HETATM   27  C   UNL     1      43.467 -10.108   7.561  1.00  0.00     0.145 A 
HETATM   28  N   UNL     1      44.039  -9.097   8.268  1.00  0.00    -0.271 NA
HETATM   29  C   UNL     1      45.384  -9.109   8.367  1.00  0.00     0.116 A 
HETATM   30  C   UNL     1      46.186 -10.081   7.795  1.00  0.00     0.021 A 
HETATM   31  C   UNL     1      45.572 -11.104   7.074  1.00  0.00     0.032 A 
ENDBRANCH  23  26
ENDBRANCH   1  22
TORSDOF 6
ENDMDL
MODEL 6
REMARK VINA RESULT:      -8.3      2.706      5.368
REMARK  6 active torsions:
REMARK  status: ('A' for Active; 'I' for Inactive)
REMARK    1  A    between atoms: C_8  and  C_9 
REMARK    2  A    between atoms: C_9  and  C_10 
REMARK    3  A    between atoms: C_10  and  N_11 
REMARK    4  A    between atoms: C_10  and  C_19 
REMARK       I    between atoms: N_11  and  C_12 
REMARK    5  A    between atoms: C_12  and  C_13 
REMARK       I    between atoms: C_19  and  N_20 
REMARK    6  A    between atoms: N_20  and  C_21 
ROOT
HETATM    1  C   UNL     1      41.160 -14.818   1.944  1.00  0.00     0.181 C 
ENDROOT
BRANCH   1   2
HETATM    2  C   UNL     1      40.634 -13.920   3.083  1.00  0.00     0.075 C 
BRANCH   2   3
HETATM    3  C   UNL     1      41.667 -13.641   4.136  1.00  0.00    -0.028 A 
HETATM    4  C   UNL     1      41.945 -14.409   5.315  1.00  0.00    -0.002 A 
HETATM    5  C   UNL     1      41.415 -15.590   5.874  1.00  0.00     0.014 A 
HETATM    6  C   UNL     1      42.979 -13.766   5.996  1.00  0.00     0.042 A 
HETATM    7  C   UNL     1      41.917 -16.068   7.091  1.00  0.00     0.001 A 
HETATM    8  C   UNL     1      42.944 -15.398   7.747  1.00  0.00     0.002 A 
HETATM    9  C   UNL     1      43.500 -14.235   7.208  1.00  0.00     0.030 A 
HETATM   10  N   UNL     1      43.330 -12.664   5.255  1.00  0.00    -0.365 N 
HETATM   11  H   UNL     1      44.064 -12.016   5.507  1.00  0.00     0.165 HD
HETATM   12  C   UNL     1      42.548 -12.576   4.136  1.00  0.00     0.096 A 
ENDBRANCH   2   3
ENDBRANCH   1   2
BRANCH   1  13
HETATM   13  N   UNL     1      41.701 -16.103   2.406  1.00  0.00    -0.343 N 
HETATM   14  C   UNL     1      42.986 -16.540   2.182  1.00  0.00     0.259 C 
HETATM   15  O   UNL     1      43.796 -15.819   1.598  1.00  0.00    -0.267 OA
HETATM   16  H   UNL     1      41.096 -16.691   2.967  1.00  0.00     0.163 HD
BRANCH  14  17
HETATM   17  C   UNL     1      43.312 -17.866   2.685  1.00  0.00     0.072 A 
HETATM   18  S   UNL     1      43.973 -18.117   4.249  1.00  0.00    -0.097 SA
HETATM   19  C   UNL     1      44.031 -19.811   4.033  1.00  0.00     0.050 A 
HETATM   20  C   UNL     1      43.558 -20.189   2.797  1.00  0.00     0.009 A 
HETATM   21  C   UNL     1      43.145 -19.067   2.020  1.00  0.00     0.025 A 
ENDBRANCH  14  17
ENDBRANCH   1  13
BRANCH   1  22
HETATM   22  C   UNL     1      40.115 -15.053   0.831  1.00  0.00     0.245 C 
HETATM   23  N   UNL     1      39.838 -13.933   0.066  1.00  0.00    -0.324 N 
HETATM   24  H   UNL     1      40.214 -13.048   0.409  1.00  0.00     0.169 HD
HETATM   25  O   UNL     1      39.586 -16.154   0.688  1.00  0.00    -0.271 OA
BRANCH  23  26
HETATM   26  C   UNL     1      39.065 -13.874  -1.109  1.00  0.00     0.052 A 
HETATM   27  C   UNL     1      38.095 -12.915  -1.385  1.00  0.00     0.145 A 
HETATM   28  N   UNL     1      37.330 -12.908  -2.510  1.00  0.00    -0.271 NA
HETATM   29  C   UNL     1      37.546 -13.898  -3.399  1.00  0.00     0.116 A 
HETATM   30  C   UNL     1      38.489 -14.896  -3.222  1.00  0.00     0.021 A 
HETATM   31  C   UNL     1      39.257 -14.879  -2.059  1.00  0.00     0.032 A 
ENDBRANCH  23  26
ENDBRANCH   1  22
TORSDOF 6
ENDMDL
MODEL 7
REMARK VINA RESULT:      -8.2      2.466      5.935
REMARK  6 active torsions:
REMARK  status: ('A' for Active; 'I' for Inactive)
REMARK    1  A    between atoms: C_8  and  C_9 
REMARK    2  A    between atoms: C_9  and  C_10 
REMARK    3  A    between atoms: C_10  and  N_11 
REMARK    4  A    between atoms: C_10  and  C_19 
REMARK       I    between atoms: N_11  and  C_12 
REMARK    5  A    between atoms: C_12  and  C_13 
REMARK       I    between atoms: C_19  and  N_20 
REMARK    6  A    between atoms: N_20  and  C_21 
ROOT
HETATM    1  C   UNL     1      41.337 -14.593   2.354  1.00  0.00     0.181 C 
ENDROOT
BRANCH   1   2
HETATM    2  C   UNL     1      40.739 -13.751   3.500  1.00  0.00     0.075 C 
BRANCH   2   3
HETATM    3  C   UNL     1      41.653 -12.654   3.963  1.00  0.00    -0.028 A 
HETATM    4  C   UNL     1      42.653 -12.721   4.988  1.00  0.00    -0.002 A 
HETATM    5  C   UNL     1      43.111 -13.730   5.859  1.00  0.00     0.014 A 
HETATM    6  C   UNL     1      43.247 -11.461   5.073  1.00  0.00     0.042 A 
HETATM    7  C   UNL     1      44.119 -13.442   6.788  1.00  0.00     0.001 A 
HETATM    8  C   UNL     1      44.684 -12.172   6.850  1.00  0.00     0.002 A 
HETATM    9  C   UNL     1      44.262 -11.157   5.988  1.00  0.00     0.030 A 
HETATM   10  N   UNL     1      42.648 -10.665   4.126  1.00  0.00    -0.365 N 
HETATM   11  H   UNL     1      42.890  -9.698   3.957  1.00  0.00     0.165 HD
HETATM   12  C   UNL     1      41.688 -11.369   3.454  1.00  0.00     0.096 A 
ENDBRANCH   2   3
ENDBRANCH   1   2
BRANCH   1  13
HETATM   13  N   UNL     1      41.878 -15.886   2.790  1.00  0.00    -0.343 N 
HETATM   14  C   UNL     1      43.021 -16.468   2.291  1.00  0.00     0.259 C 
HETATM   15  O   UNL     1      43.704 -15.880   1.452  1.00  0.00    -0.267 OA
HETATM   16  H   UNL     1      41.398 -16.365   3.543  1.00  0.00     0.163 HD
BRANCH  14  17
HETATM   17  C   UNL     1      43.363 -17.778   2.826  1.00  0.00     0.072 A 
HETATM   18  S   UNL     1      44.015 -17.985   4.399  1.00  0.00    -0.097 SA
HETATM   19  C   UNL     1      44.100 -19.682   4.221  1.00  0.00     0.050 A 
HETATM   20  C   UNL     1      43.643 -20.094   2.990  1.00  0.00     0.009 A 
HETATM   21  C   UNL     1      43.219 -18.995   2.186  1.00  0.00     0.025 A 
ENDBRANCH  14  17
ENDBRANCH   1  13
BRANCH   1  22
HETATM   22  C   UNL     1      40.353 -14.798   1.180  1.00  0.00     0.245 C 
HETATM   23  N   UNL     1      40.225 -13.701   0.347  1.00  0.00    -0.324 N 
HETATM   24  H   UNL     1      40.653 -12.833   0.674  1.00  0.00     0.169 HD
HETATM   25  O   UNL     1      39.742 -15.858   1.052  1.00  0.00    -0.271 OA
BRANCH  23  26
HETATM   26  C   UNL     1      39.541 -13.639  -0.882  1.00  0.00     0.052 A 
HETATM   27  C   UNL     1      39.941 -14.268  -2.057  1.00  0.00     0.145 A 
HETATM   28  N   UNL     1      39.285 -14.154  -3.243  1.00  0.00    -0.271 NA
HETATM   29  C   UNL     1      38.179 -13.382  -3.255  1.00  0.00     0.116 A 
HETATM   30  C   UNL     1      37.696 -12.718  -2.141  1.00  0.00     0.021 A 
HETATM   31  C   UNL     1      38.389 -12.852  -0.940  1.00  0.00     0.032 A 
ENDBRANCH  23  26
ENDBRANCH   1  22
TORSDOF 6
ENDMDL
MODEL 8
REMARK VINA RESULT:      -8.2      1.685      5.985
REMARK  6 active torsions:
REMARK  status: ('A' for Active; 'I' for Inactive)
REMARK    1  A    between atoms: C_8  and  C_9 
REMARK    2  A    between atoms: C_9  and  C_10 
REMARK    3  A    between atoms: C_10  and  N_11 
REMARK    4  A    between atoms: C_10  and  C_19 
REMARK       I    between atoms: N_11  and  C_12 
REMARK    5  A    between atoms: C_12  and  C_13 
REMARK       I    between atoms: C_19  and  N_20 
REMARK    6  A    between atoms: N_20  and  C_21 
ROOT
HETATM    1  C   UNL     1      41.770 -13.360   4.239  1.00  0.00     0.181 C 
ENDROOT
BRANCH   1   2
HETATM    2  C   UNL     1      40.305 -12.879   4.174  1.00  0.00     0.075 C 
BRANCH   2   3
HETATM    3  C   UNL     1      39.894 -12.431   2.802  1.00  0.00    -0.028 A 
HETATM    4  C   UNL     1      39.816 -13.223   1.609  1.00  0.00    -0.002 A 
HETATM    5  C   UNL     1      40.069 -14.576   1.301  1.00  0.00     0.014 A 
HETATM    6  C   UNL     1      39.393 -12.382   0.578  1.00  0.00     0.042 A 
HETATM    7  C   UNL     1      39.913 -15.029  -0.015  1.00  0.00     0.001 A 
HETATM    8  C   UNL     1      39.497 -14.161  -1.020  1.00  0.00     0.002 A 
HETATM    9  C   UNL     1      39.222 -12.820  -0.740  1.00  0.00     0.030 A 
HETATM   10  N   UNL     1      39.202 -11.135   1.124  1.00  0.00    -0.365 N 
HETATM   11  H   UNL     1      38.884 -10.328   0.605  1.00  0.00     0.165 HD
HETATM   12  C   UNL     1      39.500 -11.151   2.458  1.00  0.00     0.096 A 
ENDBRANCH   2   3
ENDBRANCH   1   2
BRANCH   1  13
HETATM   13  N   UNL     1      42.577 -12.663   5.249  1.00  0.00    -0.343 N 
HETATM   14  C   UNL     1      43.672 -11.877   4.974  1.00  0.00     0.259 C 
HETATM   15  O   UNL     1      44.014 -11.671   3.809  1.00  0.00    -0.267 OA
HETATM   16  H   UNL     1      42.280 -12.733   6.215  1.00  0.00     0.163 HD
BRANCH  14  17
HETATM   17  C   UNL     1      44.364 -11.311   6.122  1.00  0.00     0.072 A 
HETATM   18  S   UNL     1      43.534 -10.488   7.379  1.00  0.00    -0.097 SA
HETATM   19  C   UNL     1      44.979 -10.192   8.240  1.00  0.00     0.050 A 
HETATM   20  C   UNL     1      46.080 -10.706   7.592  1.00  0.00     0.009 A 
HETATM   21  C   UNL     1      45.724 -11.350   6.371  1.00  0.00     0.025 A 
ENDBRANCH  14  17
ENDBRANCH   1  13
BRANCH   1  22
HETATM   22  C   UNL     1      41.894 -14.889   4.423  1.00  0.00     0.245 C 
HETATM   23  N   UNL     1      42.756 -15.501   3.531  1.00  0.00    -0.324 N 
HETATM   24  H   UNL     1      43.086 -14.924   2.754  1.00  0.00     0.169 HD
HETATM   25  O   UNL     1      41.246 -15.471   5.290  1.00  0.00    -0.271 OA
BRANCH  23  26
HETATM   26  C   UNL     1      43.198 -16.837   3.552  1.00  0.00     0.052 A 
HETATM   27  C   UNL     1      43.964 -17.414   4.561  1.00  0.00     0.145 A 
HETATM   28  N   UNL     1      44.417 -18.696   4.534  1.00  0.00    -0.271 NA
HETATM   29  C   UNL     1      44.087 -19.436   3.456  1.00  0.00     0.116 A 
HETATM   30  C   UNL     1      43.326 -18.959   2.402  1.00  0.00     0.021 A 
HETATM   31  C   UNL     1      42.878 -17.640   2.456  1.00  0.00     0.032 A 
ENDBRANCH  23  26
ENDBRANCH   1  22
TORSDOF 6
ENDMDL
MODEL 9
REMARK VINA RESULT:      -8.2      2.486      6.104
REMARK  6 active torsions:
REMARK  status: ('A' for Active; 'I' for Inactive)
REMARK    1  A    between atoms: C_8  and  C_9 
REMARK    2  A    between atoms: C_9  and  C_10 
REMARK    3  A    between atoms: C_10  and  N_11 
REMARK    4  A    between atoms: C_10  and  C_19 
REMARK       I    between atoms: N_11  and  C_12 
REMARK    5  A    between atoms: C_12  and  C_13 
REMARK       I    between atoms: C_19  and  N_20 
REMARK    6  A    between atoms: N_20  and  C_21 
ROOT
HETATM    1  C   UNL     1      43.155 -14.167   5.280  1.00  0.00     0.181 C 
ENDROOT
BRANCH   1   2
HETATM    2  C   UNL     1      42.996 -15.653   5.666  1.00  0.00     0.075 C 
BRANCH   2   3
HETATM    3  C   UNL     1      43.207 -16.586   4.510  1.00  0.00    -0.028 A 
HETATM    4  C   UNL     1      43.493 -17.990   4.559  1.00  0.00    -0.002 A 
HETATM    5  C   UNL     1      43.666 -18.930   5.596  1.00  0.00     0.014 A 
HETATM    6  C   UNL     1      43.614 -18.437   3.242  1.00  0.00     0.042 A 
HETATM    7  C   UNL     1      43.971 -20.260   5.285  1.00  0.00     0.001 A 
HETATM    8  C   UNL     1      44.092 -20.669   3.960  1.00  0.00     0.002 A 
HETATM    9  C   UNL     1      43.909 -19.765   2.912  1.00  0.00     0.030 A 
HETATM   10  N   UNL     1      43.392 -17.354   2.424  1.00  0.00    -0.365 N 
HETATM   11  H   UNL     1      43.407 -17.389   1.414  1.00  0.00     0.165 HD
HETATM   12  C   UNL     1      43.148 -16.237   3.174  1.00  0.00     0.096 A 
ENDBRANCH   2   3
ENDBRANCH   1   2
BRANCH   1  13
HETATM   13  N   UNL     1      41.951 -13.581   4.677  1.00  0.00    -0.343 N 
HETATM   14  C   UNL     1      41.951 -12.715   3.608  1.00  0.00     0.259 C 
HETATM   15  O   UNL     1      43.007 -12.416   3.048  1.00  0.00    -0.267 OA
HETATM   16  H   UNL     1      41.054 -13.868   5.049  1.00  0.00     0.163 HD
BRANCH  14  17
HETATM   17  C   UNL     1      40.652 -12.210   3.188  1.00  0.00     0.072 A 
HETATM   18  S   UNL     1      40.082 -10.656   3.642  1.00  0.00    -0.097 SA
HETATM   19  C   UNL     1      38.617 -10.863   2.788  1.00  0.00     0.050 A 
HETATM   20  C   UNL     1      38.553 -12.089   2.164  1.00  0.00     0.009 A 
HETATM   21  C   UNL     1      39.726 -12.865   2.397  1.00  0.00     0.025 A 
ENDBRANCH  14  17
ENDBRANCH   1  13
BRANCH   1  22
HETATM   22  C   UNL     1      43.641 -13.289   6.455  1.00  0.00     0.245 C 
HETATM   23  N   UNL     1      44.166 -12.067   6.072  1.00  0.00    -0.324 N 
HETATM   24  H   UNL     1      44.330 -11.940   5.072  1.00  0.00     0.169 HD
HETATM   25  O   UNL     1      43.566 -13.693   7.614  1.00  0.00    -0.271 OA
BRANCH  23  26
HETATM   26  C   UNL     1      44.533 -10.997   6.909  1.00  0.00     0.052 A 
HETATM   27  C   UNL     1      43.655 -10.065   7.455  1.00  0.00     0.145 A 
HETATM   28  N   UNL     1      44.043  -9.013   8.224  1.00  0.00    -0.271 NA
HETATM   29  C   UNL     1      45.364  -8.887   8.463  1.00  0.00     0.116 A 
HETATM   30  C   UNL     1      46.318  -9.762   7.971  1.00  0.00     0.021 A 
HETATM   31  C   UNL     1      45.892 -10.830   7.184  1.00  0.00     0.032 A 
ENDBRANCH  23  26
ENDBRANCH   1  22
TORSDOF 6
ENDMDL
MODEL 10
REMARK VINA RESULT:      -8.1      2.251      7.361
REMARK  6 active torsions:
REMARK  status: ('A' for Active; 'I' for Inactive)
REMARK    1  A    between atoms: C_8  and  C_9 
REMARK    2  A    between atoms: C_9  and  C_10 
REMARK    3  A    between atoms: C_10  and  N_11 
REMARK    4  A    between atoms: C_10  and  C_19 
REMARK       I    between atoms: N_11  and  C_12 
REMARK    5  A    between atoms: C_12  and  C_13 
REMARK       I    between atoms: C_19  and  N_20 
REMARK    6  A    between atoms: N_20  and  C_21 
ROOT
HETATM    1  C   UNL     1      42.215 -12.828   3.278  1.00  0.00     0.181 C 
ENDROOT
BRANCH   1   2
HETATM    2  C   UNL     1      41.800 -12.277   1.898  1.00  0.00     0.075 C 
BRANCH   2   3
HETATM    3  C   UNL     1      40.927 -13.222   1.126  1.00  0.00    -0.028 A 
HETATM    4  C   UNL     1      40.633 -13.195  -0.278  1.00  0.00    -0.002 A 
HETATM    5  C   UNL     1      41.010 -12.363  -1.352  1.00  0.00     0.014 A 
HETATM    6  C   UNL     1      39.774 -14.262  -0.544  1.00  0.00     0.042 A 
HETATM    7  C   UNL     1      40.504 -12.612  -2.634  1.00  0.00     0.001 A 
HETATM    8  C   UNL     1      39.644 -13.681  -2.862  1.00  0.00     0.002 A 
HETATM    9  C   UNL     1      39.266 -14.532  -1.820  1.00  0.00     0.030 A 
HETATM   10  N   UNL     1      39.568 -14.924   0.644  1.00  0.00    -0.365 N 
HETATM   11  H   UNL     1      38.992 -15.748   0.745  1.00  0.00     0.165 HD
HETATM   12  C   UNL     1      40.254 -14.308   1.654  1.00  0.00     0.096 A 
ENDBRANCH   2   3
ENDBRANCH   1   2
BRANCH   1  13
HETATM   13  N   UNL     1      42.736 -14.200   3.235  1.00  0.00    -0.343 N 
HETATM   14  C   UNL     1      42.601 -15.123   4.245  1.00  0.00     0.259 C 
HETATM   15  O   UNL     1      41.964 -14.846   5.262  1.00  0.00    -0.267 OA
HETATM   16  H   UNL     1      43.191 -14.501   2.381  1.00  0.00     0.163 HD
BRANCH  14  17
HETATM   17  C   UNL     1      43.231 -16.417   4.024  1.00  0.00     0.072 A 
HETATM   18  S   UNL     1      44.138 -17.216   5.242  1.00  0.00    -0.097 SA
HETATM   19  C   UNL     1      44.473 -18.546   4.224  1.00  0.00     0.050 A 
HETATM   20  C   UNL     1      43.909 -18.395   2.977  1.00  0.00     0.009 A 
HETATM   21  C   UNL     1      43.194 -17.167   2.863  1.00  0.00     0.025 A 
ENDBRANCH  14  17
ENDBRANCH   1  13
BRANCH   1  22
HETATM   22  C   UNL     1      43.208 -11.907   4.021  1.00  0.00     0.245 C 
HETATM   23  N   UNL     1      42.971 -11.792   5.379  1.00  0.00    -0.324 N 
HETATM   24  H   UNL     1      42.089 -12.181   5.718  1.00  0.00     0.169 HD
HETATM   25  O   UNL     1      44.106 -11.330   3.410  1.00  0.00    -0.271 OA
BRANCH  23  26
HETATM   26  C   UNL     1      43.790 -11.167   6.338  1.00  0.00     0.052 A 
HETATM   27  C   UNL     1      43.397 -10.126   7.175  1.00  0.00     0.145 A 
HETATM   28  N   UNL     1      44.224  -9.509   8.061  1.00  0.00    -0.271 NA
HETATM   29  C   UNL     1      45.496  -9.952   8.118  1.00  0.00     0.116 A 
HETATM   30  C   UNL     1      45.984 -10.983   7.333  1.00  0.00     0.021 A 
HETATM   31  C   UNL     1      45.115 -11.596   6.432  1.00  0.00     0.032 A 
ENDBRANCH  23  26
ENDBRANCH   1  22
TORSDOF 6
ENDMDL
