MODEL 1
REMARK VINA RESULT:      -8.6      0.000      0.000
REMARK  5 active torsions:
REMARK  status: ('A' for Active; 'I' for Inactive)
REMARK       I    between atoms: C_2  and  N_3 
REMARK    1  A    between atoms: N_3  and  C_4 
REMARK    2  A    between atoms: C_7  and  C_8 
REMARK    3  A    between atoms: C_8  and  N_9 
REMARK    4  A    between atoms: C_12  and  C_13 
REMARK    5  A    between atoms: C_14  and  O_15 
ROOT
HETATM    1  N   UNL     1      43.858 -12.506   5.709  1.00  0.00    -0.060 N 
HETATM    2  H   UNL     1      44.271 -13.035   4.934  1.00  0.00     0.280 HD
HETATM    3  C   UNL     1      42.431 -12.109   5.321  1.00  0.00     0.272 C 
HETATM    4  C   UNL     1      41.498 -13.275   4.901  1.00  0.00     0.190 C 
HETATM    5  O   UNL     1      41.273 -14.161   6.024  1.00  0.00    -0.339 OA
HETATM    6  C   UNL     1      42.214 -15.139   6.178  1.00  0.00     0.077 A 
HETATM    7  C   UNL     1      43.515 -14.836   6.575  1.00  0.00     0.001 A 
HETATM    8  C   UNL     1      43.894 -13.429   6.902  1.00  0.00     0.276 C 
HETATM    9  C   UNL     1      41.806 -16.461   6.019  1.00  0.00     0.037 A 
HETATM   10  C   UNL     1      42.722 -17.498   6.178  1.00  0.00     0.003 A 
HETATM   11  C   UNL     1      44.039 -17.209   6.523  1.00  0.00     0.001 A 
HETATM   12  C   UNL     1      44.435 -15.886   6.730  1.00  0.00     0.012 A 
ENDROOT
BRANCH   1  13
HETATM   13  C   UNL     1      44.746 -11.306   5.965  1.00  0.00     0.273 C 
BRANCH  13  14
HETATM   14  C   UNL     1      44.515 -10.616   7.282  1.00  0.00    -0.032 A 
HETATM   15  C   UNL     1      45.510 -10.641   8.268  1.00  0.00     0.011 A 
HETATM   16  C   UNL     1      45.317  -9.998   9.496  1.00  0.00     0.030 A 
HETATM   17  C   UNL     1      44.135  -9.310   9.763  1.00  0.00     0.034 A 
HETATM   18  C   UNL     1      43.138  -9.286   8.779  1.00  0.00     0.030 A 
HETATM   19  C   UNL     1      43.322  -9.936   7.551  1.00  0.00     0.011 A 
BRANCH  17  20
HETATM   20  N   UNL     1      43.885  -8.614  10.963  1.00  0.00    -0.328 N 
HETATM   21  C   UNL     1      43.180  -9.072  12.065  1.00  0.00     0.218 C 
HETATM   22  C   UNL     1      43.168  -8.087  13.207  1.00  0.00     0.117 C 
HETATM   23  O   UNL     1      42.625 -10.160  12.172  1.00  0.00    -0.274 OA
HETATM   24  H   UNL     1      44.274  -7.681  11.033  1.00  0.00     0.169 HD
ENDBRANCH  17  20
ENDBRANCH  13  14
ENDBRANCH   1  13
BRANCH   4  25
HETATM   25  C   UNL     1      41.725 -13.952   3.543  1.00  0.00     0.006 A 
HETATM   26  C   UNL     1      40.620 -14.153   2.678  1.00  0.00     0.077 A 
HETATM   27  C   UNL     1      40.794 -14.795   1.448  1.00  0.00     0.037 A 
HETATM   28  C   UNL     1      42.060 -15.213   1.042  1.00  0.00     0.003 A 
HETATM   29  C   UNL     1      43.161 -14.971   1.853  1.00  0.00     0.001 A 
HETATM   30  C   UNL     1      42.999 -14.336   3.086  1.00  0.00     0.012 A 
BRANCH  26  31
HETATM   31  O   UNL     1      39.420 -13.658   3.121  1.00  0.00    -0.355 OA
HETATM   32  C   UNL     1      38.902 -12.499   2.477  1.00  0.00     0.210 C 
ENDBRANCH  26  31
ENDBRANCH   4  25
TORSDOF 5
ENDMDL
MODEL 2
REMARK VINA RESULT:      -8.3      1.886      4.039
REMARK  5 active torsions:
REMARK  status: ('A' for Active; 'I' for Inactive)
REMARK       I    between atoms: C_2  and  N_3 
REMARK    1  A    between atoms: N_3  and  C_4 
REMARK    2  A    between atoms: C_7  and  C_8 
REMARK    3  A    between atoms: C_8  and  N_9 
REMARK    4  A    between atoms: C_12  and  C_13 
REMARK    5  A    between atoms: C_14  and  O_15 
ROOT
HETATM    1  N   UNL     1      43.827 -10.894   7.249  1.00  0.00    -0.060 N 
HETATM    2  H   UNL     1      43.374 -11.602   7.836  1.00  0.00     0.280 HD
HETATM    3  C   UNL     1      44.564 -11.605   6.109  1.00  0.00     0.272 C 
HETATM    4  C   UNL     1      43.701 -12.557   5.241  1.00  0.00     0.190 C 
HETATM    5  O   UNL     1      42.691 -11.804   4.529  1.00  0.00    -0.339 OA
HETATM    6  C   UNL     1      41.534 -11.598   5.225  1.00  0.00     0.077 A 
HETATM    7  C   UNL     1      41.495 -10.755   6.333  1.00  0.00     0.001 A 
HETATM    8  C   UNL     1      42.717 -10.003   6.749  1.00  0.00     0.276 C 
HETATM    9  C   UNL     1      40.369 -12.184   4.733  1.00  0.00     0.037 A 
HETATM   10  C   UNL     1      39.160 -11.995   5.396  1.00  0.00     0.003 A 
HETATM   11  C   UNL     1      39.113 -11.197   6.536  1.00  0.00     0.001 A 
HETATM   12  C   UNL     1      40.273 -10.571   7.000  1.00  0.00     0.012 A 
ENDROOT
BRANCH   1  13
HETATM   13  C   UNL     1      44.760 -10.098   8.137  1.00  0.00     0.273 C 
BRANCH  13  14
HETATM   14  C   UNL     1      44.190  -9.715   9.475  1.00  0.00    -0.032 A 
HETATM   15  C   UNL     1      44.023 -10.688  10.469  1.00  0.00     0.011 A 
HETATM   16  C   UNL     1      43.502 -10.350  11.723  1.00  0.00     0.030 A 
HETATM   17  C   UNL     1      43.146  -9.034  12.015  1.00  0.00     0.034 A 
HETATM   18  C   UNL     1      43.309  -8.060  11.022  1.00  0.00     0.030 A 
HETATM   19  C   UNL     1      43.822  -8.395   9.762  1.00  0.00     0.011 A 
BRANCH  17  20
HETATM   20  N   UNL     1      42.645  -8.615  13.265  1.00  0.00    -0.328 N 
HETATM   21  C   UNL     1      41.453  -8.999  13.859  1.00  0.00     0.218 C 
HETATM   22  C   UNL     1      41.266  -8.410  15.236  1.00  0.00     0.117 C 
HETATM   23  O   UNL     1      40.611  -9.751  13.383  1.00  0.00    -0.274 OA
HETATM   24  H   UNL     1      43.225  -7.974  13.791  1.00  0.00     0.169 HD
ENDBRANCH  17  20
ENDBRANCH  13  14
ENDBRANCH   1  13
BRANCH   4  25
HETATM   25  C   UNL     1      43.246 -13.896   5.839  1.00  0.00     0.006 A 
HETATM   26  C   UNL     1      42.863 -14.946   4.968  1.00  0.00     0.077 A 
HETATM   27  C   UNL     1      42.416 -16.166   5.487  1.00  0.00     0.037 A 
HETATM   28  C   UNL     1      42.376 -16.375   6.864  1.00  0.00     0.003 A 
HETATM   29  C   UNL     1      42.802 -15.376   7.729  1.00  0.00     0.001 A 
HETATM   30  C   UNL     1      43.245 -14.152   7.222  1.00  0.00     0.012 A 
BRANCH  26  31
HETATM   31  O   UNL     1      42.992 -14.685   3.627  1.00  0.00    -0.355 OA
HETATM   32  C   UNL     1      43.204 -15.789   2.754  1.00  0.00     0.210 C 
ENDBRANCH  26  31
ENDBRANCH   4  25
TORSDOF 5
ENDMDL
MODEL 3
REMARK VINA RESULT:      -8.2      4.616      8.839
REMARK  5 active torsions:
REMARK  status: ('A' for Active; 'I' for Inactive)
REMARK       I    between atoms: C_2  and  N_3 
REMARK    1  A    between atoms: N_3  and  C_4 
REMARK    2  A    between atoms: C_7  and  C_8 
REMARK    3  A    between atoms: C_8  and  N_9 
REMARK    4  A    between atoms: C_12  and  C_13 
REMARK    5  A    between atoms: C_14  and  O_15 
ROOT
HETATM    1  N   UNL     1      40.326 -14.796   1.121  1.00  0.00    -0.060 N 
HETATM    2  H   UNL     1      41.300 -15.089   0.999  1.00  0.00     0.280 HD
HETATM    3  C   UNL     1      39.678 -15.691   2.182  1.00  0.00     0.272 C 
HETATM    4  C   UNL     1      40.404 -15.746   3.551  1.00  0.00     0.190 C 
HETATM    5  O   UNL     1      40.368 -14.446   4.186  1.00  0.00    -0.339 OA
HETATM    6  C   UNL     1      41.382 -13.605   3.827  1.00  0.00     0.077 A 
HETATM    7  C   UNL     1      41.455 -13.065   2.545  1.00  0.00     0.001 A 
HETATM    8  C   UNL     1      40.381 -13.349   1.546  1.00  0.00     0.276 C 
HETATM    9  C   UNL     1      42.290 -13.227   4.814  1.00  0.00     0.037 A 
HETATM   10  C   UNL     1      43.335 -12.360   4.504  1.00  0.00     0.003 A 
HETATM   11  C   UNL     1      43.454 -11.853   3.214  1.00  0.00     0.001 A 
HETATM   12  C   UNL     1      42.514 -12.195   2.238  1.00  0.00     0.012 A 
ENDROOT
BRANCH   1  13
HETATM   13  C   UNL     1      39.645 -14.906  -0.227  1.00  0.00     0.273 C 
BRANCH  13  14
HETATM   14  C   UNL     1      39.725 -13.670  -1.080  1.00  0.00    -0.032 A 
HETATM   15  C   UNL     1      40.723 -13.557  -2.057  1.00  0.00     0.011 A 
HETATM   16  C   UNL     1      40.807 -12.419  -2.867  1.00  0.00     0.030 A 
HETATM   17  C   UNL     1      39.895 -11.375  -2.727  1.00  0.00     0.034 A 
HETATM   18  C   UNL     1      38.898 -11.485  -1.749  1.00  0.00     0.030 A 
HETATM   19  C   UNL     1      38.814 -12.618  -0.929  1.00  0.00     0.011 A 
BRANCH  17  20
HETATM   20  N   UNL     1      39.900 -10.214  -3.527  1.00  0.00    -0.328 N 
HETATM   21  C   UNL     1      40.737  -9.117  -3.403  1.00  0.00     0.218 C 
HETATM   22  C   UNL     1      40.513  -8.081  -4.477  1.00  0.00     0.117 C 
HETATM   23  O   UNL     1      41.604  -8.954  -2.551  1.00  0.00    -0.274 OA
HETATM   24  H   UNL     1      39.228 -10.185  -4.283  1.00  0.00     0.169 HD
ENDBRANCH  17  20
ENDBRANCH  13  14
ENDBRANCH   1  13
BRANCH   4  25
HETATM   25  C   UNL     1      41.731 -16.510   3.656  1.00  0.00     0.006 A 
HETATM   26  C   UNL     1      42.216 -16.881   4.934  1.00  0.00     0.077 A 
HETATM   27  C   UNL     1      43.437 -17.551   5.060  1.00  0.00     0.037 A 
HETATM   28  C   UNL     1      44.174 -17.892   3.928  1.00  0.00     0.003 A 
HETATM   29  C   UNL     1      43.685 -17.587   2.665  1.00  0.00     0.001 A 
HETATM   30  C   UNL     1      42.469 -16.914   2.528  1.00  0.00     0.012 A 
BRANCH  26  31
HETATM   31  O   UNL     1      41.403 -16.565   5.994  1.00  0.00    -0.355 OA
HETATM   32  C   UNL     1      42.009 -15.998   7.150  1.00  0.00     0.210 C 
ENDBRANCH  26  31
ENDBRANCH   4  25
TORSDOF 5
ENDMDL
MODEL 4
REMARK VINA RESULT:      -8.1      5.878      8.865
REMARK  5 active torsions:
REMARK  status: ('A' for Active; 'I' for Inactive)
REMARK       I    between atoms: C_2  and  N_3 
REMARK    1  A    between atoms: N_3  and  C_4 
REMARK    2  A    between atoms: C_7  and  C_8 
REMARK    3  A    between atoms: C_8  and  N_9 
REMARK    4  A    between atoms: C_12  and  C_13 
REMARK    5  A    between atoms: C_14  and  O_15 
ROOT
HETATM    1  N   UNL     1      40.800 -12.479   1.589  1.00  0.00    -0.060 N 
HETATM    2  H   UNL     1      41.467 -12.232   0.851  1.00  0.00     0.280 HD
HETATM    3  C   UNL     1      40.010 -11.223   1.970  1.00  0.00     0.272 C 
HETATM    4  C   UNL     1      39.286 -10.503   0.802  1.00  0.00     0.190 C 
HETATM    5  O   UNL     1      38.255 -11.359   0.253  1.00  0.00    -0.339 OA
HETATM    6  C   UNL     1      38.682 -12.223  -0.714  1.00  0.00     0.077 A 
HETATM    7  C   UNL     1      39.520 -13.294  -0.409  1.00  0.00     0.001 A 
HETATM    8  C   UNL     1      39.920 -13.557   1.006  1.00  0.00     0.276 C 
HETATM    9  C   UNL     1      38.177 -12.057  -2.001  1.00  0.00     0.037 A 
HETATM   10  C   UNL     1      38.569 -12.919  -3.021  1.00  0.00     0.003 A 
HETATM   11  C   UNL     1      39.447 -13.963  -2.745  1.00  0.00     0.001 A 
HETATM   12  C   UNL     1      39.915 -14.157  -1.443  1.00  0.00     0.012 A 
ENDROOT
BRANCH   1  13
HETATM   13  C   UNL     1      41.594 -13.040   2.751  1.00  0.00     0.273 C 
BRANCH  13  14
HETATM   14  C   UNL     1      41.961 -14.493   2.624  1.00  0.00    -0.032 A 
HETATM   15  C   UNL     1      43.011 -14.878   1.780  1.00  0.00     0.011 A 
HETATM   16  C   UNL     1      43.374 -16.223   1.656  1.00  0.00     0.030 A 
HETATM   17  C   UNL     1      42.705 -17.211   2.376  1.00  0.00     0.034 A 
HETATM   18  C   UNL     1      41.653 -16.829   3.219  1.00  0.00     0.030 A 
HETATM   19  C   UNL     1      41.280 -15.484   3.340  1.00  0.00     0.011 A 
BRANCH  17  20
HETATM   20  N   UNL     1      43.036 -18.581   2.325  1.00  0.00    -0.328 N 
HETATM   21  C   UNL     1      43.880 -19.270   3.182  1.00  0.00     0.218 C 
HETATM   22  C   UNL     1      43.951 -20.746   2.877  1.00  0.00     0.117 C 
HETATM   23  O   UNL     1      44.509 -18.796   4.121  1.00  0.00    -0.274 OA
HETATM   24  H   UNL     1      42.601 -19.123   1.589  1.00  0.00     0.169 HD
ENDBRANCH  17  20
ENDBRANCH  13  14
ENDBRANCH   1  13
BRANCH   4  25
HETATM   25  C   UNL     1      40.124  -9.720  -0.218  1.00  0.00     0.006 A 
HETATM   26  C   UNL     1      39.528  -8.640  -0.917  1.00  0.00     0.077 A 
HETATM   27  C   UNL     1      40.260  -7.929  -1.873  1.00  0.00     0.037 A 
HETATM   28  C   UNL     1      41.592  -8.249  -2.125  1.00  0.00     0.003 A 
HETATM   29  C   UNL     1      42.207  -9.267  -1.407  1.00  0.00     0.001 A 
HETATM   30  C   UNL     1      41.485  -9.988  -0.453  1.00  0.00     0.012 A 
BRANCH  26  31
HETATM   31  O   UNL     1      38.234  -8.346  -0.567  1.00  0.00    -0.355 OA
HETATM   32  C   UNL     1      37.239  -8.424  -1.583  1.00  0.00     0.210 C 
ENDBRANCH  26  31
ENDBRANCH   4  25
TORSDOF 5
ENDMDL
MODEL 5
REMARK VINA RESULT:      -8.0     17.660     20.839
REMARK  5 active torsions:
REMARK  status: ('A' for Active; 'I' for Inactive)
REMARK       I    between atoms: C_2  and  N_3 
REMARK    1  A    between atoms: N_3  and  C_4 
REMARK    2  A    between atoms: C_7  and  C_8 
REMARK    3  A    between atoms: C_8  and  N_9 
REMARK    4  A    between atoms: C_12  and  C_13 
REMARK    5  A    between atoms: C_14  and  O_15 
ROOT
HETATM    1  N   UNL     1      46.542 -28.881   0.146  1.00  0.00    -0.060 N 
HETATM    2  H   UNL     1      46.456 -29.864  -0.131  1.00  0.00     0.280 HD
HETATM    3  C   UNL     1      46.448 -28.796   1.673  1.00  0.00     0.272 C 
HETATM    4  C   UNL     1      47.457 -29.674   2.460  1.00  0.00     0.190 C 
HETATM    5  O   UNL     1      48.809 -29.221   2.212  1.00  0.00    -0.339 OA
HETATM    6  C   UNL     1      49.400 -29.760   1.105  1.00  0.00     0.077 A 
HETATM    7  C   UNL     1      48.969 -29.431  -0.179  1.00  0.00     0.001 A 
HETATM    8  C   UNL     1      47.884 -28.424  -0.373  1.00  0.00     0.276 C 
HETATM    9  C   UNL     1      50.511 -30.578   1.297  1.00  0.00     0.037 A 
HETATM   10  C   UNL     1      51.159 -31.143   0.201  1.00  0.00     0.003 A 
HETATM   11  C   UNL     1      50.709 -30.866  -1.086  1.00  0.00     0.001 A 
HETATM   12  C   UNL     1      49.624 -30.007  -1.279  1.00  0.00     0.012 A 
ENDROOT
BRANCH   1  13
HETATM   13  C   UNL     1      45.437 -28.113  -0.547  1.00  0.00     0.273 C 
BRANCH  13  14
HETATM   14  C   UNL     1      45.058 -28.637  -1.906  1.00  0.00    -0.032 A 
HETATM   15  C   UNL     1      45.428 -27.929  -3.057  1.00  0.00     0.011 A 
HETATM   16  C   UNL     1      45.092 -28.404  -4.329  1.00  0.00     0.030 A 
HETATM   17  C   UNL     1      44.389 -29.598  -4.481  1.00  0.00     0.034 A 
HETATM   18  C   UNL     1      44.015 -30.306  -3.332  1.00  0.00     0.030 A 
HETATM   19  C   UNL     1      44.341 -29.830  -2.055  1.00  0.00     0.011 A 
BRANCH  17  20
HETATM   20  N   UNL     1      44.044 -30.152  -5.731  1.00  0.00    -0.328 N 
HETATM   21  C   UNL     1      44.765 -31.087  -6.458  1.00  0.00     0.218 C 
HETATM   22  C   UNL     1      44.064 -31.514  -7.725  1.00  0.00     0.117 C 
HETATM   23  O   UNL     1      45.847 -31.573  -6.150  1.00  0.00    -0.274 OA
HETATM   24  H   UNL     1      43.169 -29.844  -6.136  1.00  0.00     0.169 HD
ENDBRANCH  17  20
ENDBRANCH  13  14
ENDBRANCH   1  13
BRANCH   4  25
HETATM   25  C   UNL     1      47.250 -31.194   2.488  1.00  0.00     0.006 A 
HETATM   26  C   UNL     1      47.754 -31.939   3.583  1.00  0.00     0.077 A 
HETATM   27  C   UNL     1      47.606 -33.330   3.620  1.00  0.00     0.037 A 
HETATM   28  C   UNL     1      46.931 -33.994   2.599  1.00  0.00     0.003 A 
HETATM   29  C   UNL     1      46.381 -33.272   1.548  1.00  0.00     0.001 A 
HETATM   30  C   UNL     1      46.527 -31.884   1.498  1.00  0.00     0.012 A 
BRANCH  26  31
HETATM   31  O   UNL     1      48.350 -31.205   4.578  1.00  0.00    -0.355 OA
HETATM   32  C   UNL     1      49.713 -31.483   4.882  1.00  0.00     0.210 C 
ENDBRANCH  26  31
ENDBRANCH   4  25
TORSDOF 5
ENDMDL
MODEL 6
REMARK VINA RESULT:      -8.0      4.187      8.873
REMARK  5 active torsions:
REMARK  status: ('A' for Active; 'I' for Inactive)
REMARK       I    between atoms: C_2  and  N_3 
REMARK    1  A    between atoms: N_3  and  C_4 
REMARK    2  A    between atoms: C_7  and  C_8 
REMARK    3  A    between atoms: C_8  and  N_9 
REMARK    4  A    between atoms: C_12  and  C_13 
REMARK    5  A    between atoms: C_14  and  O_15 
ROOT
HETATM    1  N   UNL     1      40.733 -14.676   1.642  1.00  0.00    -0.060 N 
HETATM    2  H   UNL     1      40.033 -14.163   2.188  1.00  0.00     0.280 HD
HETATM    3  C   UNL     1      41.923 -13.747   1.382  1.00  0.00     0.272 C 
HETATM    4  C   UNL     1      42.572 -13.116   2.641  1.00  0.00     0.190 C 
HETATM    5  O   UNL     1      43.164 -14.148   3.466  1.00  0.00    -0.339 OA
HETATM    6  C   UNL     1      42.309 -14.731   4.356  1.00  0.00     0.077 A 
HETATM    7  C   UNL     1      41.271 -15.557   3.929  1.00  0.00     0.001 A 
HETATM    8  C   UNL     1      41.110 -15.874   2.479  1.00  0.00     0.276 C 
HETATM    9  C   UNL     1      42.565 -14.551   5.714  1.00  0.00     0.037 A 
HETATM   10  C   UNL     1      41.731 -15.135   6.664  1.00  0.00     0.003 A 
HETATM   11  C   UNL     1      40.658 -15.920   6.253  1.00  0.00     0.001 A 
HETATM   12  C   UNL     1      40.432 -16.139   4.892  1.00  0.00     0.012 A 
ENDROOT
BRANCH   1  13
HETATM   13  C   UNL     1      40.065 -15.136   0.363  1.00  0.00     0.273 C 
BRANCH  13  14
HETATM   14  C   UNL     1      39.704 -14.034  -0.595  1.00  0.00    -0.032 A 
HETATM   15  C   UNL     1      40.026 -14.156  -1.954  1.00  0.00     0.011 A 
HETATM   16  C   UNL     1      39.691 -13.146  -2.862  1.00  0.00     0.030 A 
HETATM   17  C   UNL     1      39.021 -11.999  -2.438  1.00  0.00     0.034 A 
HETATM   18  C   UNL     1      38.700 -11.875  -1.081  1.00  0.00     0.030 A 
HETATM   19  C   UNL     1      39.041 -12.879  -0.165  1.00  0.00     0.011 A 
BRANCH  17  20
HETATM   20  N   UNL     1      38.624 -10.957  -3.302  1.00  0.00    -0.328 N 
HETATM   21  C   UNL     1      39.395  -9.889  -3.732  1.00  0.00     0.218 C 
HETATM   22  C   UNL     1      38.671  -8.998  -4.711  1.00  0.00     0.117 C 
HETATM   23  O   UNL     1      40.554  -9.651  -3.411  1.00  0.00    -0.274 OA
HETATM   24  H   UNL     1      37.677 -11.000  -3.655  1.00  0.00     0.169 HD
ENDBRANCH  17  20
ENDBRANCH  13  14
ENDBRANCH   1  13
BRANCH   4  25
HETATM   25  C   UNL     1      41.816 -12.009   3.388  1.00  0.00     0.006 A 
HETATM   26  C   UNL     1      42.549 -11.062   4.145  1.00  0.00     0.077 A 
HETATM   27  C   UNL     1      41.883 -10.060   4.859  1.00  0.00     0.037 A 
HETATM   28  C   UNL     1      40.494  -9.961   4.807  1.00  0.00     0.003 A 
HETATM   29  C   UNL     1      39.766 -10.846   4.024  1.00  0.00     0.001 A 
HETATM   30  C   UNL     1      40.419 -11.853   3.311  1.00  0.00     0.012 A 
BRANCH  26  31
HETATM   31  O   UNL     1      43.914 -11.188   4.095  1.00  0.00    -0.355 OA
HETATM   32  C   UNL     1      44.602 -11.446   5.314  1.00  0.00     0.210 C 
ENDBRANCH  26  31
ENDBRANCH   4  25
TORSDOF 5
ENDMDL
MODEL 7
REMARK VINA RESULT:      -7.7      2.561      8.804
REMARK  5 active torsions:
REMARK  status: ('A' for Active; 'I' for Inactive)
REMARK       I    between atoms: C_2  and  N_3 
REMARK    1  A    between atoms: N_3  and  C_4 
REMARK    2  A    between atoms: C_7  and  C_8 
REMARK    3  A    between atoms: C_8  and  N_9 
REMARK    4  A    between atoms: C_12  and  C_13 
REMARK    5  A    between atoms: C_14  and  O_15 
ROOT
HETATM    1  N   UNL     1      41.058 -10.078   7.682  1.00  0.00    -0.060 N 
HETATM    2  H   UNL     1      41.341 -10.625   8.501  1.00  0.00     0.280 HD
HETATM    3  C   UNL     1      40.682  -8.667   8.146  1.00  0.00     0.272 C 
HETATM    4  C   UNL     1      41.770  -7.912   8.954  1.00  0.00     0.190 C 
HETATM    5  O   UNL     1      42.926  -7.662   8.119  1.00  0.00    -0.339 OA
HETATM    6  C   UNL     1      43.838  -8.677   8.084  1.00  0.00     0.077 A 
HETATM    7  C   UNL     1      43.550  -9.889   7.460  1.00  0.00     0.001 A 
HETATM    8  C   UNL     1      42.248 -10.081   6.754  1.00  0.00     0.276 C 
HETATM    9  C   UNL     1      45.104  -8.429   8.611  1.00  0.00     0.037 A 
HETATM   10  C   UNL     1      46.076  -9.426   8.589  1.00  0.00     0.003 A 
HETATM   11  C   UNL     1      45.787 -10.660   8.016  1.00  0.00     0.001 A 
HETATM   12  C   UNL     1      44.533 -10.891   7.445  1.00  0.00     0.012 A 
ENDROOT
BRANCH   1  13
HETATM   13  C   UNL     1      39.899 -10.802   7.029  1.00  0.00     0.273 C 
BRANCH  13  14
HETATM   14  C   UNL     1      40.291 -11.827   6.000  1.00  0.00    -0.032 A 
HETATM   15  C   UNL     1      40.118 -11.551   4.637  1.00  0.00     0.011 A 
HETATM   16  C   UNL     1      40.485 -12.488   3.665  1.00  0.00     0.030 A 
HETATM   17  C   UNL     1      41.040 -13.714   4.029  1.00  0.00     0.034 A 
HETATM   18  C   UNL     1      41.211 -13.992   5.391  1.00  0.00     0.030 A 
HETATM   19  C   UNL     1      40.838 -13.062   6.370  1.00  0.00     0.011 A 
BRANCH  17  20
HETATM   20  N   UNL     1      41.461 -14.691   3.104  1.00  0.00    -0.328 N 
HETATM   21  C   UNL     1      42.640 -14.699   2.375  1.00  0.00     0.218 C 
HETATM   22  C   UNL     1      42.801 -15.939   1.530  1.00  0.00     0.117 C 
HETATM   23  O   UNL     1      43.511 -13.837   2.390  1.00  0.00    -0.274 OA
HETATM   24  H   UNL     1      40.841 -15.479   2.966  1.00  0.00     0.169 HD
ENDBRANCH  17  20
ENDBRANCH  13  14
ENDBRANCH   1  13
BRANCH   4  25
HETATM   25  C   UNL     1      42.063  -8.354  10.394  1.00  0.00     0.006 A 
HETATM   26  C   UNL     1      42.492  -7.389  11.338  1.00  0.00     0.077 A 
HETATM   27  C   UNL     1      42.795  -7.770  12.650  1.00  0.00     0.037 A 
HETATM   28  C   UNL     1      42.644  -9.095  13.052  1.00  0.00     0.003 A 
HETATM   29  C   UNL     1      42.169 -10.042  12.154  1.00  0.00     0.001 A 
HETATM   30  C   UNL     1      41.869  -9.674  10.841  1.00  0.00     0.012 A 
BRANCH  26  31
HETATM   31  O   UNL     1      42.554  -6.096  10.883  1.00  0.00    -0.355 OA
HETATM   32  C   UNL     1      42.141  -5.060  11.767  1.00  0.00     0.210 C 
ENDBRANCH  26  31
ENDBRANCH   4  25
TORSDOF 5
ENDMDL
MODEL 8
REMARK VINA RESULT:      -7.7      3.684      9.068
REMARK  5 active torsions:
REMARK  status: ('A' for Active; 'I' for Inactive)
REMARK       I    between atoms: C_2  and  N_3 
REMARK    1  A    between atoms: N_3  and  C_4 
REMARK    2  A    between atoms: C_7  and  C_8 
REMARK    3  A    between atoms: C_8  and  N_9 
REMARK    4  A    between atoms: C_12  and  C_13 
REMARK    5  A    between atoms: C_14  and  O_15 
ROOT
HETATM    1  N   UNL     1      40.874 -14.035   2.225  1.00  0.00    -0.060 N 
HETATM    2  H   UNL     1      41.467 -13.199   2.241  1.00  0.00     0.280 HD
HETATM    3  C   UNL     1      41.382 -15.011   3.291  1.00  0.00     0.272 C 
HETATM    4  C   UNL     1      41.484 -14.444   4.731  1.00  0.00     0.190 C 
HETATM    5  O   UNL     1      40.166 -14.109   5.228  1.00  0.00    -0.339 OA
HETATM    6  C   UNL     1      39.733 -12.855   4.902  1.00  0.00     0.077 A 
HETATM    7  C   UNL     1      39.411 -12.519   3.588  1.00  0.00     0.001 A 
HETATM    8  C   UNL     1      39.473 -13.551   2.511  1.00  0.00     0.276 C 
HETATM    9  C   UNL     1      39.531 -11.949   5.941  1.00  0.00     0.037 A 
HETATM   10  C   UNL     1      39.078 -10.662   5.664  1.00  0.00     0.003 A 
HETATM   11  C   UNL     1      38.801 -10.293   4.352  1.00  0.00     0.001 A 
HETATM   12  C   UNL     1      38.958 -11.218   3.317  1.00  0.00     0.012 A 
ENDROOT
BRANCH   1  13
HETATM   13  C   UNL     1      40.940 -14.614   0.828  1.00  0.00     0.273 C 
BRANCH  13  14
HETATM   14  C   UNL     1      40.392 -13.724  -0.254  1.00  0.00    -0.032 A 
HETATM   15  C   UNL     1      39.373 -14.190  -1.094  1.00  0.00     0.011 A 
HETATM   16  C   UNL     1      38.844 -13.374  -2.100  1.00  0.00     0.030 A 
HETATM   17  C   UNL     1      39.312 -12.074  -2.283  1.00  0.00     0.034 A 
HETATM   18  C   UNL     1      40.333 -11.606  -1.445  1.00  0.00     0.030 A 
HETATM   19  C   UNL     1      40.872 -12.422  -0.442  1.00  0.00     0.011 A 
BRANCH  17  20
HETATM   20  N   UNL     1      38.805 -11.186  -3.254  1.00  0.00    -0.328 N 
HETATM   21  C   UNL     1      37.792 -10.255  -3.087  1.00  0.00     0.218 C 
HETATM   22  C   UNL     1      37.553  -9.419  -4.321  1.00  0.00     0.117 C 
HETATM   23  O   UNL     1      37.139 -10.063  -2.067  1.00  0.00    -0.274 OA
HETATM   24  H   UNL     1      39.236 -11.224  -4.169  1.00  0.00     0.169 HD
ENDBRANCH  17  20
ENDBRANCH  13  14
ENDBRANCH   1  13
BRANCH   4  25
HETATM   25  C   UNL     1      42.600 -13.442   5.055  1.00  0.00     0.006 A 
HETATM   26  C   UNL     1      43.230 -13.497   6.323  1.00  0.00     0.077 A 
HETATM   27  C   UNL     1      44.229 -12.576   6.656  1.00  0.00     0.037 A 
HETATM   28  C   UNL     1      44.642 -11.619   5.732  1.00  0.00     0.003 A 
HETATM   29  C   UNL     1      44.076 -11.590   4.465  1.00  0.00     0.001 A 
HETATM   30  C   UNL     1      43.073 -12.500   4.123  1.00  0.00     0.012 A 
BRANCH  26  31
HETATM   31  O   UNL     1      42.812 -14.507   7.153  1.00  0.00    -0.355 OA
HETATM   32  C   UNL     1      43.589 -15.699   7.190  1.00  0.00     0.210 C 
ENDBRANCH  26  31
ENDBRANCH   4  25
TORSDOF 5
ENDMDL
MODEL 9
REMARK VINA RESULT:      -7.7      2.428      8.438
REMARK  5 active torsions:
REMARK  status: ('A' for Active; 'I' for Inactive)
REMARK       I    between atoms: C_2  and  N_3 
REMARK    1  A    between atoms: N_3  and  C_4 
REMARK    2  A    between atoms: C_7  and  C_8 
REMARK    3  A    between atoms: C_8  and  N_9 
REMARK    4  A    between atoms: C_12  and  C_13 
REMARK    5  A    between atoms: C_14  and  O_15 
ROOT
HETATM    1  N   UNL     1      41.845 -11.085   7.011  1.00  0.00    -0.060 N 
HETATM    2  H   UNL     1      42.210 -11.635   7.795  1.00  0.00     0.280 HD
HETATM    3  C   UNL     1      41.109  -9.865   7.574  1.00  0.00     0.272 C 
HETATM    4  C   UNL     1      41.932  -8.965   8.533  1.00  0.00     0.190 C 
HETATM    5  O   UNL     1      43.034  -8.354   7.818  1.00  0.00    -0.339 OA
HETATM    6  C   UNL     1      44.169  -9.111   7.761  1.00  0.00     0.077 A 
HETATM    7  C   UNL     1      44.222 -10.280   7.005  1.00  0.00     0.001 A 
HETATM    8  C   UNL     1      43.047 -10.700   6.184  1.00  0.00     0.276 C 
HETATM    9  C   UNL     1      45.304  -8.627   8.407  1.00  0.00     0.037 A 
HETATM   10  C   UNL     1      46.491  -9.353   8.368  1.00  0.00     0.003 A 
HETATM   11  C   UNL     1      46.547 -10.550   7.661  1.00  0.00     0.001 A 
HETATM   12  C   UNL     1      45.421 -11.010   6.973  1.00  0.00     0.012 A 
ENDROOT
BRANCH   1  13
HETATM   13  C   UNL     1      40.938 -11.989   6.204  1.00  0.00     0.273 C 
BRANCH  13  14
HETATM   14  C   UNL     1      41.599 -13.224   5.655  1.00  0.00    -0.032 A 
HETATM   15  C   UNL     1      41.996 -13.266   4.312  1.00  0.00     0.011 A 
HETATM   16  C   UNL     1      42.621 -14.401   3.785  1.00  0.00     0.030 A 
HETATM   17  C   UNL     1      42.870 -15.514   4.586  1.00  0.00     0.034 A 
HETATM   18  C   UNL     1      42.472 -15.475   5.929  1.00  0.00     0.030 A 
HETATM   19  C   UNL     1      41.838 -14.344   6.459  1.00  0.00     0.011 A 
BRANCH  17  20
HETATM   20  N   UNL     1      43.523 -16.679   4.132  1.00  0.00    -0.328 N 
HETATM   21  C   UNL     1      43.084 -17.554   3.151  1.00  0.00     0.218 C 
HETATM   22  C   UNL     1      44.070 -18.660   2.866  1.00  0.00     0.117 C 
HETATM   23  O   UNL     1      42.032 -17.479   2.526  1.00  0.00    -0.274 OA
HETATM   24  H   UNL     1      44.415 -16.892   4.560  1.00  0.00     0.169 HD
ENDBRANCH  17  20
ENDBRANCH  13  14
ENDBRANCH   1  13
BRANCH   4  25
HETATM   25  C   UNL     1      42.247  -9.480   9.944  1.00  0.00     0.006 A 
HETATM   26  C   UNL     1      41.427  -9.074  11.026  1.00  0.00     0.077 A 
HETATM   27  C   UNL     1      41.710  -9.505  12.326  1.00  0.00     0.037 A 
HETATM   28  C   UNL     1      42.779 -10.364  12.568  1.00  0.00     0.003 A 
HETATM   29  C   UNL     1      43.557 -10.816  11.511  1.00  0.00     0.001 A 
HETATM   30  C   UNL     1      43.288 -10.389  10.209  1.00  0.00     0.012 A 
BRANCH  26  31
HETATM   31  O   UNL     1      40.358  -8.280  10.697  1.00  0.00    -0.355 OA
HETATM   32  C   UNL     1      40.176  -7.075  11.433  1.00  0.00     0.210 C 
ENDBRANCH  26  31
ENDBRANCH   4  25
TORSDOF 5
ENDMDL
MODEL 10
REMARK VINA RESULT:      -7.7      3.697      7.316
REMARK  5 active torsions:
REMARK  status: ('A' for Active; 'I' for Inactive)
REMARK       I    between atoms: C_2  and  N_3 
REMARK    1  A    between atoms: N_3  and  C_4 
REMARK    2  A    between atoms: C_7  and  C_8 
REMARK    3  A    between atoms: C_8  and  N_9 
REMARK    4  A    between atoms: C_12  and  C_13 
REMARK    5  A    between atoms: C_14  and  O_15 
ROOT
HETATM    1  N   UNL     1      40.273 -11.730   3.960  1.00  0.00    -0.060 N 
HETATM    2  H   UNL     1      41.047 -11.882   3.305  1.00  0.00     0.280 HD
HETATM    3  C   UNL     1      39.649 -13.088   4.298  1.00  0.00     0.272 C 
HETATM    4  C   UNL     1      40.625 -14.159   4.851  1.00  0.00     0.190 C 
HETATM    5  O   UNL     1      41.153 -13.738   6.132  1.00  0.00    -0.339 OA
HETATM    6  C   UNL     1      42.263 -12.946   6.061  1.00  0.00     0.077 A 
HETATM    7  C   UNL     1      42.194 -11.643   5.571  1.00  0.00     0.001 A 
HETATM    8  C   UNL     1      40.880 -11.060   5.168  1.00  0.00     0.276 C 
HETATM    9  C   UNL     1      43.452 -13.450   6.585  1.00  0.00     0.037 A 
HETATM   10  C   UNL     1      44.611 -12.678   6.550  1.00  0.00     0.003 A 
HETATM   11  C   UNL     1      44.571 -11.394   6.016  1.00  0.00     0.001 A 
HETATM   12  C   UNL     1      43.367 -10.873   5.536  1.00  0.00     0.012 A 
ENDROOT
BRANCH   1  13
HETATM   13  C   UNL     1      39.291 -10.790   3.293  1.00  0.00     0.273 C 
BRANCH  13  14
HETATM   14  C   UNL     1      39.790 -10.144   2.030  1.00  0.00    -0.032 A 
HETATM   15  C   UNL     1      39.828 -10.877   0.836  1.00  0.00     0.011 A 
HETATM   16  C   UNL     1      40.281 -10.291  -0.350  1.00  0.00     0.030 A 
HETATM   17  C   UNL     1      40.696  -8.961  -0.375  1.00  0.00     0.034 A 
HETATM   18  C   UNL     1      40.662  -8.226   0.817  1.00  0.00     0.030 A 
HETATM   19  C   UNL     1      40.218  -8.811   2.011  1.00  0.00     0.011 A 
BRANCH  17  20
HETATM   20  N   UNL     1      41.134  -8.296  -1.540  1.00  0.00    -0.328 N 
HETATM   21  C   UNL     1      42.444  -8.098  -1.947  1.00  0.00     0.218 C 
HETATM   22  C   UNL     1      42.546  -7.407  -3.284  1.00  0.00     0.117 C 
HETATM   23  O   UNL     1      43.454  -8.444  -1.345  1.00  0.00    -0.274 OA
HETATM   24  H   UNL     1      40.412  -7.935  -2.151  1.00  0.00     0.169 HD
ENDBRANCH  17  20
ENDBRANCH  13  14
ENDBRANCH   1  13
BRANCH   4  25
HETATM   25  C   UNL     1      41.630 -14.811   3.891  1.00  0.00     0.006 A 
HETATM   26  C   UNL     1      42.151 -16.091   4.202  1.00  0.00     0.077 A 
HETATM   27  C   UNL     1      43.091 -16.695   3.360  1.00  0.00     0.037 A 
HETATM   28  C   UNL     1      43.498 -16.062   2.188  1.00  0.00     0.003 A 
HETATM   29  C   UNL     1      42.952 -14.833   1.839  1.00  0.00     0.001 A 
HETATM   30  C   UNL     1      42.018 -14.218   2.675  1.00  0.00     0.012 A 
BRANCH  26  31
HETATM   31  O   UNL     1      41.654 -16.676   5.339  1.00  0.00    -0.355 OA
HETATM   32  C   UNL     1      42.585 -17.111   6.324  1.00  0.00     0.210 C 
ENDBRANCH  26  31
ENDBRANCH   4  25
TORSDOF 5
ENDMDL
