MODEL 1
REMARK VINA RESULT:      -9.5      0.000      0.000
REMARK  7 active torsions:
REMARK  status: ('A' for Active; 'I' for Inactive)
REMARK    1  A    between atoms: C_2  and  O_3 
REMARK    2  A    between atoms: O_3  and  C_4 
REMARK    3  A    between atoms: C_7  and  N_8 
REMARK       I    between atoms: N_8  and  C_9 
REMARK    4  A    between atoms: C_9  and  C_10 
REMARK    5  A    between atoms: C_13  and  N_14 
REMARK       I    between atoms: N_14  and  C_15 
REMARK    6  A    between atoms: C_15  and  C_16 
REMARK    7  A    between atoms: C_16  and  N_17 
ROOT
HETATM    1  C   UNL     1      41.466 -12.557   3.251  1.00  0.00     0.032 A 
HETATM    2  C   UNL     1      40.796 -12.331   4.456  1.00  0.00     0.019 A 
HETATM    3  C   UNL     1      41.452 -11.669   5.509  1.00  0.00     0.030 A 
HETATM    4  C   UNL     1      42.780 -11.253   5.369  1.00  0.00     0.034 A 
HETATM    5  C   UNL     1      43.430 -11.458   4.145  1.00  0.00     0.030 A 
HETATM    6  C   UNL     1      42.784 -12.117   3.097  1.00  0.00     0.019 A 
ENDROOT
BRANCH   4   7
HETATM    7  N   UNL     1      43.558 -10.685   6.400  1.00  0.00    -0.326 N 
HETATM    8  C   UNL     1      44.143 -11.327   7.485  1.00  0.00     0.240 C 
HETATM    9  O   UNL     1      43.974 -12.499   7.810  1.00  0.00    -0.271 OA
HETATM   10  H   UNL     1      43.825  -9.720   6.249  1.00  0.00     0.169 HD
BRANCH   8  11
HETATM   11  C   UNL     1      45.049 -10.383   8.289  1.00  0.00     0.240 C 
BRANCH  11  12
HETATM   12  N   UNL     1      44.269  -9.615   9.229  1.00  0.00    -0.259 N 
HETATM   13  C   UNL     1      43.756  -8.389   8.945  1.00  0.00     0.326 A 
HETATM   14  O   UNL     1      43.848  -7.783   7.891  1.00  0.00    -0.247 OA
HETATM   15  N   UNL     1      43.069  -7.936  10.046  1.00  0.00    -0.324 N 
HETATM   16  C   UNL     1      42.993  -8.929  11.097  1.00  0.00     0.116 A 
HETATM   17  H   UNL     1      42.581  -7.050  10.022  1.00  0.00     0.165 HD
HETATM   18  C   UNL     1      41.555  -9.432  11.268  1.00  0.00     0.041 C 
HETATM   19  C   UNL     1      43.600  -8.432  12.407  1.00  0.00     0.041 C 
HETATM   20  C   UNL     1      43.872 -10.031  10.467  1.00  0.00     0.256 A 
HETATM   21  C   UNL     1      40.667  -8.404  11.972  1.00  0.00     0.007 C 
HETATM   22  C   UNL     1      41.258  -7.909  13.300  1.00  0.00    -0.019 C 
HETATM   23  C   UNL     1      41.161  -8.978  14.391  1.00  0.00     0.010 C 
HETATM   24  C   UNL     1      42.699  -7.416  13.112  1.00  0.00     0.007 C 
HETATM   25  O   UNL     1      44.112 -11.119  10.974  1.00  0.00    -0.270 OA
ENDBRANCH  11  12
ENDBRANCH   8  11
ENDBRANCH   4   7
BRANCH   1  26
HETATM   26  C   UNL     1      40.935 -13.460   2.219  1.00  0.00     0.256 C 
HETATM   27  N   UNL     1      41.349 -14.748   2.011  1.00  0.00    -0.323 N 
HETATM   28  H   UNL     1      40.918 -15.097   1.162  1.00  0.00     0.169 HD
HETATM   29  O   UNL     1      40.071 -13.003   1.466  1.00  0.00    -0.267 OA
BRANCH  27  30
HETATM   30  C   UNL     1      42.083 -15.695   2.739  1.00  0.00     0.035 A 
HETATM   31  C   UNL     1      42.031 -15.897   4.114  1.00  0.00     0.032 A 
HETATM   32  C   UNL     1      42.797 -16.914   4.717  1.00  0.00     0.039 A 
HETATM   33  C   UNL     1      43.609 -17.745   3.948  1.00  0.00     0.068 A 
HETATM   34  C   UNL     1      43.643 -17.559   2.569  1.00  0.00     0.039 A 
HETATM   35  C   UNL     1      42.893 -16.545   1.971  1.00  0.00     0.032 A 
BRANCH  33  36
HETATM   36  O   UNL     1      44.392 -18.772   4.388  1.00  0.00    -0.352 OA
BRANCH  36  37
HETATM   37  C   UNL     1      44.005 -20.115   4.110  1.00  0.00     0.171 C 
HETATM   38  C   UNL     1      43.994 -20.941   5.383  1.00  0.00     0.034 C 
ENDBRANCH  36  37
ENDBRANCH  33  36
ENDBRANCH  27  30
ENDBRANCH   1  26
TORSDOF 7
ENDMDL
MODEL 2
REMARK VINA RESULT:      -9.3      1.974     10.519
REMARK  7 active torsions:
REMARK  status: ('A' for Active; 'I' for Inactive)
REMARK    1  A    between atoms: C_2  and  O_3 
REMARK    2  A    between atoms: O_3  and  C_4 
REMARK    3  A    between atoms: C_7  and  N_8 
REMARK       I    between atoms: N_8  and  C_9 
REMARK    4  A    between atoms: C_9  and  C_10 
REMARK    5  A    between atoms: C_13  and  N_14 
REMARK       I    between atoms: N_14  and  C_15 
REMARK    6  A    between atoms: C_15  and  C_16 
REMARK    7  A    between atoms: C_16  and  N_17 
ROOT
HETATM    1  C   UNL     1      44.461 -10.273   7.716  1.00  0.00     0.032 A 
HETATM    2  C   UNL     1      43.225  -9.845   7.225  1.00  0.00     0.019 A 
HETATM    3  C   UNL     1      42.536 -10.628   6.283  1.00  0.00     0.030 A 
HETATM    4  C   UNL     1      43.088 -11.825   5.814  1.00  0.00     0.034 A 
HETATM    5  C   UNL     1      44.313 -12.258   6.338  1.00  0.00     0.030 A 
HETATM    6  C   UNL     1      45.002 -11.483   7.273  1.00  0.00     0.019 A 
ENDROOT
BRANCH   4   7
HETATM    7  N   UNL     1      42.532 -12.621   4.790  1.00  0.00    -0.326 N 
HETATM    8  C   UNL     1      41.268 -13.196   4.743  1.00  0.00     0.240 C 
HETATM    9  O   UNL     1      40.448 -13.219   5.655  1.00  0.00    -0.271 OA
HETATM   10  H   UNL     1      43.079 -12.660   3.939  1.00  0.00     0.169 HD
BRANCH   8  11
HETATM   11  C   UNL     1      40.987 -13.850   3.381  1.00  0.00     0.240 C 
BRANCH  11  12
HETATM   12  N   UNL     1      41.835 -15.001   3.190  1.00  0.00    -0.259 N 
HETATM   13  C   UNL     1      43.033 -14.947   2.551  1.00  0.00     0.326 A 
HETATM   14  O   UNL     1      43.568 -13.956   2.082  1.00  0.00    -0.247 OA
HETATM   15  N   UNL     1      43.583 -16.206   2.543  1.00  0.00    -0.324 N 
HETATM   16  C   UNL     1      42.802 -17.155   3.308  1.00  0.00     0.116 A 
HETATM   17  H   UNL     1      44.498 -16.368   2.141  1.00  0.00     0.165 HD
HETATM   18  C   UNL     1      43.556 -17.587   4.572  1.00  0.00     0.041 C 
HETATM   19  C   UNL     1      42.344 -18.342   2.463  1.00  0.00     0.041 C 
HETATM   20  C   UNL     1      41.607 -16.253   3.683  1.00  0.00     0.256 A 
HETATM   21  C   UNL     1      44.697 -18.557   4.255  1.00  0.00     0.007 C 
HETATM   22  C   UNL     1      44.246 -19.764   3.421  1.00  0.00    -0.019 C 
HETATM   23  C   UNL     1      43.426 -20.750   4.257  1.00  0.00     0.010 C 
HETATM   24  C   UNL     1      43.488 -19.314   2.165  1.00  0.00     0.007 C 
HETATM   25  O   UNL     1      40.650 -16.596   4.366  1.00  0.00    -0.270 OA
ENDBRANCH  11  12
ENDBRANCH   8  11
ENDBRANCH   4   7
BRANCH   1  26
HETATM   26  C   UNL     1      45.342  -9.389   8.495  1.00  0.00     0.256 C 
HETATM   27  N   UNL     1      45.059  -8.892   9.738  1.00  0.00    -0.323 N 
HETATM   28  H   UNL     1      45.769  -8.212   9.987  1.00  0.00     0.169 HD
HETATM   29  O   UNL     1      46.404  -9.051   7.966  1.00  0.00    -0.267 OA
BRANCH  27  30
HETATM   30  C   UNL     1      44.140  -9.192  10.753  1.00  0.00     0.035 A 
HETATM   31  C   UNL     1      43.995 -10.417  11.396  1.00  0.00     0.032 A 
HETATM   32  C   UNL     1      43.053 -10.575  12.431  1.00  0.00     0.039 A 
HETATM   33  C   UNL     1      42.259  -9.505  12.840  1.00  0.00     0.068 A 
HETATM   34  C   UNL     1      42.420  -8.272  12.214  1.00  0.00     0.039 A 
HETATM   35  C   UNL     1      43.346  -8.117  11.181  1.00  0.00     0.032 A 
BRANCH  33  36
HETATM   36  O   UNL     1      41.320  -9.504  13.830  1.00  0.00    -0.352 OA
BRANCH  36  37
HETATM   37  C   UNL     1      40.848  -8.263  14.347  1.00  0.00     0.171 C 
HETATM   38  C   UNL     1      41.267  -8.095  15.796  1.00  0.00     0.034 C 
ENDBRANCH  36  37
ENDBRANCH  33  36
ENDBRANCH  27  30
ENDBRANCH   1  26
TORSDOF 7
ENDMDL
MODEL 3
REMARK VINA RESULT:      -9.1      0.961      1.654
REMARK  7 active torsions:
REMARK  status: ('A' for Active; 'I' for Inactive)
REMARK    1  A    between atoms: C_2  and  O_3 
REMARK    2  A    between atoms: O_3  and  C_4 
REMARK    3  A    between atoms: C_7  and  N_8 
REMARK       I    between atoms: N_8  and  C_9 
REMARK    4  A    between atoms: C_9  and  C_10 
REMARK    5  A    between atoms: C_13  and  N_14 
REMARK       I    between atoms: N_14  and  C_15 
REMARK    6  A    between atoms: C_15  and  C_16 
REMARK    7  A    between atoms: C_16  and  N_17 
ROOT
HETATM    1  C   UNL     1      40.835 -12.785   3.536  1.00  0.00     0.032 A 
HETATM    2  C   UNL     1      40.253 -12.708   4.804  1.00  0.00     0.019 A 
HETATM    3  C   UNL     1      40.871 -11.948   5.812  1.00  0.00     0.030 A 
HETATM    4  C   UNL     1      42.077 -11.284   5.565  1.00  0.00     0.034 A 
HETATM    5  C   UNL     1      42.633 -11.346   4.280  1.00  0.00     0.030 A 
HETATM    6  C   UNL     1      42.025 -12.101   3.275  1.00  0.00     0.019 A 
ENDROOT
BRANCH   4   7
HETATM    7  N   UNL     1      42.830 -10.593   6.537  1.00  0.00    -0.326 N 
HETATM    8  C   UNL     1      43.759 -11.113   7.431  1.00  0.00     0.240 C 
HETATM    9  O   UNL     1      43.995 -12.302   7.620  1.00  0.00    -0.271 OA
HETATM   10  H   UNL     1      42.776  -9.583   6.477  1.00  0.00     0.169 HD
BRANCH   8  11
HETATM   11  C   UNL     1      44.483 -10.006   8.212  1.00  0.00     0.240 C 
BRANCH  11  12
HETATM   12  N   UNL     1      43.899  -9.849   9.522  1.00  0.00    -0.259 N 
HETATM   13  C   UNL     1      44.463 -10.346  10.654  1.00  0.00     0.326 A 
HETATM   14  O   UNL     1      45.517 -10.954  10.741  1.00  0.00    -0.247 OA
HETATM   15  N   UNL     1      43.661 -10.023  11.721  1.00  0.00    -0.324 N 
HETATM   16  C   UNL     1      42.558  -9.164  11.344  1.00  0.00     0.116 A 
HETATM   17  H   UNL     1      43.929 -10.275  12.665  1.00  0.00     0.165 HD
HETATM   18  C   UNL     1      42.732  -7.761  11.938  1.00  0.00     0.041 C 
HETATM   19  C   UNL     1      41.203  -9.781  11.683  1.00  0.00     0.041 C 
HETATM   20  C   UNL     1      42.779  -9.128   9.817  1.00  0.00     0.256 A 
HETATM   21  C   UNL     1      42.434  -7.733  13.438  1.00  0.00     0.007 C 
HETATM   22  C   UNL     1      41.066  -8.333  13.792  1.00  0.00    -0.019 C 
HETATM   23  C   UNL     1      39.921  -7.403  13.383  1.00  0.00     0.010 C 
HETATM   24  C   UNL     1      40.906  -9.734  13.184  1.00  0.00     0.007 C 
HETATM   25  O   UNL     1      42.095  -8.500   9.019  1.00  0.00    -0.270 OA
ENDBRANCH  11  12
ENDBRANCH   8  11
ENDBRANCH   4   7
BRANCH   1  26
HETATM   26  C   UNL     1      40.387 -13.759   2.529  1.00  0.00     0.256 C 
HETATM   27  N   UNL     1      40.940 -14.995   2.328  1.00  0.00    -0.323 N 
HETATM   28  H   UNL     1      40.531 -15.403   1.494  1.00  0.00     0.169 HD
HETATM   29  O   UNL     1      39.459 -13.415   1.792  1.00  0.00    -0.267 OA
BRANCH  27  30
HETATM   30  C   UNL     1      41.793 -15.842   3.049  1.00  0.00     0.035 A 
HETATM   31  C   UNL     1      41.791 -16.031   4.427  1.00  0.00     0.032 A 
HETATM   32  C   UNL     1      42.682 -16.945   5.024  1.00  0.00     0.039 A 
HETATM   33  C   UNL     1      43.571 -17.684   4.246  1.00  0.00     0.068 A 
HETATM   34  C   UNL     1      43.556 -17.513   2.865  1.00  0.00     0.039 A 
HETATM   35  C   UNL     1      42.682 -16.600   2.274  1.00  0.00     0.032 A 
BRANCH  33  36
HETATM   36  O   UNL     1      44.476 -18.608   4.680  1.00  0.00    -0.352 OA
BRANCH  36  37
HETATM   37  C   UNL     1      44.015 -19.783   5.342  1.00  0.00     0.171 C 
HETATM   38  C   UNL     1      43.931 -20.945   4.369  1.00  0.00     0.034 C 
ENDBRANCH  36  37
ENDBRANCH  33  36
ENDBRANCH  27  30
ENDBRANCH   1  26
TORSDOF 7
ENDMDL
MODEL 4
REMARK VINA RESULT:      -9.0      2.371      4.201
REMARK  7 active torsions:
REMARK  status: ('A' for Active; 'I' for Inactive)
REMARK    1  A    between atoms: C_2  and  O_3 
REMARK    2  A    between atoms: O_3  and  C_4 
REMARK    3  A    between atoms: C_7  and  N_8 
REMARK       I    between atoms: N_8  and  C_9 
REMARK    4  A    between atoms: C_9  and  C_10 
REMARK    5  A    between atoms: C_13  and  N_14 
REMARK       I    between atoms: N_14  and  C_15 
REMARK    6  A    between atoms: C_15  and  C_16 
REMARK    7  A    between atoms: C_16  and  N_17 
ROOT
HETATM    1  C   UNL     1      41.577 -14.664   5.253  1.00  0.00     0.032 A 
HETATM    2  C   UNL     1      41.223 -13.340   5.525  1.00  0.00     0.019 A 
HETATM    3  C   UNL     1      42.111 -12.508   6.227  1.00  0.00     0.030 A 
HETATM    4  C   UNL     1      43.340 -12.999   6.678  1.00  0.00     0.034 A 
HETATM    5  C   UNL     1      43.696 -14.319   6.371  1.00  0.00     0.030 A 
HETATM    6  C   UNL     1      42.817 -15.151   5.675  1.00  0.00     0.019 A 
ENDROOT
BRANCH   4   7
HETATM    7  N   UNL     1      44.247 -12.281   7.485  1.00  0.00    -0.326 N 
HETATM    8  C   UNL     1      44.987 -11.153   7.149  1.00  0.00     0.240 C 
HETATM    9  O   UNL     1      45.078 -10.653   6.032  1.00  0.00    -0.271 OA
HETATM   10  H   UNL     1      44.251 -12.550   8.462  1.00  0.00     0.169 HD
BRANCH   8  11
HETATM   11  C   UNL     1      45.731 -10.574   8.362  1.00  0.00     0.240 C 
BRANCH  11  12
HETATM   12  N   UNL     1      44.832  -9.799   9.182  1.00  0.00    -0.259 N 
HETATM   13  C   UNL     1      44.656  -8.460   9.036  1.00  0.00     0.326 A 
HETATM   14  O   UNL     1      45.187  -7.738   8.208  1.00  0.00    -0.247 OA
HETATM   15  N   UNL     1      43.738  -8.034   9.964  1.00  0.00    -0.324 N 
HETATM   16  C   UNL     1      43.157  -9.131  10.710  1.00  0.00     0.116 A 
HETATM   17  H   UNL     1      43.442  -7.067   9.994  1.00  0.00     0.165 HD
HETATM   18  C   UNL     1      41.677  -9.310  10.350  1.00  0.00     0.041 C 
HETATM   19  C   UNL     1      43.382  -8.991  12.214  1.00  0.00     0.041 C 
HETATM   20  C   UNL     1      43.990 -10.296  10.135  1.00  0.00     0.256 A 
HETATM   21  C   UNL     1      40.799  -8.225  10.976  1.00  0.00     0.007 C 
HETATM   22  C   UNL     1      41.002  -8.086  12.492  1.00  0.00    -0.019 C 
HETATM   23  C   UNL     1      40.375  -9.258  13.252  1.00  0.00     0.010 C 
HETATM   24  C   UNL     1      42.488  -7.915  12.835  1.00  0.00     0.007 C 
HETATM   25  O   UNL     1      43.863 -11.474  10.442  1.00  0.00    -0.270 OA
ENDBRANCH  11  12
ENDBRANCH   8  11
ENDBRANCH   4   7
BRANCH   1  26
HETATM   26  C   UNL     1      40.603 -15.649   4.759  1.00  0.00     0.256 C 
HETATM   27  N   UNL     1      39.853 -15.512   3.622  1.00  0.00    -0.323 N 
HETATM   28  H   UNL     1      39.175 -16.265   3.586  1.00  0.00     0.169 HD
HETATM   29  O   UNL     1      40.432 -16.660   5.445  1.00  0.00    -0.267 OA
BRANCH  27  30
HETATM   30  C   UNL     1      39.896 -14.695   2.484  1.00  0.00     0.035 A 
HETATM   31  C   UNL     1      39.531 -13.354   2.419  1.00  0.00     0.032 A 
HETATM   32  C   UNL     1      39.659 -12.635   1.215  1.00  0.00     0.039 A 
HETATM   33  C   UNL     1      40.166 -13.248   0.070  1.00  0.00     0.068 A 
HETATM   34  C   UNL     1      40.555 -14.583   0.140  1.00  0.00     0.039 A 
HETATM   35  C   UNL     1      40.419 -15.299   1.330  1.00  0.00     0.032 A 
BRANCH  33  36
HETATM   36  O   UNL     1      40.359 -12.679  -1.155  1.00  0.00    -0.352 OA
BRANCH  36  37
HETATM   37  C   UNL     1      39.253 -12.090  -1.835  1.00  0.00     0.171 C 
HETATM   38  C   UNL     1      38.414 -13.159  -2.512  1.00  0.00     0.034 C 
ENDBRANCH  36  37
ENDBRANCH  33  36
ENDBRANCH  27  30
ENDBRANCH   1  26
TORSDOF 7
ENDMDL
MODEL 5
REMARK VINA RESULT:      -8.4      2.839     10.653
REMARK  7 active torsions:
REMARK  status: ('A' for Active; 'I' for Inactive)
REMARK    1  A    between atoms: C_2  and  O_3 
REMARK    2  A    between atoms: O_3  and  C_4 
REMARK    3  A    between atoms: C_7  and  N_8 
REMARK       I    between atoms: N_8  and  C_9 
REMARK    4  A    between atoms: C_9  and  C_10 
REMARK    5  A    between atoms: C_13  and  N_14 
REMARK       I    between atoms: N_14  and  C_15 
REMARK    6  A    between atoms: C_15  and  C_16 
REMARK    7  A    between atoms: C_16  and  N_17 
ROOT
HETATM    1  C   UNL     1      44.829 -11.660   6.691  1.00  0.00     0.032 A 
HETATM    2  C   UNL     1      43.991 -12.618   7.269  1.00  0.00     0.019 A 
HETATM    3  C   UNL     1      42.922 -13.151   6.528  1.00  0.00     0.030 A 
HETATM    4  C   UNL     1      42.675 -12.716   5.222  1.00  0.00     0.034 A 
HETATM    5  C   UNL     1      43.541 -11.778   4.645  1.00  0.00     0.030 A 
HETATM    6  C   UNL     1      44.603 -11.244   5.376  1.00  0.00     0.019 A 
ENDROOT
BRANCH   4   7
HETATM    7  N   UNL     1      41.566 -13.104   4.441  1.00  0.00    -0.326 N 
HETATM    8  C   UNL     1      41.419 -14.252   3.672  1.00  0.00     0.240 C 
HETATM    9  O   UNL     1      42.293 -15.079   3.432  1.00  0.00    -0.271 OA
HETATM   10  H   UNL     1      40.737 -12.536   4.569  1.00  0.00     0.169 HD
BRANCH   8  11
HETATM   11  C   UNL     1      39.997 -14.384   3.105  1.00  0.00     0.240 C 
BRANCH  11  12
HETATM   12  N   UNL     1      39.983 -14.061   1.699  1.00  0.00    -0.259 N 
HETATM   13  C   UNL     1      39.903 -15.000   0.720  1.00  0.00     0.326 A 
HETATM   14  O   UNL     1      39.809 -16.207   0.868  1.00  0.00    -0.247 OA
HETATM   15  N   UNL     1      39.910 -14.364  -0.498  1.00  0.00    -0.324 N 
HETATM   16  C   UNL     1      39.870 -12.922  -0.369  1.00  0.00     0.116 A 
HETATM   17  H   UNL     1      39.821 -14.891  -1.357  1.00  0.00     0.165 HD
HETATM   18  C   UNL     1      38.530 -12.367  -0.865  1.00  0.00     0.041 C 
HETATM   19  C   UNL     1      41.067 -12.249  -1.037  1.00  0.00     0.041 C 
HETATM   20  C   UNL     1      39.960 -12.804   1.167  1.00  0.00     0.256 A 
HETATM   21  C   UNL     1      38.433 -12.381  -2.392  1.00  0.00     0.007 C 
HETATM   22  C   UNL     1      39.622 -11.691  -3.076  1.00  0.00    -0.019 C 
HETATM   23  C   UNL     1      39.551 -10.169  -2.925  1.00  0.00     0.010 C 
HETATM   24  C   UNL     1      40.955 -12.253  -2.563  1.00  0.00     0.007 C 
HETATM   25  O   UNL     1      39.946 -11.755   1.797  1.00  0.00    -0.270 OA
ENDBRANCH  11  12
ENDBRANCH   8  11
ENDBRANCH   4   7
BRANCH   1  26
HETATM   26  C   UNL     1      45.791 -10.882   7.486  1.00  0.00     0.256 C 
HETATM   27  N   UNL     1      45.471 -10.090   8.555  1.00  0.00    -0.323 N 
HETATM   28  H   UNL     1      46.295  -9.570   8.835  1.00  0.00     0.169 HD
HETATM   29  O   UNL     1      46.974 -10.929   7.136  1.00  0.00    -0.267 OA
BRANCH  27  30
HETATM   30  C   UNL     1      44.360  -9.944   9.398  1.00  0.00     0.035 A 
HETATM   31  C   UNL     1      43.144  -9.358   9.062  1.00  0.00     0.032 A 
HETATM   32  C   UNL     1      42.092  -9.309   9.998  1.00  0.00     0.039 A 
HETATM   33  C   UNL     1      42.244  -9.857  11.270  1.00  0.00     0.068 A 
HETATM   34  C   UNL     1      43.452 -10.465  11.598  1.00  0.00     0.039 A 
HETATM   35  C   UNL     1      44.499 -10.505  10.676  1.00  0.00     0.032 A 
BRANCH  33  36
HETATM   36  O   UNL     1      41.315  -9.895  12.269  1.00  0.00    -0.352 OA
BRANCH  36  37
HETATM   37  C   UNL     1      41.056  -8.718  13.029  1.00  0.00     0.171 C 
HETATM   38  C   UNL     1      41.722  -8.805  14.390  1.00  0.00     0.034 C 
ENDBRANCH  36  37
ENDBRANCH  33  36
ENDBRANCH  27  30
ENDBRANCH   1  26
TORSDOF 7
ENDMDL
MODEL 6
REMARK VINA RESULT:      -8.2      2.001      2.470
REMARK  7 active torsions:
REMARK  status: ('A' for Active; 'I' for Inactive)
REMARK    1  A    between atoms: C_2  and  O_3 
REMARK    2  A    between atoms: O_3  and  C_4 
REMARK    3  A    between atoms: C_7  and  N_8 
REMARK       I    between atoms: N_8  and  C_9 
REMARK    4  A    between atoms: C_9  and  C_10 
REMARK    5  A    between atoms: C_13  and  N_14 
REMARK       I    between atoms: N_14  and  C_15 
REMARK    6  A    between atoms: C_15  and  C_16 
REMARK    7  A    between atoms: C_16  and  N_17 
ROOT
HETATM    1  C   UNL     1      40.836 -11.874   3.517  1.00  0.00     0.032 A 
HETATM    2  C   UNL     1      40.727 -12.871   4.489  1.00  0.00     0.019 A 
HETATM    3  C   UNL     1      41.263 -12.660   5.771  1.00  0.00     0.030 A 
HETATM    4  C   UNL     1      41.926 -11.467   6.077  1.00  0.00     0.034 A 
HETATM    5  C   UNL     1      42.001 -10.463   5.102  1.00  0.00     0.030 A 
HETATM    6  C   UNL     1      41.472 -10.668   3.826  1.00  0.00     0.019 A 
ENDROOT
BRANCH   4   7
HETATM    7  N   UNL     1      42.593 -11.205   7.292  1.00  0.00    -0.326 N 
HETATM    8  C   UNL     1      43.962 -11.185   7.531  1.00  0.00     0.240 C 
HETATM    9  O   UNL     1      44.840 -11.523   6.743  1.00  0.00    -0.271 OA
HETATM   10  H   UNL     1      41.999 -10.865   8.039  1.00  0.00     0.169 HD
BRANCH   8  11
HETATM   11  C   UNL     1      44.289 -10.696   8.950  1.00  0.00     0.240 C 
BRANCH  11  12
HETATM   12  N   UNL     1      43.912  -9.311   9.105  1.00  0.00    -0.259 N 
HETATM   13  C   UNL     1      44.697  -8.276   8.705  1.00  0.00     0.326 A 
HETATM   14  O   UNL     1      45.783  -8.350   8.155  1.00  0.00    -0.247 OA
HETATM   15  N   UNL     1      44.049  -7.099   8.993  1.00  0.00    -0.324 N 
HETATM   16  C   UNL     1      42.710  -7.315   9.499  1.00  0.00     0.116 A 
HETATM   17  H   UNL     1      44.457  -6.209   8.738  1.00  0.00     0.165 HD
HETATM   18  C   UNL     1      41.661  -6.840   8.487  1.00  0.00     0.041 C 
HETATM   19  C   UNL     1      42.509  -6.701  10.884  1.00  0.00     0.041 C 
HETATM   20  C   UNL     1      42.715  -8.856   9.578  1.00  0.00     0.256 A 
HETATM   21  C   UNL     1      41.557  -5.314   8.442  1.00  0.00     0.007 C 
HETATM   22  C   UNL     1      41.337  -4.685   9.825  1.00  0.00    -0.019 C 
HETATM   23  C   UNL     1      39.913  -4.927  10.333  1.00  0.00     0.010 C 
HETATM   24  C   UNL     1      42.391  -5.176  10.827  1.00  0.00     0.007 C 
HETATM   25  O   UNL     1      41.774  -9.549   9.943  1.00  0.00    -0.270 OA
ENDBRANCH  11  12
ENDBRANCH   8  11
ENDBRANCH   4   7
BRANCH   1  26
HETATM   26  C   UNL     1      40.533 -12.128   2.099  1.00  0.00     0.256 C 
HETATM   27  N   UNL     1      40.949 -13.221   1.389  1.00  0.00    -0.323 N 
HETATM   28  H   UNL     1      40.716 -13.084   0.412  1.00  0.00     0.169 HD
HETATM   29  O   UNL     1      39.878 -11.268   1.505  1.00  0.00    -0.267 OA
BRANCH  27  30
HETATM   30  C   UNL     1      41.470 -14.484   1.705  1.00  0.00     0.035 A 
HETATM   31  C   UNL     1      40.734 -15.624   2.010  1.00  0.00     0.032 A 
HETATM   32  C   UNL     1      41.385 -16.845   2.274  1.00  0.00     0.039 A 
HETATM   33  C   UNL     1      42.775 -16.938   2.220  1.00  0.00     0.068 A 
HETATM   34  C   UNL     1      43.510 -15.803   1.891  1.00  0.00     0.039 A 
HETATM   35  C   UNL     1      42.868 -14.590   1.640  1.00  0.00     0.032 A 
BRANCH  33  36
HETATM   36  O   UNL     1      43.538 -18.048   2.437  1.00  0.00    -0.352 OA
BRANCH  36  37
HETATM   37  C   UNL     1      42.932 -19.336   2.376  1.00  0.00     0.171 C 
HETATM   38  C   UNL     1      43.940 -20.378   1.924  1.00  0.00     0.034 C 
ENDBRANCH  36  37
ENDBRANCH  33  36
ENDBRANCH  27  30
ENDBRANCH   1  26
TORSDOF 7
ENDMDL
MODEL 7
REMARK VINA RESULT:      -8.1      2.569      3.711
REMARK  7 active torsions:
REMARK  status: ('A' for Active; 'I' for Inactive)
REMARK    1  A    between atoms: C_2  and  O_3 
REMARK    2  A    between atoms: O_3  and  C_4 
REMARK    3  A    between atoms: C_7  and  N_8 
REMARK       I    between atoms: N_8  and  C_9 
REMARK    4  A    between atoms: C_9  and  C_10 
REMARK    5  A    between atoms: C_13  and  N_14 
REMARK       I    between atoms: N_14  and  C_15 
REMARK    6  A    between atoms: C_15  and  C_16 
REMARK    7  A    between atoms: C_16  and  N_17 
ROOT
HETATM    1  C   UNL     1      40.682 -11.832   1.824  1.00  0.00     0.032 A 
HETATM    2  C   UNL     1      41.682 -11.718   2.793  1.00  0.00     0.019 A 
HETATM    3  C   UNL     1      41.482 -10.888   3.910  1.00  0.00     0.030 A 
HETATM    4  C   UNL     1      40.299 -10.156   4.050  1.00  0.00     0.034 A 
HETATM    5  C   UNL     1      39.292 -10.304   3.086  1.00  0.00     0.030 A 
HETATM    6  C   UNL     1      39.486 -11.125   1.973  1.00  0.00     0.019 A 
ENDROOT
BRANCH   4   7
HETATM    7  N   UNL     1      40.050  -9.214   5.070  1.00  0.00    -0.326 N 
HETATM    8  C   UNL     1      38.952  -9.138   5.918  1.00  0.00     0.240 C 
HETATM    9  O   UNL     1      37.929  -9.811   5.840  1.00  0.00    -0.271 OA
HETATM   10  H   UNL     1      40.832  -8.607   5.287  1.00  0.00     0.169 HD
BRANCH   8  11
HETATM   11  C   UNL     1      39.138  -8.066   7.002  1.00  0.00     0.240 C 
BRANCH  11  12
HETATM   12  N   UNL     1      40.121  -8.492   7.969  1.00  0.00    -0.259 N 
HETATM   13  C   UNL     1      39.821  -9.270   9.043  1.00  0.00     0.326 A 
HETATM   14  O   UNL     1      38.729  -9.729   9.332  1.00  0.00    -0.247 OA
HETATM   15  N   UNL     1      40.973  -9.494   9.756  1.00  0.00    -0.324 N 
HETATM   16  C   UNL     1      42.145  -8.959   9.096  1.00  0.00     0.116 A 
HETATM   17  H   UNL     1      40.966 -10.085  10.578  1.00  0.00     0.165 HD
HETATM   18  C   UNL     1      43.055 -10.089   8.600  1.00  0.00     0.041 C 
HETATM   19  C   UNL     1      42.888  -7.947   9.967  1.00  0.00     0.041 C 
HETATM   20  C   UNL     1      41.464  -8.260   7.901  1.00  0.00     0.256 A 
HETATM   21  C   UNL     1      43.822 -10.753   9.746  1.00  0.00     0.007 C 
HETATM   22  C   UNL     1      44.588  -9.749  10.619  1.00  0.00    -0.019 C 
HETATM   23  C   UNL     1      45.822  -9.202   9.895  1.00  0.00     0.010 C 
HETATM   24  C   UNL     1      43.665  -8.621  11.101  1.00  0.00     0.007 C 
HETATM   25  O   UNL     1      42.047  -7.655   7.010  1.00  0.00    -0.270 OA
ENDBRANCH  11  12
ENDBRANCH   8  11
ENDBRANCH   4   7
BRANCH   1  26
HETATM   26  C   UNL     1      40.927 -12.468   0.520  1.00  0.00     0.256 C 
HETATM   27  N   UNL     1      41.478 -13.708   0.340  1.00  0.00    -0.323 N 
HETATM   28  H   UNL     1      41.654 -13.846  -0.649  1.00  0.00     0.169 HD
HETATM   29  O   UNL     1      40.637 -11.814  -0.486  1.00  0.00    -0.267 OA
BRANCH  27  30
HETATM   30  C   UNL     1      41.714 -14.828   1.150  1.00  0.00     0.035 A 
HETATM   31  C   UNL     1      40.746 -15.630   1.746  1.00  0.00     0.032 A 
HETATM   32  C   UNL     1      41.120 -16.753   2.509  1.00  0.00     0.039 A 
HETATM   33  C   UNL     1      42.463 -17.091   2.669  1.00  0.00     0.068 A 
HETATM   34  C   UNL     1      43.431 -16.303   2.052  1.00  0.00     0.039 A 
HETATM   35  C   UNL     1      43.062 -15.183   1.305  1.00  0.00     0.032 A 
BRANCH  33  36
HETATM   36  O   UNL     1      42.972 -18.149   3.364  1.00  0.00    -0.352 OA
BRANCH  36  37
HETATM   37  C   UNL     1      44.013 -18.931   2.785  1.00  0.00     0.171 C 
HETATM   38  C   UNL     1      43.504 -20.315   2.425  1.00  0.00     0.034 C 
ENDBRANCH  36  37
ENDBRANCH  33  36
ENDBRANCH  27  30
ENDBRANCH   1  26
TORSDOF 7
ENDMDL
MODEL 8
REMARK VINA RESULT:      -8.1      3.255      6.382
REMARK  7 active torsions:
REMARK  status: ('A' for Active; 'I' for Inactive)
REMARK    1  A    between atoms: C_2  and  O_3 
REMARK    2  A    between atoms: O_3  and  C_4 
REMARK    3  A    between atoms: C_7  and  N_8 
REMARK       I    between atoms: N_8  and  C_9 
REMARK    4  A    between atoms: C_9  and  C_10 
REMARK    5  A    between atoms: C_13  and  N_14 
REMARK       I    between atoms: N_14  and  C_15 
REMARK    6  A    between atoms: C_15  and  C_16 
REMARK    7  A    between atoms: C_16  and  N_17 
ROOT
HETATM    1  C   UNL     1      44.798  -9.516   8.746  1.00  0.00     0.032 A 
HETATM    2  C   UNL     1      44.896  -9.592  10.137  1.00  0.00     0.019 A 
HETATM    3  C   UNL     1      43.949  -8.937  10.943  1.00  0.00     0.030 A 
HETATM    4  C   UNL     1      42.917  -8.191  10.364  1.00  0.00     0.034 A 
HETATM    5  C   UNL     1      42.812  -8.149   8.967  1.00  0.00     0.030 A 
HETATM    6  C   UNL     1      43.752  -8.795   8.162  1.00  0.00     0.019 A 
ENDROOT
BRANCH   4   7
HETATM    7  N   UNL     1      41.988  -7.409  11.082  1.00  0.00    -0.326 N 
HETATM    8  C   UNL     1      41.924  -6.024  11.175  1.00  0.00     0.240 C 
HETATM    9  O   UNL     1      42.756  -5.230  10.745  1.00  0.00    -0.271 OA
HETATM   10  H   UNL     1      41.203  -7.924  11.462  1.00  0.00     0.169 HD
BRANCH   8  11
HETATM   11  C   UNL     1      40.664  -5.557  11.919  1.00  0.00     0.240 C 
BRANCH  11  12
HETATM   12  N   UNL     1      40.867  -5.624  13.346  1.00  0.00    -0.259 N 
HETATM   13  C   UNL     1      41.393  -4.602  14.073  1.00  0.00     0.326 A 
HETATM   14  O   UNL     1      41.735  -3.508  13.656  1.00  0.00    -0.247 OA
HETATM   15  N   UNL     1      41.450  -4.986  15.390  1.00  0.00    -0.324 N 
HETATM   16  C   UNL     1      40.831  -6.275  15.618  1.00  0.00     0.116 A 
HETATM   17  H   UNL     1      41.780  -4.346  16.101  1.00  0.00     0.165 HD
HETATM   18  C   UNL     1      39.544  -6.125  16.437  1.00  0.00     0.041 C 
HETATM   19  C   UNL     1      41.802  -7.282  16.231  1.00  0.00     0.041 C 
HETATM   20  C   UNL     1      40.494  -6.654  14.160  1.00  0.00     0.256 A 
HETATM   21  C   UNL     1      39.832  -5.838  17.912  1.00  0.00     0.007 C 
HETATM   22  C   UNL     1      40.793  -6.854  18.546  1.00  0.00    -0.019 C 
HETATM   23  C   UNL     1      40.111  -8.205  18.776  1.00  0.00     0.010 C 
HETATM   24  C   UNL     1      42.073  -6.997  17.710  1.00  0.00     0.007 C 
HETATM   25  O   UNL     1      39.927  -7.680  13.810  1.00  0.00    -0.270 OA
ENDBRANCH  11  12
ENDBRANCH   8  11
ENDBRANCH   4   7
BRANCH   1  26
HETATM   26  C   UNL     1      45.888  -9.952   7.860  1.00  0.00     0.256 C 
HETATM   27  N   UNL     1      45.827 -11.016   7.001  1.00  0.00    -0.323 N 
HETATM   28  H   UNL     1      46.749 -11.174   6.611  1.00  0.00     0.169 HD
HETATM   29  O   UNL     1      46.947  -9.322   7.924  1.00  0.00    -0.267 OA
BRANCH  27  30
HETATM   30  C   UNL     1      44.806 -11.808   6.457  1.00  0.00     0.035 A 
HETATM   31  C   UNL     1      44.029 -12.735   7.145  1.00  0.00     0.032 A 
HETATM   32  C   UNL     1      43.006 -13.442   6.483  1.00  0.00     0.039 A 
HETATM   33  C   UNL     1      42.745 -13.217   5.132  1.00  0.00     0.068 A 
HETATM   34  C   UNL     1      43.506 -12.273   4.450  1.00  0.00     0.039 A 
HETATM   35  C   UNL     1      44.526 -11.580   5.102  1.00  0.00     0.032 A 
BRANCH  33  36
HETATM   36  O   UNL     1      41.785 -13.813   4.367  1.00  0.00    -0.352 OA
BRANCH  36  37
HETATM   37  C   UNL     1      40.896 -14.752   4.965  1.00  0.00     0.171 C 
HETATM   38  C   UNL     1      40.949 -16.079   4.231  1.00  0.00     0.034 C 
ENDBRANCH  36  37
ENDBRANCH  33  36
ENDBRANCH  27  30
ENDBRANCH   1  26
TORSDOF 7
ENDMDL
MODEL 9
REMARK VINA RESULT:      -8.1      2.497      4.583
REMARK  7 active torsions:
REMARK  status: ('A' for Active; 'I' for Inactive)
REMARK    1  A    between atoms: C_2  and  O_3 
REMARK    2  A    between atoms: O_3  and  C_4 
REMARK    3  A    between atoms: C_7  and  N_8 
REMARK       I    between atoms: N_8  and  C_9 
REMARK    4  A    between atoms: C_9  and  C_10 
REMARK    5  A    between atoms: C_13  and  N_14 
REMARK       I    between atoms: N_14  and  C_15 
REMARK    6  A    between atoms: C_15  and  C_16 
REMARK    7  A    between atoms: C_16  and  N_17 
ROOT
HETATM    1  C   UNL     1      41.308 -14.036   4.693  1.00  0.00     0.032 A 
HETATM    2  C   UNL     1      40.535 -13.120   5.411  1.00  0.00     0.019 A 
HETATM    3  C   UNL     1      41.162 -12.085   6.126  1.00  0.00     0.030 A 
HETATM    4  C   UNL     1      42.556 -11.975   6.144  1.00  0.00     0.034 A 
HETATM    5  C   UNL     1      43.317 -12.881   5.394  1.00  0.00     0.030 A 
HETATM    6  C   UNL     1      42.700 -13.913   4.683  1.00  0.00     0.019 A 
ENDROOT
BRANCH   4   7
HETATM    7  N   UNL     1      43.281 -11.045   6.919  1.00  0.00    -0.326 N 
HETATM    8  C   UNL     1      42.940  -9.733   7.224  1.00  0.00     0.240 C 
HETATM    9  O   UNL     1      41.996  -9.103   6.758  1.00  0.00    -0.271 OA
HETATM   10  H   UNL     1      44.075 -11.433   7.414  1.00  0.00     0.169 HD
BRANCH   8  11
HETATM   11  C   UNL     1      43.915  -9.107   8.233  1.00  0.00     0.240 C 
BRANCH  11  12
HETATM   12  N   UNL     1      43.411  -9.252   9.577  1.00  0.00    -0.259 N 
HETATM   13  C   UNL     1      43.862 -10.196  10.444  1.00  0.00     0.326 A 
HETATM   14  O   UNL     1      44.742 -11.016  10.241  1.00  0.00    -0.247 OA
HETATM   15  N   UNL     1      43.181 -10.063  11.630  1.00  0.00    -0.324 N 
HETATM   16  C   UNL     1      42.308  -8.908  11.639  1.00  0.00     0.116 A 
HETATM   17  H   UNL     1      43.399 -10.655  12.421  1.00  0.00     0.165 HD
HETATM   18  C   UNL     1      42.823  -7.843  12.614  1.00  0.00     0.041 C 
HETATM   19  C   UNL     1      40.851  -9.286  11.900  1.00  0.00     0.041 C 
HETATM   20  C   UNL     1      42.501  -8.435  10.183  1.00  0.00     0.256 A 
HETATM   21  C   UNL     1      42.570  -8.230  14.073  1.00  0.00     0.007 C 
HETATM   22  C   UNL     1      41.105  -8.596  14.353  1.00  0.00    -0.019 C 
HETATM   23  C   UNL     1      40.208  -7.355  14.358  1.00  0.00     0.010 C 
HETATM   24  C   UNL     1      40.604  -9.657  13.364  1.00  0.00     0.007 C 
HETATM   25  O   UNL     1      41.971  -7.451   9.684  1.00  0.00    -0.270 OA
ENDBRANCH  11  12
ENDBRANCH   8  11
ENDBRANCH   4   7
BRANCH   1  26
HETATM   26  C   UNL     1      40.741 -15.278   4.145  1.00  0.00     0.256 C 
HETATM   27  N   UNL     1      40.101 -15.386   2.940  1.00  0.00    -0.323 N 
HETATM   28  H   UNL     1      39.697 -16.314   2.868  1.00  0.00     0.169 HD
HETATM   29  O   UNL     1      40.826 -16.289   4.847  1.00  0.00    -0.267 OA
BRANCH  27  30
HETATM   30  C   UNL     1      39.999 -14.601   1.784  1.00  0.00     0.035 A 
HETATM   31  C   UNL     1      40.063 -13.212   1.724  1.00  0.00     0.032 A 
HETATM   32  C   UNL     1      39.984 -12.546   0.486  1.00  0.00     0.039 A 
HETATM   33  C   UNL     1      39.855 -13.263  -0.702  1.00  0.00     0.068 A 
HETATM   34  C   UNL     1      39.816 -14.653  -0.645  1.00  0.00     0.039 A 
HETATM   35  C   UNL     1      39.884 -15.314   0.582  1.00  0.00     0.032 A 
BRANCH  33  36
HETATM   36  O   UNL     1      39.780 -12.758  -1.968  1.00  0.00    -0.352 OA
BRANCH  36  37
HETATM   37  C   UNL     1      40.938 -12.173  -2.557  1.00  0.00     0.171 C 
HETATM   38  C   UNL     1      40.676 -10.723  -2.920  1.00  0.00     0.034 C 
ENDBRANCH  36  37
ENDBRANCH  33  36
ENDBRANCH  27  30
ENDBRANCH   1  26
TORSDOF 7
ENDMDL
MODEL 10
REMARK VINA RESULT:      -8.1      4.507     10.746
REMARK  7 active torsions:
REMARK  status: ('A' for Active; 'I' for Inactive)
REMARK    1  A    between atoms: C_2  and  O_3 
REMARK    2  A    between atoms: O_3  and  C_4 
REMARK    3  A    between atoms: C_7  and  N_8 
REMARK       I    between atoms: N_8  and  C_9 
REMARK    4  A    between atoms: C_9  and  C_10 
REMARK    5  A    between atoms: C_13  and  N_14 
REMARK       I    between atoms: N_14  and  C_15 
REMARK    6  A    between atoms: C_15  and  C_16 
REMARK    7  A    between atoms: C_16  and  N_17 
ROOT
HETATM    1  C   UNL     1      42.116 -16.284   3.368  1.00  0.00     0.032 A 
HETATM    2  C   UNL     1      40.727 -16.264   3.519  1.00  0.00     0.019 A 
HETATM    3  C   UNL     1      39.917 -15.773   2.480  1.00  0.00     0.030 A 
HETATM    4  C   UNL     1      40.491 -15.283   1.303  1.00  0.00     0.034 A 
HETATM    5  C   UNL     1      41.883 -15.337   1.153  1.00  0.00     0.030 A 
HETATM    6  C   UNL     1      42.692 -15.822   2.182  1.00  0.00     0.019 A 
ENDROOT
BRANCH   4   7
HETATM    7  N   UNL     1      39.775 -14.667   0.254  1.00  0.00    -0.326 N 
HETATM    8  C   UNL     1      39.588 -13.309   0.025  1.00  0.00     0.240 C 
HETATM    9  O   UNL     1      39.910 -12.397   0.780  1.00  0.00    -0.271 OA
HETATM   10  H   UNL     1      39.479 -15.295  -0.484  1.00  0.00     0.169 HD
BRANCH   8  11
HETATM   11  C   UNL     1      38.888 -13.046  -1.317  1.00  0.00     0.240 C 
BRANCH  11  12
HETATM   12  N   UNL     1      39.581 -12.015  -2.052  1.00  0.00    -0.259 N 
HETATM   13  C   UNL     1      40.568 -12.276  -2.950  1.00  0.00     0.326 A 
HETATM   14  O   UNL     1      40.987 -13.373  -3.279  1.00  0.00    -0.247 OA
HETATM   15  N   UNL     1      41.012 -11.085  -3.470  1.00  0.00    -0.324 N 
HETATM   16  C   UNL     1      40.228  -9.956  -3.014  1.00  0.00     0.116 A 
HETATM   17  H   UNL     1      41.726 -11.068  -4.187  1.00  0.00     0.165 HD
HETATM   18  C   UNL     1      39.411  -9.358  -4.166  1.00  0.00     0.041 C 
HETATM   19  C   UNL     1      41.081  -8.911  -2.297  1.00  0.00     0.041 C 
HETATM   20  C   UNL     1      39.297 -10.681  -2.020  1.00  0.00     0.256 A 
HETATM   21  C   UNL     1      40.284  -8.552  -5.130  1.00  0.00     0.007 C 
HETATM   22  C   UNL     1      41.134  -7.486  -4.424  1.00  0.00    -0.019 C 
HETATM   23  C   UNL     1      40.279  -6.305  -3.956  1.00  0.00     0.010 C 
HETATM   24  C   UNL     1      41.939  -8.099  -3.270  1.00  0.00     0.007 C 
HETATM   25  O   UNL     1      38.410 -10.148  -1.366  1.00  0.00    -0.270 OA
ENDBRANCH  11  12
ENDBRANCH   8  11
ENDBRANCH   4   7
BRANCH   1  26
HETATM   26  C   UNL     1      43.021 -16.537   4.500  1.00  0.00     0.256 C 
HETATM   27  N   UNL     1      43.552 -15.573   5.314  1.00  0.00    -0.323 N 
HETATM   28  H   UNL     1      44.239 -16.003   5.924  1.00  0.00     0.169 HD
HETATM   29  O   UNL     1      43.346 -17.710   4.705  1.00  0.00    -0.267 OA
BRANCH  27  30
HETATM   30  C   UNL     1      43.278 -14.225   5.583  1.00  0.00     0.035 A 
HETATM   31  C   UNL     1      42.383 -13.414   4.893  1.00  0.00     0.032 A 
HETATM   32  C   UNL     1      42.174 -12.079   5.292  1.00  0.00     0.039 A 
HETATM   33  C   UNL     1      42.849 -11.550   6.391  1.00  0.00     0.068 A 
HETATM   34  C   UNL     1      43.727 -12.369   7.096  1.00  0.00     0.039 A 
HETATM   35  C   UNL     1      43.942 -13.688   6.695  1.00  0.00     0.032 A 
BRANCH  33  36
HETATM   36  O   UNL     1      42.739 -10.288   6.898  1.00  0.00    -0.352 OA
BRANCH  36  37
HETATM   37  C   UNL     1      43.621  -9.872   7.937  1.00  0.00     0.171 C 
HETATM   38  C   UNL     1      43.477  -8.384   8.194  1.00  0.00     0.034 C 
ENDBRANCH  36  37
ENDBRANCH  33  36
ENDBRANCH  27  30
ENDBRANCH   1  26
TORSDOF 7
ENDMDL
