MODEL 1
REMARK VINA RESULT:      -8.6      0.000      0.000
REMARK  4 active torsions:
REMARK  status: ('A' for Active; 'I' for Inactive)
REMARK    1  A    between atoms: C_9  and  C_10 
REMARK    2  A    between atoms: C_13  and  O_14 
REMARK    3  A    between atoms: C_18  and  C_19 
REMARK       I    between atoms: C_19  and  N_20 
REMARK    4  A    between atoms: N_20  and  C_21 
ROOT
HETATM    1  C   UNL     1      39.935 -15.592   0.759  1.00  0.00     0.070 C 
HETATM    2  C   UNL     1      39.942 -14.373   1.646  1.00  0.00     0.037 C 
HETATM    3  N   UNL     1      39.428 -13.213   1.073  1.00  0.00    -0.192 N 
HETATM    4  C   UNL     1      39.118 -12.116   1.794  1.00  0.00     0.725 A 
HETATM    5  N   UNL     1      39.463 -12.060   3.117  1.00  0.00    -0.084 N 
HETATM    6  N   UNL     1      38.995 -10.936   3.698  1.00  0.00    -0.149 NA
HETATM    7  C   UNL     1      38.419 -10.339   2.649  1.00  0.00     0.275 A 
HETATM    8  N   UNL     1      38.474 -11.026   1.463  1.00  0.00    -0.054 NA
HETATM    9  C   UNL     1      40.204 -13.117   3.817  1.00  0.00     0.202 C 
HETATM   10  C   UNL     1      40.339 -14.361   2.944  1.00  0.00     0.062 C 
HETATM   11  H   UNL     1      39.053 -13.280   0.130  1.00  0.00     0.184 HD
ENDROOT
BRANCH  10  12
HETATM   12  C   UNL     1      40.823 -15.559   3.678  1.00  0.00     0.256 C 
HETATM   13  N   UNL     1      42.089 -15.958   3.305  1.00  0.00    -0.323 N 
HETATM   14  H   UNL     1      42.562 -15.390   2.614  1.00  0.00     0.169 HD
HETATM   15  O   UNL     1      40.108 -16.047   4.543  1.00  0.00    -0.267 OA
BRANCH  13  16
HETATM   16  C   UNL     1      42.795 -17.088   3.763  1.00  0.00     0.035 A 
HETATM   17  C   UNL     1      43.141 -17.304   5.100  1.00  0.00     0.031 A 
HETATM   18  C   UNL     1      43.826 -18.465   5.479  1.00  0.00     0.026 A 
HETATM   19  C   UNL     1      44.165 -19.416   4.521  1.00  0.00     0.034 A 
HETATM   20 CL   UNL     1      44.997 -20.847   4.989  1.00  0.00    -0.084 Cl
HETATM   21  C   UNL     1      43.830 -19.215   3.186  1.00  0.00     0.026 A 
HETATM   22  C   UNL     1      43.151 -18.051   2.809  1.00  0.00     0.031 A 
ENDBRANCH  13  16
ENDBRANCH  10  12
BRANCH   9  23
HETATM   23  C   UNL     1      41.561 -12.595   4.283  1.00  0.00    -0.028 A 
HETATM   24  C   UNL     1      42.492 -12.141   3.338  1.00  0.00     0.012 A 
HETATM   25  C   UNL     1      43.742 -11.667   3.743  1.00  0.00     0.037 A 
HETATM   26  C   UNL     1      44.090 -11.634   5.095  1.00  0.00     0.068 A 
HETATM   27  C   UNL     1      43.163 -12.060   6.045  1.00  0.00     0.037 A 
HETATM   28  C   UNL     1      41.908 -12.532   5.644  1.00  0.00     0.012 A 
BRANCH  26  29
HETATM   29  O   UNL     1      45.347 -11.164   5.353  1.00  0.00    -0.356 OA
HETATM   30  C   UNL     1      45.776 -11.189   6.708  1.00  0.00     0.210 C 
ENDBRANCH  26  29
ENDBRANCH   9  23
TORSDOF 4
ENDMDL
MODEL 2
REMARK VINA RESULT:      -7.8      3.782      6.543
REMARK  4 active torsions:
REMARK  status: ('A' for Active; 'I' for Inactive)
REMARK    1  A    between atoms: C_9  and  C_10 
REMARK    2  A    between atoms: C_13  and  O_14 
REMARK    3  A    between atoms: C_18  and  C_19 
REMARK       I    between atoms: C_19  and  N_20 
REMARK    4  A    between atoms: N_20  and  C_21 
ROOT
HETATM    1  C   UNL     1      41.675  -9.803   1.342  1.00  0.00     0.070 C 
HETATM    2  C   UNL     1      41.843 -10.872   2.392  1.00  0.00     0.037 C 
HETATM    3  N   UNL     1      42.718 -10.562   3.429  1.00  0.00    -0.192 N 
HETATM    4  C   UNL     1      42.786 -11.277   4.569  1.00  0.00     0.725 A 
HETATM    5  N   UNL     1      42.092 -12.453   4.668  1.00  0.00    -0.084 N 
HETATM    6  N   UNL     1      42.201 -12.984   5.904  1.00  0.00    -0.149 NA
HETATM    7  C   UNL     1      43.018 -12.096   6.481  1.00  0.00     0.275 A 
HETATM    8  N   UNL     1      43.401 -11.037   5.698  1.00  0.00    -0.054 NA
HETATM    9  C   UNL     1      41.293 -13.028   3.579  1.00  0.00     0.202 C 
HETATM   10  C   UNL     1      41.161 -12.046   2.419  1.00  0.00     0.062 C 
HETATM   11  H   UNL     1      43.141  -9.637   3.426  1.00  0.00     0.184 HD
ENDROOT
BRANCH  10  12
HETATM   12  C   UNL     1      40.143 -12.441   1.411  1.00  0.00     0.256 C 
HETATM   13  N   UNL     1      40.686 -12.962   0.256  1.00  0.00    -0.323 N 
HETATM   14  H   UNL     1      41.693 -13.055   0.226  1.00  0.00     0.169 HD
HETATM   15  O   UNL     1      38.959 -12.314   1.691  1.00  0.00    -0.267 OA
BRANCH  13  16
HETATM   16  C   UNL     1      39.995 -13.365  -0.904  1.00  0.00     0.035 A 
HETATM   17  C   UNL     1      39.718 -12.518  -1.982  1.00  0.00     0.031 A 
HETATM   18  C   UNL     1      39.044 -13.001  -3.110  1.00  0.00     0.026 A 
HETATM   19  C   UNL     1      38.647 -14.334  -3.166  1.00  0.00     0.034 A 
HETATM   20 CL   UNL     1      37.829 -14.928  -4.557  1.00  0.00    -0.084 Cl
HETATM   21  C   UNL     1      38.914 -15.188  -2.101  1.00  0.00     0.026 A 
HETATM   22  C   UNL     1      39.582 -14.703  -0.972  1.00  0.00     0.031 A 
ENDBRANCH  13  16
ENDBRANCH  10  12
BRANCH   9  23
HETATM   23  C   UNL     1      41.885 -14.363   3.133  1.00  0.00    -0.028 A 
HETATM   24  C   UNL     1      41.264 -15.561   3.513  1.00  0.00     0.012 A 
HETATM   25  C   UNL     1      41.795 -16.792   3.121  1.00  0.00     0.037 A 
HETATM   26  C   UNL     1      42.953 -16.856   2.345  1.00  0.00     0.068 A 
HETATM   27  C   UNL     1      43.566 -15.671   1.941  1.00  0.00     0.037 A 
HETATM   28  C   UNL     1      43.036 -14.435   2.327  1.00  0.00     0.012 A 
BRANCH  26  29
HETATM   29  O   UNL     1      43.375 -18.122   2.046  1.00  0.00    -0.356 OA
HETATM   30  C   UNL     1      43.860 -18.908   3.126  1.00  0.00     0.210 C 
ENDBRANCH  26  29
ENDBRANCH   9  23
TORSDOF 4
ENDMDL
MODEL 3
REMARK VINA RESULT:      -7.7      2.879      5.887
REMARK  4 active torsions:
REMARK  status: ('A' for Active; 'I' for Inactive)
REMARK    1  A    between atoms: C_9  and  C_10 
REMARK    2  A    between atoms: C_13  and  O_14 
REMARK    3  A    between atoms: C_18  and  C_19 
REMARK       I    between atoms: C_19  and  N_20 
REMARK    4  A    between atoms: N_20  and  C_21 
ROOT
HETATM    1  C   UNL     1      39.363 -10.456   3.213  1.00  0.00     0.070 C 
HETATM    2  C   UNL     1      39.818 -11.545   2.275  1.00  0.00     0.037 C 
HETATM    3  N   UNL     1      38.885 -11.944   1.322  1.00  0.00    -0.192 N 
HETATM    4  C   UNL     1      39.207 -12.702   0.255  1.00  0.00     0.725 A 
HETATM    5  N   UNL     1      40.459 -13.249   0.171  1.00  0.00    -0.084 N 
HETATM    6  N   UNL     1      40.632 -13.897  -1.000  1.00  0.00    -0.149 NA
HETATM    7  C   UNL     1      39.423 -13.740  -1.549  1.00  0.00     0.275 A 
HETATM    8  N   UNL     1      38.520 -13.016  -0.813  1.00  0.00    -0.054 NA
HETATM    9  C   UNL     1      41.490 -13.100   1.205  1.00  0.00     0.202 C 
HETATM   10  C   UNL     1      41.062 -12.088   2.263  1.00  0.00     0.062 C 
HETATM   11  H   UNL     1      37.996 -11.451   1.300  1.00  0.00     0.184 HD
ENDROOT
BRANCH  10  12
HETATM   12  C   UNL     1      42.159 -11.677   3.179  1.00  0.00     0.256 C 
HETATM   13  N   UNL     1      41.921 -11.997   4.499  1.00  0.00    -0.323 N 
HETATM   14  H   UNL     1      41.065 -12.498   4.701  1.00  0.00     0.169 HD
HETATM   15  O   UNL     1      43.155 -11.149   2.704  1.00  0.00    -0.267 OA
BRANCH  13  16
HETATM   16  C   UNL     1      42.731 -11.686   5.609  1.00  0.00     0.035 A 
HETATM   17  C   UNL     1      43.874 -12.406   5.970  1.00  0.00     0.031 A 
HETATM   18  C   UNL     1      44.638 -12.018   7.077  1.00  0.00     0.026 A 
HETATM   19  C   UNL     1      44.264 -10.907   7.826  1.00  0.00     0.034 A 
HETATM   20 CL   UNL     1      45.209 -10.425   9.180  1.00  0.00    -0.084 Cl
HETATM   21  C   UNL     1      43.129 -10.181   7.481  1.00  0.00     0.026 A 
HETATM   22  C   UNL     1      42.362 -10.573   6.378  1.00  0.00     0.031 A 
ENDBRANCH  13  16
ENDBRANCH  10  12
BRANCH   9  23
HETATM   23  C   UNL     1      41.828 -14.458   1.817  1.00  0.00    -0.028 A 
HETATM   24  C   UNL     1      43.086 -15.031   1.584  1.00  0.00     0.012 A 
HETATM   25  C   UNL     1      43.412 -16.276   2.129  1.00  0.00     0.037 A 
HETATM   26  C   UNL     1      42.493 -16.974   2.915  1.00  0.00     0.068 A 
HETATM   27  C   UNL     1      41.248 -16.403   3.172  1.00  0.00     0.037 A 
HETATM   28  C   UNL     1      40.919 -15.155   2.633  1.00  0.00     0.012 A 
BRANCH  26  29
HETATM   29  O   UNL     1      42.932 -18.185   3.371  1.00  0.00    -0.356 OA
HETATM   30  C   UNL     1      43.532 -19.051   2.417  1.00  0.00     0.210 C 
ENDBRANCH  26  29
ENDBRANCH   9  23
TORSDOF 4
ENDMDL
MODEL 4
REMARK VINA RESULT:      -7.6      2.562      4.468
REMARK  4 active torsions:
REMARK  status: ('A' for Active; 'I' for Inactive)
REMARK    1  A    between atoms: C_9  and  C_10 
REMARK    2  A    between atoms: C_13  and  O_14 
REMARK    3  A    between atoms: C_18  and  C_19 
REMARK       I    between atoms: C_19  and  N_20 
REMARK    4  A    between atoms: N_20  and  C_21 
ROOT
HETATM    1  C   UNL     1      40.010 -14.754   6.823  1.00  0.00     0.070 C 
HETATM    2  C   UNL     1      40.478 -13.693   5.859  1.00  0.00     0.037 C 
HETATM    3  N   UNL     1      40.419 -12.385   6.334  1.00  0.00    -0.192 N 
HETATM    4  C   UNL     1      41.033 -11.355   5.718  1.00  0.00     0.725 A 
HETATM    5  N   UNL     1      41.606 -11.550   4.490  1.00  0.00    -0.084 N 
HETATM    6  N   UNL     1      42.250 -10.441   4.069  1.00  0.00    -0.149 NA
HETATM    7  C   UNL     1      41.979  -9.603   5.075  1.00  0.00     0.275 A 
HETATM    8  N   UNL     1      41.235 -10.121   6.104  1.00  0.00    -0.054 NA
HETATM    9  C   UNL     1      41.563 -12.820   3.757  1.00  0.00     0.202 C 
HETATM   10  C   UNL     1      40.997 -13.937   4.630  1.00  0.00     0.062 C 
HETATM   11  H   UNL     1      40.112 -12.247   7.293  1.00  0.00     0.184 HD
ENDROOT
BRANCH  10  12
HETATM   12  C   UNL     1      41.184 -15.297   4.059  1.00  0.00     0.256 C 
HETATM   13  N   UNL     1      42.419 -15.843   4.333  1.00  0.00    -0.323 N 
HETATM   14  H   UNL     1      43.044 -15.294   4.910  1.00  0.00     0.169 HD
HETATM   15  O   UNL     1      40.254 -15.813   3.454  1.00  0.00    -0.267 OA
BRANCH  13  16
HETATM   16  C   UNL     1      42.924 -17.079   3.881  1.00  0.00     0.035 A 
HETATM   17  C   UNL     1      43.706 -17.936   4.660  1.00  0.00     0.031 A 
HETATM   18  C   UNL     1      44.151 -19.159   4.143  1.00  0.00     0.026 A 
HETATM   19  C   UNL     1      43.811 -19.531   2.846  1.00  0.00     0.034 A 
HETATM   20 CL   UNL     1      44.349 -21.038   2.216  1.00  0.00    -0.084 Cl
HETATM   21  C   UNL     1      43.035 -18.689   2.058  1.00  0.00     0.026 A 
HETATM   22  C   UNL     1      42.596 -17.464   2.573  1.00  0.00     0.031 A 
ENDBRANCH  13  16
ENDBRANCH  10  12
BRANCH   9  23
HETATM   23  C   UNL     1      40.778 -12.657   2.457  1.00  0.00    -0.028 A 
HETATM   24  C   UNL     1      41.373 -13.008   1.237  1.00  0.00     0.012 A 
HETATM   25  C   UNL     1      40.674 -12.859   0.037  1.00  0.00     0.037 A 
HETATM   26  C   UNL     1      39.370 -12.360   0.027  1.00  0.00     0.068 A 
HETATM   27  C   UNL     1      38.760 -12.030   1.236  1.00  0.00     0.037 A 
HETATM   28  C   UNL     1      39.454 -12.182   2.441  1.00  0.00     0.012 A 
BRANCH  26  29
HETATM   29  O   UNL     1      38.808 -12.249  -1.214  1.00  0.00    -0.356 OA
HETATM   30  C   UNL     1      38.437 -13.459  -1.861  1.00  0.00     0.210 C 
ENDBRANCH  26  29
ENDBRANCH   9  23
TORSDOF 4
ENDMDL
MODEL 5
REMARK VINA RESULT:      -7.4      2.977      5.407
REMARK  4 active torsions:
REMARK  status: ('A' for Active; 'I' for Inactive)
REMARK    1  A    between atoms: C_9  and  C_10 
REMARK    2  A    between atoms: C_13  and  O_14 
REMARK    3  A    between atoms: C_18  and  C_19 
REMARK       I    between atoms: C_19  and  N_20 
REMARK    4  A    between atoms: N_20  and  C_21 
ROOT
HETATM    1  C   UNL     1      39.120 -12.075   4.638  1.00  0.00     0.070 C 
HETATM    2  C   UNL     1      39.225 -11.374   3.307  1.00  0.00     0.037 C 
HETATM    3  N   UNL     1      38.268 -10.389   3.072  1.00  0.00    -0.192 N 
HETATM    4  C   UNL     1      38.369  -9.496   2.068  1.00  0.00     0.725 A 
HETATM    5  N   UNL     1      39.357  -9.643   1.133  1.00  0.00    -0.084 N 
HETATM    6  N   UNL     1      39.364  -8.613   0.261  1.00  0.00    -0.149 NA
HETATM    7  C   UNL     1      38.318  -7.908   0.706  1.00  0.00     0.275 A 
HETATM    8  N   UNL     1      37.679  -8.415   1.809  1.00  0.00    -0.054 NA
HETATM    9  C   UNL     1      40.314 -10.756   1.118  1.00  0.00     0.202 C 
HETATM   10  C   UNL     1      40.202 -11.590   2.391  1.00  0.00     0.062 C 
HETATM   11  H   UNL     1      37.607 -10.189   3.819  1.00  0.00     0.184 HD
ENDROOT
BRANCH  10  12
HETATM   12  C   UNL     1      41.318 -12.554   2.576  1.00  0.00     0.256 C 
HETATM   13  N   UNL     1      40.922 -13.873   2.505  1.00  0.00    -0.323 N 
HETATM   14  H   UNL     1      39.946 -14.047   2.304  1.00  0.00     0.169 HD
HETATM   15  O   UNL     1      42.451 -12.120   2.730  1.00  0.00    -0.267 OA
BRANCH  13  16
HETATM   16  C   UNL     1      41.724 -15.015   2.704  1.00  0.00     0.035 A 
HETATM   17  C   UNL     1      41.809 -15.710   3.914  1.00  0.00     0.031 A 
HETATM   18  C   UNL     1      42.614 -16.850   4.024  1.00  0.00     0.026 A 
HETATM   19  C   UNL     1      43.334 -17.302   2.923  1.00  0.00     0.034 A 
HETATM   20 CL   UNL     1      44.314 -18.709   3.056  1.00  0.00    -0.084 Cl
HETATM   21  C   UNL     1      43.262 -16.621   1.712  1.00  0.00     0.026 A 
HETATM   22  C   UNL     1      42.462 -15.478   1.605  1.00  0.00     0.031 A 
ENDBRANCH  13  16
ENDBRANCH  10  12
BRANCH   9  23
HETATM   23  C   UNL     1      40.126 -11.603  -0.138  1.00  0.00    -0.028 A 
HETATM   24  C   UNL     1      38.984 -12.406  -0.270  1.00  0.00     0.012 A 
HETATM   25  C   UNL     1      38.797 -13.193  -1.409  1.00  0.00     0.037 A 
HETATM   26  C   UNL     1      39.741 -13.197  -2.438  1.00  0.00     0.068 A 
HETATM   27  C   UNL     1      40.868 -12.385  -2.328  1.00  0.00     0.037 A 
HETATM   28  C   UNL     1      41.058 -11.590  -1.192  1.00  0.00     0.012 A 
BRANCH  26  29
HETATM   29  O   UNL     1      39.444 -14.023  -3.485  1.00  0.00    -0.356 OA
HETATM   30  C   UNL     1      38.147 -14.603  -3.498  1.00  0.00     0.210 C 
ENDBRANCH  26  29
ENDBRANCH   9  23
TORSDOF 4
ENDMDL
MODEL 6
REMARK VINA RESULT:      -7.4      2.765      5.307
REMARK  4 active torsions:
REMARK  status: ('A' for Active; 'I' for Inactive)
REMARK    1  A    between atoms: C_9  and  C_10 
REMARK    2  A    between atoms: C_13  and  O_14 
REMARK    3  A    between atoms: C_18  and  C_19 
REMARK       I    between atoms: C_19  and  N_20 
REMARK    4  A    between atoms: N_20  and  C_21 
ROOT
HETATM    1  C   UNL     1      39.448 -12.366   5.164  1.00  0.00     0.070 C 
HETATM    2  C   UNL     1      39.787 -11.808   3.805  1.00  0.00     0.037 C 
HETATM    3  N   UNL     1      39.661 -10.427   3.677  1.00  0.00    -0.192 N 
HETATM    4  C   UNL     1      40.166  -9.741   2.633  1.00  0.00     0.725 A 
HETATM    5  N   UNL     1      40.684 -10.424   1.566  1.00  0.00    -0.084 N 
HETATM    6  N   UNL     1      41.225  -9.581   0.661  1.00  0.00    -0.149 NA
HETATM    7  C   UNL     1      40.950  -8.401   1.229  1.00  0.00     0.275 A 
HETATM    8  N   UNL     1      40.301  -8.454   2.436  1.00  0.00    -0.054 NA
HETATM    9  C   UNL     1      40.693 -11.887   1.453  1.00  0.00     0.202 C 
HETATM   10  C   UNL     1      40.255 -12.538   2.762  1.00  0.00     0.062 C 
HETATM   11  H   UNL     1      39.397  -9.900   4.505  1.00  0.00     0.184 HD
ENDROOT
BRANCH  10  12
HETATM   12  C   UNL     1      40.507 -14.003   2.817  1.00  0.00     0.256 C 
HETATM   13  N   UNL     1      41.804 -14.325   3.152  1.00  0.00    -0.323 N 
HETATM   14  H   UNL     1      42.428 -13.555   3.358  1.00  0.00     0.169 HD
HETATM   15  O   UNL     1      39.575 -14.767   2.607  1.00  0.00    -0.267 OA
BRANCH  13  16
HETATM   16  C   UNL     1      42.371 -15.614   3.222  1.00  0.00     0.035 A 
HETATM   17  C   UNL     1      42.573 -16.439   2.112  1.00  0.00     0.031 A 
HETATM   18  C   UNL     1      43.163 -17.700   2.262  1.00  0.00     0.026 A 
HETATM   19  C   UNL     1      43.557 -18.138   3.523  1.00  0.00     0.034 A 
HETATM   20 CL   UNL     1      44.291 -19.683   3.705  1.00  0.00    -0.084 Cl
HETATM   21  C   UNL     1      43.361 -17.329   4.637  1.00  0.00     0.026 A 
HETATM   22  C   UNL     1      42.765 -16.072   4.487  1.00  0.00     0.031 A 
ENDBRANCH  13  16
ENDBRANCH  10  12
BRANCH   9  23
HETATM   23  C   UNL     1      39.829 -12.334   0.276  1.00  0.00    -0.028 A 
HETATM   24  C   UNL     1      40.325 -13.284  -0.628  1.00  0.00     0.012 A 
HETATM   25  C   UNL     1      39.553 -13.700  -1.716  1.00  0.00     0.037 A 
HETATM   26  C   UNL     1      38.274 -13.181  -1.925  1.00  0.00     0.068 A 
HETATM   27  C   UNL     1      37.762 -12.254  -1.019  1.00  0.00     0.037 A 
HETATM   28  C   UNL     1      38.529 -11.837   0.075  1.00  0.00     0.012 A 
BRANCH  26  29
HETATM   29  O   UNL     1      37.635 -13.660  -3.034  1.00  0.00    -0.356 OA
HETATM   30  C   UNL     1      38.161 -14.844  -3.616  1.00  0.00     0.210 C 
ENDBRANCH  26  29
ENDBRANCH   9  23
TORSDOF 4
ENDMDL
MODEL 7
REMARK VINA RESULT:      -7.3     16.234     17.827
REMARK  4 active torsions:
REMARK  status: ('A' for Active; 'I' for Inactive)
REMARK    1  A    between atoms: C_9  and  C_10 
REMARK    2  A    between atoms: C_13  and  O_14 
REMARK    3  A    between atoms: C_18  and  C_19 
REMARK       I    between atoms: C_19  and  N_20 
REMARK    4  A    between atoms: N_20  and  C_21 
ROOT
HETATM    1  C   UNL     1      44.185 -29.981   1.712  1.00  0.00     0.070 C 
HETATM    2  C   UNL     1      44.858 -29.686   0.395  1.00  0.00     0.037 C 
HETATM    3  N   UNL     1      44.033 -29.741  -0.725  1.00  0.00    -0.192 N 
HETATM    4  C   UNL     1      44.400 -29.256  -1.928  1.00  0.00     0.725 A 
HETATM    5  N   UNL     1      45.688 -28.836  -2.120  1.00  0.00    -0.084 N 
HETATM    6  N   UNL     1      45.850 -28.300  -3.348  1.00  0.00    -0.149 NA
HETATM    7  C   UNL     1      44.626 -28.476  -3.857  1.00  0.00     0.275 A 
HETATM    8  N   UNL     1      43.708 -29.060  -3.022  1.00  0.00    -0.054 NA
HETATM    9  C   UNL     1      46.739 -28.917  -1.099  1.00  0.00     0.202 C 
HETATM   10  C   UNL     1      46.157 -29.317   0.254  1.00  0.00     0.062 C 
HETATM   11  H   UNL     1      43.046 -29.929  -0.572  1.00  0.00     0.184 HD
ENDROOT
BRANCH  10  12
HETATM   12  C   UNL     1      47.102 -29.146   1.388  1.00  0.00     0.256 C 
HETATM   13  N   UNL     1      47.832 -30.281   1.671  1.00  0.00    -0.323 N 
HETATM   14  H   UNL     1      47.682 -31.082   1.071  1.00  0.00     0.169 HD
HETATM   15  O   UNL     1      47.181 -28.052   1.928  1.00  0.00    -0.267 OA
BRANCH  13  16
HETATM   16  C   UNL     1      48.756 -30.460   2.720  1.00  0.00     0.035 A 
HETATM   17  C   UNL     1      48.420 -30.971   3.978  1.00  0.00     0.031 A 
HETATM   18  C   UNL     1      49.402 -31.138   4.961  1.00  0.00     0.026 A 
HETATM   19  C   UNL     1      50.724 -30.800   4.690  1.00  0.00     0.034 A 
HETATM   20 CL   UNL     1      51.932 -31.016   5.896  1.00  0.00    -0.084 Cl
HETATM   21  C   UNL     1      51.074 -30.289   3.444  1.00  0.00     0.026 A 
HETATM   22  C   UNL     1      50.090 -30.115   2.464  1.00  0.00     0.031 A 
ENDBRANCH  13  16
ENDBRANCH  10  12
BRANCH   9  23
HETATM   23  C   UNL     1      47.846 -29.867  -1.549  1.00  0.00    -0.028 A 
HETATM   24  C   UNL     1      49.181 -29.440  -1.524  1.00  0.00     0.012 A 
HETATM   25  C   UNL     1      50.207 -30.293  -1.939  1.00  0.00     0.037 A 
HETATM   26  C   UNL     1      49.926 -31.585  -2.385  1.00  0.00     0.068 A 
HETATM   27  C   UNL     1      48.605 -32.029  -2.391  1.00  0.00     0.037 A 
HETATM   28  C   UNL     1      47.573 -31.180  -1.973  1.00  0.00     0.012 A 
BRANCH  26  29
HETATM   29  O   UNL     1      51.018 -32.307  -2.777  1.00  0.00    -0.356 OA
HETATM   30  C   UNL     1      52.262 -31.622  -2.811  1.00  0.00     0.210 C 
ENDBRANCH  26  29
ENDBRANCH   9  23
TORSDOF 4
ENDMDL
MODEL 8
REMARK VINA RESULT:      -7.3      3.681      6.440
REMARK  4 active torsions:
REMARK  status: ('A' for Active; 'I' for Inactive)
REMARK    1  A    between atoms: C_9  and  C_10 
REMARK    2  A    between atoms: C_13  and  O_14 
REMARK    3  A    between atoms: C_18  and  C_19 
REMARK       I    between atoms: C_19  and  N_20 
REMARK    4  A    between atoms: N_20  and  C_21 
ROOT
HETATM    1  C   UNL     1      42.473 -17.754   2.221  1.00  0.00     0.070 C 
HETATM    2  C   UNL     1      42.666 -16.961   3.488  1.00  0.00     0.037 C 
HETATM    3  N   UNL     1      42.845 -17.714   4.645  1.00  0.00    -0.192 N 
HETATM    4  C   UNL     1      43.288 -17.184   5.803  1.00  0.00     0.725 A 
HETATM    5  N   UNL     1      43.419 -15.827   5.914  1.00  0.00    -0.084 N 
HETATM    6  N   UNL     1      43.958 -15.483   7.103  1.00  0.00    -0.149 NA
HETATM    7  C   UNL     1      44.080 -16.686   7.674  1.00  0.00     0.275 A 
HETATM    8  N   UNL     1      43.679 -17.754   6.914  1.00  0.00    -0.054 NA
HETATM    9  C   UNL     1      43.063 -14.878   4.853  1.00  0.00     0.202 C 
HETATM   10  C   UNL     1      42.744 -15.608   3.551  1.00  0.00     0.062 C 
HETATM   11  H   UNL     1      42.874 -18.726   4.547  1.00  0.00     0.184 HD
ENDROOT
BRANCH  10  12
HETATM   12  C   UNL     1      42.652 -14.712   2.368  1.00  0.00     0.256 C 
HETATM   13  N   UNL     1      41.361 -14.517   1.926  1.00  0.00    -0.323 N 
HETATM   14  H   UNL     1      40.624 -14.962   2.457  1.00  0.00     0.169 HD
HETATM   15  O   UNL     1      43.678 -14.212   1.929  1.00  0.00    -0.267 OA
BRANCH  13  16
HETATM   16  C   UNL     1      40.950 -13.781   0.796  1.00  0.00     0.035 A 
HETATM   17  C   UNL     1      41.096 -12.397   0.669  1.00  0.00     0.031 A 
HETATM   18  C   UNL     1      40.680 -11.742  -0.496  1.00  0.00     0.026 A 
HETATM   19  C   UNL     1      40.122 -12.470  -1.542  1.00  0.00     0.034 A 
HETATM   20 CL   UNL     1      39.622 -11.666  -2.978  1.00  0.00    -0.084 Cl
HETATM   21  C   UNL     1      39.969 -13.848  -1.431  1.00  0.00     0.026 A 
HETATM   22  C   UNL     1      40.378 -14.501  -0.263  1.00  0.00     0.031 A 
ENDBRANCH  13  16
ENDBRANCH  10  12
BRANCH   9  23
HETATM   23  C   UNL     1      41.911 -13.983   5.304  1.00  0.00    -0.028 A 
HETATM   24  C   UNL     1      42.085 -12.592   5.342  1.00  0.00     0.012 A 
HETATM   25  C   UNL     1      41.046 -11.758   5.759  1.00  0.00     0.037 A 
HETATM   26  C   UNL     1      39.814 -12.289   6.145  1.00  0.00     0.068 A 
HETATM   27  C   UNL     1      39.622 -13.668   6.088  1.00  0.00     0.037 A 
HETATM   28  C   UNL     1      40.658 -14.509   5.667  1.00  0.00     0.012 A 
BRANCH  26  29
HETATM   29  O   UNL     1      38.890 -11.365   6.547  1.00  0.00    -0.356 OA
HETATM   30  C   UNL     1      39.381 -10.076   6.891  1.00  0.00     0.210 C 
ENDBRANCH  26  29
ENDBRANCH   9  23
TORSDOF 4
ENDMDL
MODEL 9
REMARK VINA RESULT:      -7.0     15.996     18.159
REMARK  4 active torsions:
REMARK  status: ('A' for Active; 'I' for Inactive)
REMARK    1  A    between atoms: C_9  and  C_10 
REMARK    2  A    between atoms: C_13  and  O_14 
REMARK    3  A    between atoms: C_18  and  C_19 
REMARK       I    between atoms: C_19  and  N_20 
REMARK    4  A    between atoms: N_20  and  C_21 
ROOT
HETATM    1  C   UNL     1      49.377 -31.511  -1.570  1.00  0.00     0.070 C 
HETATM    2  C   UNL     1      48.650 -30.713  -0.517  1.00  0.00     0.037 C 
HETATM    3  N   UNL     1      49.179 -30.796   0.769  1.00  0.00    -0.192 N 
HETATM    4  C   UNL     1      48.825 -29.956   1.761  1.00  0.00     0.725 A 
HETATM    5  N   UNL     1      47.788 -29.084   1.567  1.00  0.00    -0.084 N 
HETATM    6  N   UNL     1      47.634 -28.262   2.627  1.00  0.00    -0.149 NA
HETATM    7  C   UNL     1      48.584 -28.733   3.442  1.00  0.00     0.275 A 
HETATM    8  N   UNL     1      49.334 -29.771   2.952  1.00  0.00    -0.054 NA
HETATM    9  C   UNL     1      46.986 -29.023   0.339  1.00  0.00     0.202 C 
HETATM   10  C   UNL     1      47.594 -29.895  -0.755  1.00  0.00     0.062 C 
HETATM   11  H   UNL     1      50.027 -31.344   0.893  1.00  0.00     0.184 HD
ENDROOT
BRANCH  10  12
HETATM   12  C   UNL     1      47.004 -29.667  -2.101  1.00  0.00     0.256 C 
HETATM   13  N   UNL     1      46.260 -30.732  -2.562  1.00  0.00    -0.323 N 
HETATM   14  H   UNL     1      46.163 -31.525  -1.940  1.00  0.00     0.169 HD
HETATM   15  O   UNL     1      47.186 -28.588  -2.647  1.00  0.00    -0.267 OA
BRANCH  13  16
HETATM   16  C   UNL     1      45.632 -30.852  -3.818  1.00  0.00     0.035 A 
HETATM   17  C   UNL     1      44.398 -30.277  -4.133  1.00  0.00     0.031 A 
HETATM   18  C   UNL     1      43.850 -30.424  -5.413  1.00  0.00     0.026 A 
HETATM   19  C   UNL     1      44.538 -31.145  -6.384  1.00  0.00     0.034 A 
HETATM   20 CL   UNL     1      43.870 -31.317  -7.960  1.00  0.00    -0.084 Cl
HETATM   21  C   UNL     1      45.767 -31.725  -6.086  1.00  0.00     0.026 A 
HETATM   22  C   UNL     1      46.309 -31.582  -4.805  1.00  0.00     0.031 A 
ENDBRANCH  13  16
ENDBRANCH  10  12
BRANCH   9  23
HETATM   23  C   UNL     1      45.536 -29.403   0.633  1.00  0.00    -0.028 A 
HETATM   24  C   UNL     1      44.495 -28.740  -0.032  1.00  0.00     0.012 A 
HETATM   25  C   UNL     1      43.163 -29.068   0.229  1.00  0.00     0.037 A 
HETATM   26  C   UNL     1      42.839 -30.062   1.154  1.00  0.00     0.068 A 
HETATM   27  C   UNL     1      43.866 -30.745   1.803  1.00  0.00     0.037 A 
HETATM   28  C   UNL     1      45.203 -30.423   1.543  1.00  0.00     0.012 A 
BRANCH  26  29
HETATM   29  O   UNL     1      41.500 -30.272   1.326  1.00  0.00    -0.356 OA
HETATM   30  C   UNL     1      41.107 -31.551   1.805  1.00  0.00     0.210 C 
ENDBRANCH  26  29
ENDBRANCH   9  23
TORSDOF 4
ENDMDL
MODEL 10
REMARK VINA RESULT:      -7.0      3.972      6.334
REMARK  4 active torsions:
REMARK  status: ('A' for Active; 'I' for Inactive)
REMARK    1  A    between atoms: C_9  and  C_10 
REMARK    2  A    between atoms: C_13  and  O_14 
REMARK    3  A    between atoms: C_18  and  C_19 
REMARK       I    between atoms: C_19  and  N_20 
REMARK    4  A    between atoms: N_20  and  C_21 
ROOT
HETATM    1  C   UNL     1      43.582 -14.760   5.824  1.00  0.00     0.070 C 
HETATM    2  C   UNL     1      43.341 -13.313   6.173  1.00  0.00     0.037 C 
HETATM    3  N   UNL     1      43.649 -12.953   7.483  1.00  0.00    -0.192 N 
HETATM    4  C   UNL     1      43.745 -11.671   7.886  1.00  0.00     0.725 A 
HETATM    5  N   UNL     1      43.371 -10.667   7.033  1.00  0.00    -0.084 N 
HETATM    6  N   UNL     1      43.619  -9.453   7.567  1.00  0.00    -0.149 NA
HETATM    7  C   UNL     1      44.099  -9.805   8.765  1.00  0.00     0.275 A 
HETATM    8  N   UNL     1      44.190 -11.153   9.002  1.00  0.00    -0.054 NA
HETATM    9  C   UNL     1      42.818 -10.893   5.692  1.00  0.00     0.202 C 
HETATM   10  C   UNL     1      42.924 -12.363   5.298  1.00  0.00     0.062 C 
HETATM   11  H   UNL     1      44.047 -13.669   8.085  1.00  0.00     0.184 HD
ENDROOT
BRANCH  10  12
HETATM   12  C   UNL     1      42.648 -12.620   3.860  1.00  0.00     0.256 C 
HETATM   13  N   UNL     1      41.420 -13.204   3.631  1.00  0.00    -0.323 N 
HETATM   14  H   UNL     1      40.832 -13.362   4.439  1.00  0.00     0.169 HD
HETATM   15  O   UNL     1      43.477 -12.271   3.031  1.00  0.00    -0.267 OA
BRANCH  13  16
HETATM   16  C   UNL     1      40.897 -13.629   2.394  1.00  0.00     0.035 A 
HETATM   17  C   UNL     1      40.730 -14.970   2.035  1.00  0.00     0.031 A 
HETATM   18  C   UNL     1      40.182 -15.310   0.792  1.00  0.00     0.026 A 
HETATM   19  C   UNL     1      39.794 -14.310  -0.094  1.00  0.00     0.034 A 
HETATM   20 CL   UNL     1      39.110 -14.729  -1.616  1.00  0.00    -0.084 Cl
HETATM   21  C   UNL     1      39.955 -12.971   0.247  1.00  0.00     0.026 A 
HETATM   22  C   UNL     1      40.509 -12.633   1.487  1.00  0.00     0.031 A 
ENDBRANCH  13  16
ENDBRANCH  10  12
BRANCH   9  23
HETATM   23  C   UNL     1      41.381 -10.383   5.617  1.00  0.00    -0.028 A 
HETATM   24  C   UNL     1      41.070  -9.303   4.778  1.00  0.00     0.012 A 
HETATM   25  C   UNL     1      39.763  -8.817   4.702  1.00  0.00     0.037 A 
HETATM   26  C   UNL     1      38.740  -9.395   5.456  1.00  0.00     0.068 A 
HETATM   27  C   UNL     1      39.033 -10.483   6.275  1.00  0.00     0.037 A 
HETATM   28  C   UNL     1      40.340 -10.977   6.353  1.00  0.00     0.012 A 
BRANCH  26  29
HETATM   29  O   UNL     1      37.513  -8.813   5.300  1.00  0.00    -0.356 OA
HETATM   30  C   UNL     1      37.432  -7.717   4.400  1.00  0.00     0.210 C 
ENDBRANCH  26  29
ENDBRANCH   9  23
TORSDOF 4
ENDMDL
