MODEL 1
REMARK VINA RESULT:      -8.0      0.000      0.000
REMARK  11 active torsions:
REMARK  status: ('A' for Active; 'I' for Inactive)
REMARK    1  A    between atoms: C_2  and  C_3 
REMARK    2  A    between atoms: C_3  and  N_4 
REMARK    3  A    between atoms: N_4  and  C_6 
REMARK    4  A    between atoms: N_4  and  C_30 
REMARK    5  A    between atoms: C_6  and  C_7 
REMARK    6  A    between atoms: N_8  and  C_9 
REMARK    7  A    between atoms: C_13  and  N_14 
REMARK    8  A    between atoms: C_17  and  C_18 
REMARK       I    between atoms: C_18  and  N_19 
REMARK    9  A    between atoms: N_19  and  N_20 
REMARK   10  A    between atoms: C_21  and  C_22 
REMARK   11  A    between atoms: C_30  and  C_31 
ROOT
HETATM    1  C   UNL     1      43.314 -16.889   4.680  1.00  0.00     0.096 A 
HETATM    2  N   UNL     1      43.611 -18.247   4.747  1.00  0.00    -0.215 N 
HETATM    3  N   UNL     1      43.825 -18.584   6.046  1.00  0.00     0.012 NA
HETATM    4  N   UNL     1      43.598 -17.532   6.815  1.00  0.00    -0.152 NA
HETATM    5  C   UNL     1      43.285 -16.479   6.008  1.00  0.00     0.170 A 
ENDROOT
BRANCH   5   6
HETATM    6  C   UNL     1      42.941 -15.152   6.504  1.00  0.00     0.293 C 
HETATM    7  N   UNL     1      43.963 -14.228   6.410  1.00  0.00    -0.242 N 
HETATM    8  H   UNL     1      44.860 -14.487   6.005  1.00  0.00     0.192 HD
HETATM    9  O   UNL     1      41.838 -14.949   7.006  1.00  0.00    -0.264 OA
BRANCH   7  10
HETATM   10  N   UNL     1      43.789 -12.997   6.963  1.00  0.00    -0.184 NA
HETATM   11  C   UNL     1      44.807 -12.199   6.925  1.00  0.00     0.150 C 
BRANCH  11  12
HETATM   12  C   UNL     1      44.739 -10.846   7.515  1.00  0.00    -0.016 A 
HETATM   13  C   UNL     1      43.514 -10.178   7.538  1.00  0.00     0.032 A 
HETATM   14  C   UNL     1      43.451  -8.894   8.079  1.00  0.00     0.011 A 
HETATM   15 BR   UNL     1      41.799  -7.973   8.108  1.00  0.00    -0.051 Br
HETATM   16  C   UNL     1      44.592  -8.279   8.595  1.00  0.00     0.019 A 
HETATM   17  C   UNL     1      45.813  -8.953   8.572  1.00  0.00     0.002 A 
HETATM   18  C   UNL     1      45.888 -10.236   8.032  1.00  0.00     0.013 A 
ENDBRANCH  11  12
ENDBRANCH   7  10
ENDBRANCH   5   6
BRANCH   1  19
HETATM   19  C   UNL     1      43.168 -16.088   3.437  1.00  0.00     0.296 C 
BRANCH  19  20
HETATM   20  N   UNL     1      41.802 -15.453   3.199  1.00  0.00    -0.066 N 
HETATM   21  H   UNL     1      41.208 -15.751   3.983  1.00  0.00     0.280 HD
BRANCH  20  22
HETATM   22  C   UNL     1      41.193 -15.989   1.906  1.00  0.00     0.235 C 
BRANCH  22  23
HETATM   23  C   UNL     1      39.998 -15.159   1.438  1.00  0.00     0.023 C 
HETATM   24  C   UNL     1      40.119 -14.685  -0.002  1.00  0.00     0.007 C 
ENDBRANCH  22  23
ENDBRANCH  20  22
BRANCH  20  25
HETATM   25  C   UNL     1      41.865 -13.931   3.183  1.00  0.00     0.235 C 
BRANCH  25  26
HETATM   26  C   UNL     1      43.268 -13.392   2.902  1.00  0.00     0.023 C 
HETATM   27  C   UNL     1      43.492 -11.971   3.395  1.00  0.00     0.007 C 
ENDBRANCH  25  26
ENDBRANCH  20  25
ENDBRANCH  19  20
ENDBRANCH   1  19
BRANCH   2  28
HETATM   28  C   UNL     1      43.645 -19.199   3.702  1.00  0.00     0.225 A 
HETATM   29  N   UNL     1      43.312 -18.835   2.461  1.00  0.00    -0.081 NA
HETATM   30  O   UNL     1      43.447 -20.017   1.723  1.00  0.00    -0.103 OA
HETATM   31  N   UNL     1      43.829 -21.074   2.536  1.00  0.00    -0.083 NA
HETATM   32  C   UNL     1      43.949 -20.570   3.763  1.00  0.00     0.201 A 
BRANCH  32  33
HETATM   33  N   UNL     1      44.308 -21.276   4.845  1.00  0.00    -0.379 N 
HETATM   34  H   UNL     1      45.072 -20.958   5.438  1.00  0.00     0.158 HD
HETATM   35  H   UNL     1      43.951 -22.203   5.068  1.00  0.00     0.158 HD
ENDBRANCH  32  33
ENDBRANCH   2  28
TORSDOF 11
ENDMDL
MODEL 2
REMARK VINA RESULT:      -7.7      4.227      9.288
REMARK  11 active torsions:
REMARK  status: ('A' for Active; 'I' for Inactive)
REMARK    1  A    between atoms: C_2  and  C_3 
REMARK    2  A    between atoms: C_3  and  N_4 
REMARK    3  A    between atoms: N_4  and  C_6 
REMARK    4  A    between atoms: N_4  and  C_30 
REMARK    5  A    between atoms: C_6  and  C_7 
REMARK    6  A    between atoms: N_8  and  C_9 
REMARK    7  A    between atoms: C_13  and  N_14 
REMARK    8  A    between atoms: C_17  and  C_18 
REMARK       I    between atoms: C_18  and  N_19 
REMARK    9  A    between atoms: N_19  and  N_20 
REMARK   10  A    between atoms: C_21  and  C_22 
REMARK   11  A    between atoms: C_30  and  C_31 
ROOT
HETATM    1  C   UNL     1      40.774 -10.402   7.117  1.00  0.00     0.096 A 
HETATM    2  N   UNL     1      40.111  -9.646   8.080  1.00  0.00    -0.215 N 
HETATM    3  N   UNL     1      38.802 -10.014   8.098  1.00  0.00     0.012 NA
HETATM    4  N   UNL     1      38.618 -11.018   7.258  1.00  0.00    -0.152 NA
HETATM    5  C   UNL     1      39.805 -11.277   6.641  1.00  0.00     0.170 A 
ENDROOT
BRANCH   5   6
HETATM    6  C   UNL     1      39.997 -12.344   5.667  1.00  0.00     0.293 C 
HETATM    7  N   UNL     1      40.541 -13.500   6.191  1.00  0.00    -0.242 N 
HETATM    8  H   UNL     1      40.758 -13.567   7.183  1.00  0.00     0.192 HD
HETATM    9  O   UNL     1      39.732 -12.152   4.483  1.00  0.00    -0.264 OA
BRANCH   7  10
HETATM   10  N   UNL     1      40.881 -14.510   5.344  1.00  0.00    -0.184 NA
HETATM   11  C   UNL     1      42.133 -14.837   5.311  1.00  0.00     0.150 C 
BRANCH  11  12
HETATM   12  C   UNL     1      42.619 -15.904   4.411  1.00  0.00    -0.016 A 
HETATM   13  C   UNL     1      43.067 -17.105   4.964  1.00  0.00     0.032 A 
HETATM   14  C   UNL     1      43.543 -18.106   4.117  1.00  0.00     0.011 A 
HETATM   15 BR   UNL     1      44.161 -19.735   4.853  1.00  0.00    -0.051 Br
HETATM   16  C   UNL     1      43.571 -17.919   2.735  1.00  0.00     0.019 A 
HETATM   17  C   UNL     1      43.119 -16.718   2.188  1.00  0.00     0.002 A 
HETATM   18  C   UNL     1      42.644 -15.709   3.025  1.00  0.00     0.013 A 
ENDBRANCH  11  12
ENDBRANCH   7  10
ENDBRANCH   5   6
BRANCH   1  19
HETATM   19  C   UNL     1      42.178 -10.206   6.670  1.00  0.00     0.296 C 
BRANCH  19  20
HETATM   20  N   UNL     1      43.164 -11.310   7.038  1.00  0.00    -0.066 N 
HETATM   21  H   UNL     1      42.595 -12.120   7.316  1.00  0.00     0.280 HD
BRANCH  20  22
HETATM   22  C   UNL     1      44.005 -10.882   8.239  1.00  0.00     0.235 C 
BRANCH  22  23
HETATM   23  C   UNL     1      44.322  -9.387   8.222  1.00  0.00     0.023 C 
HETATM   24  C   UNL     1      45.813  -9.087   8.186  1.00  0.00     0.007 C 
ENDBRANCH  22  23
ENDBRANCH  20  22
BRANCH  20  25
HETATM   25  C   UNL     1      44.049 -11.711   5.866  1.00  0.00     0.235 C 
BRANCH  25  26
HETATM   26  C   UNL     1      43.565 -11.149   4.529  1.00  0.00     0.023 C 
HETATM   27  C   UNL     1      43.525 -12.176   3.408  1.00  0.00     0.007 C 
ENDBRANCH  25  26
ENDBRANCH  20  25
ENDBRANCH  19  20
ENDBRANCH   1  19
BRANCH   2  28
HETATM   28  C   UNL     1      40.640  -8.685   8.973  1.00  0.00     0.225 A 
HETATM   29  N   UNL     1      40.644  -7.394   8.632  1.00  0.00    -0.081 NA
HETATM   30  O   UNL     1      41.243  -6.765   9.729  1.00  0.00    -0.103 OA
HETATM   31  N   UNL     1      41.615  -7.690  10.695  1.00  0.00    -0.083 NA
HETATM   32  C   UNL     1      41.245  -8.880  10.226  1.00  0.00     0.201 A 
BRANCH  32  33
HETATM   33  N   UNL     1      41.427 -10.042  10.870  1.00  0.00    -0.379 N 
HETATM   34  H   UNL     1      40.631 -10.552  11.248  1.00  0.00     0.158 HD
HETATM   35  H   UNL     1      42.337 -10.416  11.132  1.00  0.00     0.158 HD
ENDBRANCH  32  33
ENDBRANCH   2  28
TORSDOF 11
ENDMDL
MODEL 3
REMARK VINA RESULT:      -7.6      3.825      8.466
REMARK  11 active torsions:
REMARK  status: ('A' for Active; 'I' for Inactive)
REMARK    1  A    between atoms: C_2  and  C_3 
REMARK    2  A    between atoms: C_3  and  N_4 
REMARK    3  A    between atoms: N_4  and  C_6 
REMARK    4  A    between atoms: N_4  and  C_30 
REMARK    5  A    between atoms: C_6  and  C_7 
REMARK    6  A    between atoms: N_8  and  C_9 
REMARK    7  A    between atoms: C_13  and  N_14 
REMARK    8  A    between atoms: C_17  and  C_18 
REMARK       I    between atoms: C_18  and  N_19 
REMARK    9  A    between atoms: N_19  and  N_20 
REMARK   10  A    between atoms: C_21  and  C_22 
REMARK   11  A    between atoms: C_30  and  C_31 
ROOT
HETATM    1  C   UNL     1      43.300 -12.529   5.480  1.00  0.00     0.096 A 
HETATM    2  N   UNL     1      44.321 -11.719   5.970  1.00  0.00    -0.215 N 
HETATM    3  N   UNL     1      44.993 -11.179   4.918  1.00  0.00     0.012 NA
HETATM    4  N   UNL     1      44.401 -11.537   3.791  1.00  0.00    -0.152 NA
HETATM    5  C   UNL     1      43.363 -12.364   4.102  1.00  0.00     0.170 A 
ENDROOT
BRANCH   5   6
HETATM    6  C   UNL     1      42.458 -12.936   3.113  1.00  0.00     0.293 C 
HETATM    7  N   UNL     1      41.627 -12.016   2.505  1.00  0.00    -0.242 N 
HETATM    8  H   UNL     1      41.686 -11.028   2.742  1.00  0.00     0.192 HD
HETATM    9  O   UNL     1      42.441 -14.150   2.922  1.00  0.00    -0.264 OA
BRANCH   7  10
HETATM   10  N   UNL     1      40.655 -12.462   1.663  1.00  0.00    -0.184 NA
HETATM   11  C   UNL     1      40.941 -12.458   0.401  1.00  0.00     0.150 C 
BRANCH  11  12
HETATM   12  C   UNL     1      39.953 -12.901  -0.606  1.00  0.00    -0.016 A 
HETATM   13  C   UNL     1      39.020 -11.982  -1.090  1.00  0.00     0.032 A 
HETATM   14  C   UNL     1      38.076 -12.402  -2.026  1.00  0.00     0.011 A 
HETATM   15 BR   UNL     1      36.802 -11.170  -2.685  1.00  0.00    -0.051 Br
HETATM   16  C   UNL     1      38.059 -13.721  -2.482  1.00  0.00     0.019 A 
HETATM   17  C   UNL     1      38.995 -14.634  -1.996  1.00  0.00     0.002 A 
HETATM   18  C   UNL     1      39.942 -14.226  -1.057  1.00  0.00     0.013 A 
ENDBRANCH  11  12
ENDBRANCH   7  10
ENDBRANCH   5   6
BRANCH   1  19
HETATM   19  C   UNL     1      42.432 -13.423   6.290  1.00  0.00     0.296 C 
BRANCH  19  20
HETATM   20  N   UNL     1      42.624 -14.922   6.079  1.00  0.00    -0.066 N 
HETATM   21  H   UNL     1      42.387 -15.104   5.096  1.00  0.00     0.280 HD
BRANCH  20  22
HETATM   22  C   UNL     1      41.650 -15.703   6.959  1.00  0.00     0.235 C 
BRANCH  22  23
HETATM   23  C   UNL     1      40.370 -16.081   6.216  1.00  0.00     0.023 C 
HETATM   24  C   UNL     1      40.588 -16.344   4.733  1.00  0.00     0.007 C 
ENDBRANCH  22  23
ENDBRANCH  20  22
BRANCH  20  25
HETATM   25  C   UNL     1      44.060 -15.363   6.329  1.00  0.00     0.235 C 
BRANCH  25  26
HETATM   26  C   UNL     1      44.227 -16.883   6.336  1.00  0.00     0.023 C 
HETATM   27  C   UNL     1      44.246 -17.508   4.950  1.00  0.00     0.007 C 
ENDBRANCH  25  26
ENDBRANCH  20  25
ENDBRANCH  19  20
ENDBRANCH   1  19
BRANCH   2  28
HETATM   28  C   UNL     1      44.638 -11.406   7.312  1.00  0.00     0.225 A 
HETATM   29  N   UNL     1      43.732 -11.606   8.272  1.00  0.00    -0.081 NA
HETATM   30  O   UNL     1      44.383 -11.177   9.434  1.00  0.00    -0.103 OA
HETATM   31  N   UNL     1      45.654 -10.700   9.149  1.00  0.00    -0.083 NA
HETATM   32  C   UNL     1      45.813 -10.839   7.835  1.00  0.00     0.201 A 
BRANCH  32  33
HETATM   33  N   UNL     1      46.920 -10.493   7.160  1.00  0.00    -0.379 N 
HETATM   34  H   UNL     1      47.120  -9.515   6.965  1.00  0.00     0.158 HD
HETATM   35  H   UNL     1      47.541 -11.157   6.701  1.00  0.00     0.158 HD
ENDBRANCH  32  33
ENDBRANCH   2  28
TORSDOF 11
ENDMDL
MODEL 4
REMARK VINA RESULT:      -7.6      4.763     10.096
REMARK  11 active torsions:
REMARK  status: ('A' for Active; 'I' for Inactive)
REMARK    1  A    between atoms: C_2  and  C_3 
REMARK    2  A    between atoms: C_3  and  N_4 
REMARK    3  A    between atoms: N_4  and  C_6 
REMARK    4  A    between atoms: N_4  and  C_30 
REMARK    5  A    between atoms: C_6  and  C_7 
REMARK    6  A    between atoms: N_8  and  C_9 
REMARK    7  A    between atoms: C_13  and  N_14 
REMARK    8  A    between atoms: C_17  and  C_18 
REMARK       I    between atoms: C_18  and  N_19 
REMARK    9  A    between atoms: N_19  and  N_20 
REMARK   10  A    between atoms: C_21  and  C_22 
REMARK   11  A    between atoms: C_30  and  C_31 
ROOT
HETATM    1  C   UNL     1      40.981  -9.431   8.511  1.00  0.00     0.096 A 
HETATM    2  N   UNL     1      39.883  -9.067   9.285  1.00  0.00    -0.215 N 
HETATM    3  N   UNL     1      38.748  -9.334   8.586  1.00  0.00     0.012 NA
HETATM    4  N   UNL     1      39.065  -9.923   7.445  1.00  0.00    -0.152 NA
HETATM    5  C   UNL     1      40.424  -9.995   7.370  1.00  0.00     0.170 A 
ENDROOT
BRANCH   5   6
HETATM    6  C   UNL     1      41.142 -10.613   6.263  1.00  0.00     0.293 C 
HETATM    7  N   UNL     1      41.145 -11.994   6.287  1.00  0.00    -0.242 N 
HETATM    8  H   UNL     1      40.658 -12.499   7.023  1.00  0.00     0.192 HD
HETATM    9  O   UNL     1      41.727  -9.911   5.440  1.00  0.00    -0.264 OA
BRANCH   7  10
HETATM   10  N   UNL     1      41.896 -12.666   5.373  1.00  0.00    -0.184 NA
HETATM   11  C   UNL     1      41.350 -13.708   4.833  1.00  0.00     0.150 C 
BRANCH  11  12
HETATM   12  C   UNL     1      42.083 -14.526   3.844  1.00  0.00    -0.016 A 
HETATM   13  C   UNL     1      42.521 -15.800   4.211  1.00  0.00     0.032 A 
HETATM   14  C   UNL     1      43.228 -16.568   3.285  1.00  0.00     0.011 A 
HETATM   15 BR   UNL     1      43.833 -18.292   3.771  1.00  0.00    -0.051 Br
HETATM   16  C   UNL     1      43.495 -16.077   2.006  1.00  0.00     0.019 A 
HETATM   17  C   UNL     1      43.054 -14.805   1.645  1.00  0.00     0.002 A 
HETATM   18  C   UNL     1      42.348 -14.027   2.563  1.00  0.00     0.013 A 
ENDBRANCH  11  12
ENDBRANCH   7  10
ENDBRANCH   5   6
BRANCH   1  19
HETATM   19  C   UNL     1      42.406  -9.163   8.839  1.00  0.00     0.296 C 
BRANCH  19  20
HETATM   20  N   UNL     1      43.186 -10.321   9.453  1.00  0.00    -0.066 N 
HETATM   21  H   UNL     1      42.609 -11.160   9.315  1.00  0.00     0.280 HD
BRANCH  20  22
HETATM   22  C   UNL     1      43.356 -10.099  10.955  1.00  0.00     0.235 C 
BRANCH  22  23
HETATM   23  C   UNL     1      43.621  -8.634  11.299  1.00  0.00     0.023 C 
HETATM   24  C   UNL     1      43.301  -8.286  12.745  1.00  0.00     0.007 C 
ENDBRANCH  22  23
ENDBRANCH  20  22
BRANCH  20  25
HETATM   25  C   UNL     1      44.533 -10.535   8.777  1.00  0.00     0.235 C 
BRANCH  25  26
HETATM   26  C   UNL     1      44.482 -11.568   7.651  1.00  0.00     0.023 C 
HETATM   27  C   UNL     1      45.368 -11.229   6.463  1.00  0.00     0.007 C 
ENDBRANCH  25  26
ENDBRANCH  20  25
ENDBRANCH  19  20
ENDBRANCH   1  19
BRANCH   2  28
HETATM   28  C   UNL     1      39.857  -8.560  10.605  1.00  0.00     0.225 A 
HETATM   29  N   UNL     1      40.096  -7.264  10.822  1.00  0.00    -0.081 NA
HETATM   30  O   UNL     1      40.003  -7.140  12.213  1.00  0.00    -0.103 OA
HETATM   31  N   UNL     1      39.739  -8.365  12.808  1.00  0.00    -0.083 NA
HETATM   32  C   UNL     1      39.651  -9.246  11.814  1.00  0.00     0.201 A 
BRANCH  32  33
HETATM   33  N   UNL     1      39.400 -10.554  11.974  1.00  0.00    -0.379 N 
HETATM   34  H   UNL     1      39.009 -11.101  11.211  1.00  0.00     0.158 HD
HETATM   35  H   UNL     1      39.454 -11.042  12.866  1.00  0.00     0.158 HD
ENDBRANCH  32  33
ENDBRANCH   2  28
TORSDOF 11
ENDMDL
MODEL 5
REMARK VINA RESULT:      -7.6      3.344      5.657
REMARK  11 active torsions:
REMARK  status: ('A' for Active; 'I' for Inactive)
REMARK    1  A    between atoms: C_2  and  C_3 
REMARK    2  A    between atoms: C_3  and  N_4 
REMARK    3  A    between atoms: N_4  and  C_6 
REMARK    4  A    between atoms: N_4  and  C_30 
REMARK    5  A    between atoms: C_6  and  C_7 
REMARK    6  A    between atoms: N_8  and  C_9 
REMARK    7  A    between atoms: C_13  and  N_14 
REMARK    8  A    between atoms: C_17  and  C_18 
REMARK       I    between atoms: C_18  and  N_19 
REMARK    9  A    between atoms: N_19  and  N_20 
REMARK   10  A    between atoms: C_21  and  C_22 
REMARK   11  A    between atoms: C_30  and  C_31 
ROOT
HETATM    1  C   UNL     1      42.018 -12.840   1.962  1.00  0.00     0.096 A 
HETATM    2  N   UNL     1      41.099 -12.459   0.989  1.00  0.00    -0.215 N 
HETATM    3  N   UNL     1      40.812 -11.140   1.152  1.00  0.00     0.012 NA
HETATM    4  N   UNL     1      41.560 -10.645   2.123  1.00  0.00    -0.152 NA
HETATM    5  C   UNL     1      42.308 -11.662   2.641  1.00  0.00     0.170 A 
ENDROOT
BRANCH   5   6
HETATM    6  C   UNL     1      43.279 -11.489   3.713  1.00  0.00     0.293 C 
HETATM    7  N   UNL     1      42.721 -11.365   4.970  1.00  0.00    -0.242 N 
HETATM    8  H   UNL     1      41.713 -11.415   5.096  1.00  0.00     0.192 HD
HETATM    9  O   UNL     1      44.477 -11.409   3.451  1.00  0.00    -0.264 OA
BRANCH   7  10
HETATM   10  N   UNL     1      43.532 -11.070   6.023  1.00  0.00    -0.184 NA
HETATM   11  C   UNL     1      42.956 -10.583   7.075  1.00  0.00     0.150 C 
BRANCH  11  12
HETATM   12  C   UNL     1      43.740 -10.205   8.268  1.00  0.00    -0.016 A 
HETATM   13  C   UNL     1      43.071  -9.731   9.398  1.00  0.00     0.032 A 
HETATM   14  C   UNL     1      43.811  -9.358  10.519  1.00  0.00     0.011 A 
HETATM   15 BR   UNL     1      42.917  -8.707  12.053  1.00  0.00    -0.051 Br
HETATM   16  C   UNL     1      45.203  -9.455  10.521  1.00  0.00     0.019 A 
HETATM   17  C   UNL     1      45.866  -9.932   9.391  1.00  0.00     0.002 A 
HETATM   18  C   UNL     1      45.137 -10.306   8.263  1.00  0.00     0.013 A 
ENDBRANCH  11  12
ENDBRANCH   7  10
ENDBRANCH   5   6
BRANCH   1  19
HETATM   19  C   UNL     1      42.475 -14.228   2.234  1.00  0.00     0.296 C 
BRANCH  19  20
HETATM   20  N   UNL     1      41.505 -15.120   3.001  1.00  0.00    -0.066 N 
HETATM   21  H   UNL     1      40.567 -14.739   2.826  1.00  0.00     0.280 HD
BRANCH  20  22
HETATM   22  C   UNL     1      41.785 -15.032   4.499  1.00  0.00     0.235 C 
BRANCH  22  23
HETATM   23  C   UNL     1      41.200 -16.214   5.271  1.00  0.00     0.023 C 
HETATM   24  C   UNL     1      40.280 -15.797   6.408  1.00  0.00     0.007 C 
ENDBRANCH  22  23
ENDBRANCH  20  22
BRANCH  20  25
HETATM   25  C   UNL     1      41.545 -16.565   2.522  1.00  0.00     0.235 C 
BRANCH  25  26
HETATM   26  C   UNL     1      42.930 -17.000   2.043  1.00  0.00     0.023 C 
HETATM   27  C   UNL     1      43.470 -18.230   2.756  1.00  0.00     0.007 C 
ENDBRANCH  25  26
ENDBRANCH  20  25
ENDBRANCH  19  20
ENDBRANCH   1  19
BRANCH   2  28
HETATM   28  C   UNL     1      40.554 -13.227  -0.066  1.00  0.00     0.225 A 
HETATM   29  N   UNL     1      39.813 -14.303   0.212  1.00  0.00    -0.081 NA
HETATM   30  O   UNL     1      39.471 -14.802  -1.050  1.00  0.00    -0.103 OA
HETATM   31  N   UNL     1      40.034 -14.037  -2.061  1.00  0.00    -0.083 NA
HETATM   32  C   UNL     1      40.707 -13.063  -1.453  1.00  0.00     0.201 A 
BRANCH  32  33
HETATM   33  N   UNL     1      41.396 -12.102  -2.087  1.00  0.00    -0.379 N 
HETATM   34  H   UNL     1      42.234 -12.332  -2.615  1.00  0.00     0.158 HD
HETATM   35  H   UNL     1      41.217 -11.105  -1.982  1.00  0.00     0.158 HD
ENDBRANCH  32  33
ENDBRANCH   2  28
TORSDOF 11
ENDMDL
MODEL 6
REMARK VINA RESULT:      -7.3      3.264      5.526
REMARK  11 active torsions:
REMARK  status: ('A' for Active; 'I' for Inactive)
REMARK    1  A    between atoms: C_2  and  C_3 
REMARK    2  A    between atoms: C_3  and  N_4 
REMARK    3  A    between atoms: N_4  and  C_6 
REMARK    4  A    between atoms: N_4  and  C_30 
REMARK    5  A    between atoms: C_6  and  C_7 
REMARK    6  A    between atoms: N_8  and  C_9 
REMARK    7  A    between atoms: C_13  and  N_14 
REMARK    8  A    between atoms: C_17  and  C_18 
REMARK       I    between atoms: C_18  and  N_19 
REMARK    9  A    between atoms: N_19  and  N_20 
REMARK   10  A    between atoms: C_21  and  C_22 
REMARK   11  A    between atoms: C_30  and  C_31 
ROOT
HETATM    1  C   UNL     1      42.007 -12.954   1.925  1.00  0.00     0.096 A 
HETATM    2  N   UNL     1      41.063 -12.574   0.976  1.00  0.00    -0.215 N 
HETATM    3  N   UNL     1      40.750 -11.265   1.171  1.00  0.00     0.012 NA
HETATM    4  N   UNL     1      41.506 -10.774   2.138  1.00  0.00    -0.152 NA
HETATM    5  C   UNL     1      42.284 -11.783   2.621  1.00  0.00     0.170 A 
ENDROOT
BRANCH   5   6
HETATM    6  C   UNL     1      43.271 -11.610   3.679  1.00  0.00     0.293 C 
HETATM    7  N   UNL     1      42.741 -11.592   4.954  1.00  0.00    -0.242 N 
HETATM    8  H   UNL     1      41.741 -11.712   5.100  1.00  0.00     0.192 HD
HETATM    9  O   UNL     1      44.455 -11.441   3.395  1.00  0.00    -0.264 OA
BRANCH   7  10
HETATM   10  N   UNL     1      43.560 -11.306   6.003  1.00  0.00    -0.184 NA
HETATM   11  C   UNL     1      43.078 -10.522   6.913  1.00  0.00     0.150 C 
BRANCH  11  12
HETATM   12  C   UNL     1      43.886 -10.127   8.084  1.00  0.00    -0.016 A 
HETATM   13  C   UNL     1      43.241  -9.856   9.293  1.00  0.00     0.032 A 
HETATM   14  C   UNL     1      44.001  -9.465  10.395  1.00  0.00     0.011 A 
HETATM   15 BR   UNL     1      43.139  -9.089  12.036  1.00  0.00    -0.051 Br
HETATM   16  C   UNL     1      45.388  -9.346  10.301  1.00  0.00     0.019 A 
HETATM   17  C   UNL     1      46.027  -9.620   9.092  1.00  0.00     0.002 A 
HETATM   18  C   UNL     1      45.277 -10.009   7.982  1.00  0.00     0.013 A 
ENDBRANCH  11  12
ENDBRANCH   7  10
ENDBRANCH   5   6
BRANCH   1  19
HETATM   19  C   UNL     1      42.499 -14.336   2.160  1.00  0.00     0.296 C 
BRANCH  19  20
HETATM   20  N   UNL     1      42.301 -14.893   3.566  1.00  0.00    -0.066 N 
HETATM   21  H   UNL     1      42.830 -14.276   4.195  1.00  0.00     0.280 HD
BRANCH  20  22
HETATM   22  C   UNL     1      42.895 -16.297   3.662  1.00  0.00     0.235 C 
BRANCH  22  23
HETATM   23  C   UNL     1      43.122 -16.927   2.289  1.00  0.00     0.023 C 
HETATM   24  C   UNL     1      43.151 -18.448   2.319  1.00  0.00     0.007 C 
ENDBRANCH  22  23
ENDBRANCH  20  22
BRANCH  20  25
HETATM   25  C   UNL     1      40.839 -14.889   3.990  1.00  0.00     0.235 C 
BRANCH  25  26
HETATM   26  C   UNL     1      40.642 -14.534   5.464  1.00  0.00     0.023 C 
HETATM   27  C   UNL     1      40.335 -15.730   6.351  1.00  0.00     0.007 C 
ENDBRANCH  25  26
ENDBRANCH  20  25
ENDBRANCH  19  20
ENDBRANCH   1  19
BRANCH   2  28
HETATM   28  C   UNL     1      40.514 -13.334  -0.083  1.00  0.00     0.225 A 
HETATM   29  N   UNL     1      39.780 -14.416   0.187  1.00  0.00    -0.081 NA
HETATM   30  O   UNL     1      39.432 -14.903  -1.078  1.00  0.00    -0.103 OA
HETATM   31  N   UNL     1      39.986 -14.124  -2.084  1.00  0.00    -0.083 NA
HETATM   32  C   UNL     1      40.659 -13.153  -1.470  1.00  0.00     0.201 A 
BRANCH  32  33
HETATM   33  N   UNL     1      41.340 -12.183  -2.097  1.00  0.00    -0.379 N 
HETATM   34  H   UNL     1      41.385 -12.160  -3.113  1.00  0.00     0.158 HD
HETATM   35  H   UNL     1      41.941 -11.510  -1.627  1.00  0.00     0.158 HD
ENDBRANCH  32  33
ENDBRANCH   2  28
TORSDOF 11
ENDMDL
MODEL 7
REMARK VINA RESULT:      -7.3      4.470      9.537
REMARK  11 active torsions:
REMARK  status: ('A' for Active; 'I' for Inactive)
REMARK    1  A    between atoms: C_2  and  C_3 
REMARK    2  A    between atoms: C_3  and  N_4 
REMARK    3  A    between atoms: N_4  and  C_6 
REMARK    4  A    between atoms: N_4  and  C_30 
REMARK    5  A    between atoms: C_6  and  C_7 
REMARK    6  A    between atoms: N_8  and  C_9 
REMARK    7  A    between atoms: C_13  and  N_14 
REMARK    8  A    between atoms: C_17  and  C_18 
REMARK       I    between atoms: C_18  and  N_19 
REMARK    9  A    between atoms: N_19  and  N_20 
REMARK   10  A    between atoms: C_21  and  C_22 
REMARK   11  A    between atoms: C_30  and  C_31 
ROOT
HETATM    1  C   UNL     1      43.207  -9.618   8.795  1.00  0.00     0.096 A 
HETATM    2  N   UNL     1      43.459  -9.054  10.042  1.00  0.00    -0.215 N 
HETATM    3  N   UNL     1      44.435  -9.773  10.658  1.00  0.00     0.012 NA
HETATM    4  N   UNL     1      44.872 -10.712   9.835  1.00  0.00    -0.152 NA
HETATM    5  C   UNL     1      44.139 -10.644   8.688  1.00  0.00     0.170 A 
ENDROOT
BRANCH   5   6
HETATM    6  C   UNL     1      44.357 -11.506   7.534  1.00  0.00     0.293 C 
HETATM    7  N   UNL     1      43.588 -12.654   7.529  1.00  0.00    -0.242 N 
HETATM    8  H   UNL     1      42.923 -12.834   8.277  1.00  0.00     0.192 HD
HETATM    9  O   UNL     1      45.210 -11.214   6.699  1.00  0.00    -0.264 OA
BRANCH   7  10
HETATM   10  N   UNL     1      43.809 -13.589   6.565  1.00  0.00    -0.184 NA
HETATM   11  C   UNL     1      43.187 -14.716   6.703  1.00  0.00     0.150 C 
BRANCH  11  12
HETATM   12  C   UNL     1      43.369 -15.811   5.728  1.00  0.00    -0.016 A 
HETATM   13  C   UNL     1      43.174 -15.550   4.370  1.00  0.00     0.032 A 
HETATM   14  C   UNL     1      43.328 -16.587   3.451  1.00  0.00     0.011 A 
HETATM   15 BR   UNL     1      43.060 -16.249   1.610  1.00  0.00    -0.051 Br
HETATM   16  C   UNL     1      43.676 -17.871   3.873  1.00  0.00     0.019 A 
HETATM   17  C   UNL     1      43.871 -18.125   5.230  1.00  0.00     0.002 A 
HETATM   18  C   UNL     1      43.718 -17.097   6.159  1.00  0.00     0.013 A 
ENDBRANCH  11  12
ENDBRANCH   7  10
ENDBRANCH   5   6
BRANCH   1  19
HETATM   19  C   UNL     1      42.109  -9.233   7.870  1.00  0.00     0.296 C 
BRANCH  19  20
HETATM   20  N   UNL     1      40.986 -10.250   7.696  1.00  0.00    -0.066 N 
HETATM   21  H   UNL     1      41.222 -11.044   8.304  1.00  0.00     0.280 HD
BRANCH  20  22
HETATM   22  C   UNL     1      40.948 -10.747   6.252  1.00  0.00     0.235 C 
BRANCH  22  23
HETATM   23  C   UNL     1      40.236 -12.092   6.119  1.00  0.00     0.023 C 
HETATM   24  C   UNL     1      39.667 -12.339   4.730  1.00  0.00     0.007 C 
ENDBRANCH  22  23
ENDBRANCH  20  22
BRANCH  20  25
HETATM   25  C   UNL     1      39.632  -9.696   8.118  1.00  0.00     0.235 C 
BRANCH  25  26
HETATM   26  C   UNL     1      39.520  -9.467   9.625  1.00  0.00     0.023 C 
HETATM   27  C   UNL     1      38.964  -8.102  10.002  1.00  0.00     0.007 C 
ENDBRANCH  25  26
ENDBRANCH  20  25
ENDBRANCH  19  20
ENDBRANCH   1  19
BRANCH   2  28
HETATM   28  C   UNL     1      42.891  -7.896  10.623  1.00  0.00     0.225 A 
HETATM   29  N   UNL     1      43.026  -6.715  10.016  1.00  0.00    -0.081 NA
HETATM   30  O   UNL     1      42.365  -5.827  10.872  1.00  0.00    -0.103 OA
HETATM   31  N   UNL     1      41.870  -6.483  11.990  1.00  0.00    -0.083 NA
HETATM   32  C   UNL     1      42.198  -7.765  11.839  1.00  0.00     0.201 A 
BRANCH  32  33
HETATM   33  N   UNL     1      41.895  -8.737  12.712  1.00  0.00    -0.379 N 
HETATM   34  H   UNL     1      40.949  -8.828  13.075  1.00  0.00     0.158 HD
HETATM   35  H   UNL     1      42.584  -9.342  13.155  1.00  0.00     0.158 HD
ENDBRANCH  32  33
ENDBRANCH   2  28
TORSDOF 11
ENDMDL
MODEL 8
REMARK VINA RESULT:      -7.2      3.666      5.978
REMARK  11 active torsions:
REMARK  status: ('A' for Active; 'I' for Inactive)
REMARK    1  A    between atoms: C_2  and  C_3 
REMARK    2  A    between atoms: C_3  and  N_4 
REMARK    3  A    between atoms: N_4  and  C_6 
REMARK    4  A    between atoms: N_4  and  C_30 
REMARK    5  A    between atoms: C_6  and  C_7 
REMARK    6  A    between atoms: N_8  and  C_9 
REMARK    7  A    between atoms: C_13  and  N_14 
REMARK    8  A    between atoms: C_17  and  C_18 
REMARK       I    between atoms: C_18  and  N_19 
REMARK    9  A    between atoms: N_19  and  N_20 
REMARK   10  A    between atoms: C_21  and  C_22 
REMARK   11  A    between atoms: C_30  and  C_31 
ROOT
HETATM    1  C   UNL     1      40.788 -12.488   1.255  1.00  0.00     0.096 A 
HETATM    2  N   UNL     1      40.026 -12.346   0.099  1.00  0.00    -0.215 N 
HETATM    3  N   UNL     1      38.956 -11.554   0.376  1.00  0.00     0.012 NA
HETATM    4  N   UNL     1      39.043 -11.119   1.621  1.00  0.00    -0.152 NA
HETATM    5  C   UNL     1      40.153 -11.674   2.186  1.00  0.00     0.170 A 
ENDROOT
BRANCH   5   6
HETATM    6  C   UNL     1      40.592 -11.400   3.548  1.00  0.00     0.293 C 
HETATM    7  N   UNL     1      41.691 -10.567   3.633  1.00  0.00    -0.242 N 
HETATM    8  H   UNL     1      42.117 -10.184   2.793  1.00  0.00     0.192 HD
HETATM    9  O   UNL     1      40.029 -11.939   4.498  1.00  0.00    -0.264 OA
BRANCH   7  10
HETATM   10  N   UNL     1      42.261 -10.353   4.851  1.00  0.00    -0.184 NA
HETATM   11  C   UNL     1      43.377 -10.966   5.081  1.00  0.00     0.150 C 
BRANCH  11  12
HETATM   12  C   UNL     1      44.072 -10.824   6.377  1.00  0.00    -0.016 A 
HETATM   13  C   UNL     1      43.343 -10.418   7.496  1.00  0.00     0.032 A 
HETATM   14  C   UNL     1      44.001 -10.266   8.716  1.00  0.00     0.011 A 
HETATM   15 BR   UNL     1      43.027  -9.709  10.239  1.00  0.00    -0.051 Br
HETATM   16  C   UNL     1      45.369 -10.518   8.827  1.00  0.00     0.019 A 
HETATM   17  C   UNL     1      46.091 -10.925   7.706  1.00  0.00     0.002 A 
HETATM   18  C   UNL     1      45.445 -11.078   6.480  1.00  0.00     0.013 A 
ENDBRANCH  11  12
ENDBRANCH   7  10
ENDBRANCH   5   6
BRANCH   1  19
HETATM   19  C   UNL     1      41.952 -13.395   1.426  1.00  0.00     0.296 C 
BRANCH  19  20
HETATM   20  N   UNL     1      41.783 -14.527   2.435  1.00  0.00    -0.066 N 
HETATM   21  H   UNL     1      40.879 -14.367   2.895  1.00  0.00     0.280 HD
BRANCH  20  22
HETATM   22  C   UNL     1      42.880 -14.452   3.495  1.00  0.00     0.235 C 
BRANCH  22  23
HETATM   23  C   UNL     1      42.317 -14.452   4.915  1.00  0.00     0.023 C 
HETATM   24  C   UNL     1      41.185 -15.448   5.116  1.00  0.00     0.007 C 
ENDBRANCH  22  23
ENDBRANCH  20  22
BRANCH  20  25
HETATM   25  C   UNL     1      41.760 -15.897   1.770  1.00  0.00     0.235 C 
BRANCH  25  26
HETATM   26  C   UNL     1      43.103 -16.623   1.844  1.00  0.00     0.023 C 
HETATM   27  C   UNL     1      43.015 -18.026   2.423  1.00  0.00     0.007 C 
ENDBRANCH  25  26
ENDBRANCH  20  25
ENDBRANCH  19  20
ENDBRANCH   1  19
BRANCH   2  28
HETATM   28  C   UNL     1      40.279 -12.852  -1.197  1.00  0.00     0.225 A 
HETATM   29  N   UNL     1      41.048 -12.160  -2.041  1.00  0.00    -0.081 NA
HETATM   30  O   UNL     1      41.057 -12.945  -3.199  1.00  0.00    -0.103 OA
HETATM   31  N   UNL     1      40.272 -14.078  -3.042  1.00  0.00    -0.083 NA
HETATM   32  C   UNL     1      39.787 -14.021  -1.803  1.00  0.00     0.201 A 
BRANCH  32  33
HETATM   33  N   UNL     1      38.977 -14.941  -1.259  1.00  0.00    -0.379 N 
HETATM   34  H   UNL     1      38.410 -14.711  -0.445  1.00  0.00     0.158 HD
HETATM   35  H   UNL     1      38.969 -15.924  -1.522  1.00  0.00     0.158 HD
ENDBRANCH  32  33
ENDBRANCH   2  28
TORSDOF 11
ENDMDL
MODEL 9
REMARK VINA RESULT:      -7.1      4.580      9.642
REMARK  11 active torsions:
REMARK  status: ('A' for Active; 'I' for Inactive)
REMARK    1  A    between atoms: C_2  and  C_3 
REMARK    2  A    between atoms: C_3  and  N_4 
REMARK    3  A    between atoms: N_4  and  C_6 
REMARK    4  A    between atoms: N_4  and  C_30 
REMARK    5  A    between atoms: C_6  and  C_7 
REMARK    6  A    between atoms: N_8  and  C_9 
REMARK    7  A    between atoms: C_13  and  N_14 
REMARK    8  A    between atoms: C_17  and  C_18 
REMARK       I    between atoms: C_18  and  N_19 
REMARK    9  A    between atoms: N_19  and  N_20 
REMARK   10  A    between atoms: C_21  and  C_22 
REMARK   11  A    between atoms: C_30  and  C_31 
ROOT
HETATM    1  C   UNL     1      43.237  -9.675   8.980  1.00  0.00     0.096 A 
HETATM    2  N   UNL     1      43.486  -9.242  10.279  1.00  0.00    -0.215 N 
HETATM    3  N   UNL     1      44.449 -10.030  10.825  1.00  0.00     0.012 NA
HETATM    4  N   UNL     1      44.882 -10.886   9.915  1.00  0.00    -0.152 NA
HETATM    5  C   UNL     1      44.159 -10.695   8.776  1.00  0.00     0.170 A 
ENDROOT
BRANCH   5   6
HETATM    6  C   UNL     1      44.377 -11.439   7.542  1.00  0.00     0.293 C 
HETATM    7  N   UNL     1      43.667 -12.620   7.459  1.00  0.00    -0.242 N 
HETATM    8  H   UNL     1      43.040 -12.902   8.209  1.00  0.00     0.192 HD
HETATM    9  O   UNL     1      45.182 -11.028   6.710  1.00  0.00    -0.264 OA
BRANCH   7  10
HETATM   10  N   UNL     1      43.898 -13.454   6.408  1.00  0.00    -0.184 NA
HETATM   11  C   UNL     1      42.873 -14.095   5.945  1.00  0.00     0.150 C 
BRANCH  11  12
HETATM   12  C   UNL     1      43.012 -15.043   4.820  1.00  0.00    -0.016 A 
HETATM   13  C   UNL     1      43.450 -16.343   5.079  1.00  0.00     0.032 A 
HETATM   14  C   UNL     1      43.598 -17.234   4.017  1.00  0.00     0.011 A 
HETATM   15 BR   UNL     1      44.198 -18.996   4.353  1.00  0.00    -0.051 Br
HETATM   16  C   UNL     1      43.312 -16.841   2.709  1.00  0.00     0.019 A 
HETATM   17  C   UNL     1      42.872 -15.541   2.456  1.00  0.00     0.002 A 
HETATM   18  C   UNL     1      42.722 -14.641   3.511  1.00  0.00     0.013 A 
ENDBRANCH  11  12
ENDBRANCH   7  10
ENDBRANCH   5   6
BRANCH   1  19
HETATM   19  C   UNL     1      42.151  -9.186   8.091  1.00  0.00     0.296 C 
BRANCH  19  20
HETATM   20  N   UNL     1      40.985 -10.142   7.862  1.00  0.00    -0.066 N 
HETATM   21  H   UNL     1      41.189 -10.981   8.419  1.00  0.00     0.280 HD
BRANCH  20  22
HETATM   22  C   UNL     1      40.922 -10.548   6.391  1.00  0.00     0.235 C 
BRANCH  22  23
HETATM   23  C   UNL     1      41.856  -9.713   5.517  1.00  0.00     0.023 C 
HETATM   24  C   UNL     1      41.255  -9.349   4.167  1.00  0.00     0.007 C 
ENDBRANCH  22  23
ENDBRANCH  20  22
BRANCH  20  25
HETATM   25  C   UNL     1      39.657  -9.558   8.323  1.00  0.00     0.235 C 
BRANCH  25  26
HETATM   26  C   UNL     1      39.543  -9.454   9.844  1.00  0.00     0.023 C 
HETATM   27  C   UNL     1      39.189  -8.062  10.342  1.00  0.00     0.007 C 
ENDBRANCH  25  26
ENDBRANCH  20  25
ENDBRANCH  19  20
ENDBRANCH   1  19
BRANCH   2  28
HETATM   28  C   UNL     1      42.925  -8.142  10.970  1.00  0.00     0.225 A 
HETATM   29  N   UNL     1      42.924  -6.933  10.404  1.00  0.00    -0.081 NA
HETATM   30  O   UNL     1      42.318  -6.118  11.366  1.00  0.00    -0.103 OA
HETATM   31  N   UNL     1      41.992  -6.844  12.503  1.00  0.00    -0.083 NA
HETATM   32  C   UNL     1      42.370  -8.097  12.261  1.00  0.00     0.201 A 
BRANCH  32  33
HETATM   33  N   UNL     1      42.224  -9.117  13.119  1.00  0.00    -0.379 N 
HETATM   34  H   UNL     1      42.342 -10.077  12.804  1.00  0.00     0.158 HD
HETATM   35  H   UNL     1      41.871  -9.019  14.070  1.00  0.00     0.158 HD
ENDBRANCH  32  33
ENDBRANCH   2  28
TORSDOF 11
ENDMDL
MODEL 10
REMARK VINA RESULT:      -6.9      2.848      4.921
REMARK  11 active torsions:
REMARK  status: ('A' for Active; 'I' for Inactive)
REMARK    1  A    between atoms: C_2  and  C_3 
REMARK    2  A    between atoms: C_3  and  N_4 
REMARK    3  A    between atoms: N_4  and  C_6 
REMARK    4  A    between atoms: N_4  and  C_30 
REMARK    5  A    between atoms: C_6  and  C_7 
REMARK    6  A    between atoms: N_8  and  C_9 
REMARK    7  A    between atoms: C_13  and  N_14 
REMARK    8  A    between atoms: C_17  and  C_18 
REMARK       I    between atoms: C_18  and  N_19 
REMARK    9  A    between atoms: N_19  and  N_20 
REMARK   10  A    between atoms: C_21  and  C_22 
REMARK   11  A    between atoms: C_30  and  C_31 
ROOT
HETATM    1  C   UNL     1      40.880 -13.548   5.068  1.00  0.00     0.096 A 
HETATM    2  N   UNL     1      40.703 -14.019   3.770  1.00  0.00    -0.215 N 
HETATM    3  N   UNL     1      39.771 -13.248   3.149  1.00  0.00     0.012 NA
HETATM    4  N   UNL     1      39.409 -12.264   3.954  1.00  0.00    -0.152 NA
HETATM    5  C   UNL     1      40.069 -12.421   5.137  1.00  0.00     0.170 A 
ENDROOT
BRANCH   5   6
HETATM    6  C   UNL     1      39.945 -11.503   6.262  1.00  0.00     0.293 C 
HETATM    7  N   UNL     1      40.955 -10.565   6.343  1.00  0.00    -0.242 N 
HETATM    8  H   UNL     1      41.694 -10.538   5.645  1.00  0.00     0.192 HD
HETATM    9  O   UNL     1      39.030 -11.640   7.071  1.00  0.00    -0.264 OA
BRANCH   7  10
HETATM   10  N   UNL     1      41.006  -9.745   7.428  1.00  0.00    -0.184 NA
HETATM   11  C   UNL     1      42.174  -9.551   7.950  1.00  0.00     0.150 C 
BRANCH  11  12
HETATM   12  C   UNL     1      42.344  -8.697   9.144  1.00  0.00    -0.016 A 
HETATM   13  C   UNL     1      42.243  -9.276  10.411  1.00  0.00     0.032 A 
HETATM   14  C   UNL     1      42.385  -8.468  11.539  1.00  0.00     0.011 A 
HETATM   15 BR   UNL     1      42.243  -9.238  13.261  1.00  0.00    -0.051 Br
HETATM   16  C   UNL     1      42.628  -7.100  11.413  1.00  0.00     0.019 A 
HETATM   17  C   UNL     1      42.730  -6.528  10.145  1.00  0.00     0.002 A 
HETATM   18  C   UNL     1      42.587  -7.325   9.009  1.00  0.00     0.013 A 
ENDBRANCH  11  12
ENDBRANCH   7  10
ENDBRANCH   5   6
BRANCH   1  19
HETATM   19  C   UNL     1      41.690 -14.200   6.129  1.00  0.00     0.296 C 
BRANCH  19  20
HETATM   20  N   UNL     1      43.197 -13.969   6.066  1.00  0.00    -0.066 N 
HETATM   21  H   UNL     1      43.410 -13.741   5.087  1.00  0.00     0.280 HD
BRANCH  20  22
HETATM   22  C   UNL     1      43.940 -15.252   6.431  1.00  0.00     0.235 C 
BRANCH  22  23
HETATM   23  C   UNL     1      43.266 -16.497   5.857  1.00  0.00     0.023 C 
HETATM   24  C   UNL     1      44.224 -17.408   5.103  1.00  0.00     0.007 C 
ENDBRANCH  22  23
ENDBRANCH  20  22
BRANCH  20  25
HETATM   25  C   UNL     1      43.643 -12.810   6.947  1.00  0.00     0.235 C 
BRANCH  25  26
HETATM   26  C   UNL     1      44.830 -12.039   6.369  1.00  0.00     0.023 C 
HETATM   27  C   UNL     1      45.524 -11.132   7.374  1.00  0.00     0.007 C 
ENDBRANCH  25  26
ENDBRANCH  20  25
ENDBRANCH  19  20
ENDBRANCH   1  19
BRANCH   2  28
HETATM   28  C   UNL     1      41.378 -15.072   3.109  1.00  0.00     0.225 A 
HETATM   29  N   UNL     1      40.851 -16.299   3.106  1.00  0.00    -0.081 NA
HETATM   30  O   UNL     1      41.784 -17.056   2.388  1.00  0.00    -0.103 OA
HETATM   31  N   UNL     1      42.865 -16.279   1.997  1.00  0.00    -0.083 NA
HETATM   32  C   UNL     1      42.616 -15.050   2.445  1.00  0.00     0.201 A 
BRANCH  32  33
HETATM   33  N   UNL     1      43.427 -13.997   2.269  1.00  0.00    -0.379 N 
HETATM   34  H   UNL     1      43.432 -13.233   2.942  1.00  0.00     0.158 HD
HETATM   35  H   UNL     1      43.971 -13.828   1.426  1.00  0.00     0.158 HD
ENDBRANCH  32  33
ENDBRANCH   2  28
TORSDOF 11
ENDMDL
