MODEL 1
REMARK VINA RESULT:      -8.2      0.000      0.000
REMARK  7 active torsions:
REMARK  status: ('A' for Active; 'I' for Inactive)
REMARK    1  A    between atoms: C_4  and  C_5 
REMARK    2  A    between atoms: C_5  and  N_6 
REMARK       I    between atoms: N_6  and  C_7 
REMARK       I    between atoms: C_7  and  N_8 
REMARK    3  A    between atoms: N_8  and  C_9 
REMARK    4  A    between atoms: C_9  and  C_10 
REMARK    5  A    between atoms: C_12  and  O_13 
REMARK    6  A    between atoms: O_13  and  C_14 
REMARK    7  A    between atoms: C_23  and  O_24 
ROOT
HETATM    1  N   UNL     1      41.313 -14.189   4.955  1.00  0.00    -0.335 N 
HETATM    2  C   UNL     1      40.649 -13.440   5.876  1.00  0.00     0.316 C 
HETATM    3  N   UNL     1      41.154 -12.202   6.113  1.00  0.00    -0.339 N 
HETATM    4  O   UNL     1      39.635 -13.794   6.465  1.00  0.00    -0.247 OA
HETATM    5  H   UNL     1      42.276 -13.955   4.795  1.00  0.00     0.165 HD
HETATM    6  H   UNL     1      40.600 -11.682   6.781  1.00  0.00     0.164 HD
ENDROOT
BRANCH   1   7
HETATM    7  C   UNL     1      40.923 -15.563   4.654  1.00  0.00     0.118 C 
HETATM    8  C   UNL     1      40.328 -15.615   3.245  1.00  0.00     0.037 C 
BRANCH   7   9
HETATM    9  C   UNL     1      42.076 -16.558   4.772  1.00  0.00    -0.002 A 
HETATM   10  C   UNL     1      42.584 -17.233   3.643  1.00  0.00     0.018 A 
HETATM   11  C   UNL     1      43.621 -18.168   3.755  1.00  0.00    -0.061 A 
HETATM   12  C   UNL     1      44.154 -18.879   2.547  1.00  0.00     0.048 C 
HETATM   13  C   UNL     1      44.151 -18.441   5.018  1.00  0.00     0.009 A 
HETATM   14  C   UNL     1      43.653 -17.795   6.151  1.00  0.00     0.038 A 
HETATM   15  C   UNL     1      42.620 -16.858   6.040  1.00  0.00     0.076 A 
BRANCH  15  16
HETATM   16  O   UNL     1      42.054 -16.208   7.107  1.00  0.00    -0.355 OA
HETATM   17  C   UNL     1      42.919 -15.468   7.959  1.00  0.00     0.210 C 
ENDBRANCH  15  16
ENDBRANCH   7   9
ENDBRANCH   1   7
BRANCH   3  18
HETATM   18  C   UNL     1      42.232 -11.512   5.438  1.00  0.00     0.163 C 
BRANCH  18  19
HETATM   19  C   UNL     1      43.461 -11.376   6.298  1.00  0.00    -0.035 A 
HETATM   20  C   UNL     1      43.352 -11.352   7.691  1.00  0.00     0.066 A 
HETATM   21  C   UNL     1      44.508 -11.233   8.447  1.00  0.00     0.164 A 
HETATM   22  N   UNL     1      45.747 -11.150   7.924  1.00  0.00    -0.237 NA
HETATM   23  C   UNL     1      45.836 -11.196   6.579  1.00  0.00     0.120 A 
HETATM   24  C   UNL     1      44.742 -11.310   5.737  1.00  0.00     0.028 A 
BRANCH  21  25
HETATM   25  O   UNL     1      44.348 -11.193   9.819  1.00  0.00    -0.329 OA
BRANCH  25  26
HETATM   26  C   UNL     1      43.558 -10.098  10.331  1.00  0.00     0.130 C 
HETATM   27  C   UNL     1      43.141 -10.174  11.825  1.00  0.00     0.032 C 
HETATM   28  C   UNL     1      43.422  -8.663  11.917  1.00  0.00     0.005 C 
HETATM   29  C   UNL     1      44.373  -8.836  10.719  1.00  0.00     0.032 C 
ENDBRANCH  25  26
ENDBRANCH  21  25
ENDBRANCH  18  19
ENDBRANCH   3  18
TORSDOF 7
ENDMDL
MODEL 2
REMARK VINA RESULT:      -7.9      2.106      2.958
REMARK  7 active torsions:
REMARK  status: ('A' for Active; 'I' for Inactive)
REMARK    1  A    between atoms: C_4  and  C_5 
REMARK    2  A    between atoms: C_5  and  N_6 
REMARK       I    between atoms: N_6  and  C_7 
REMARK       I    between atoms: C_7  and  N_8 
REMARK    3  A    between atoms: N_8  and  C_9 
REMARK    4  A    between atoms: C_9  and  C_10 
REMARK    5  A    between atoms: C_12  and  O_13 
REMARK    6  A    between atoms: O_13  and  C_14 
REMARK    7  A    between atoms: C_23  and  O_24 
ROOT
HETATM    1  N   UNL     1      41.629 -14.912   3.639  1.00  0.00    -0.335 N 
HETATM    2  C   UNL     1      40.405 -14.354   3.439  1.00  0.00     0.316 C 
HETATM    3  N   UNL     1      39.818 -13.799   4.530  1.00  0.00    -0.339 N 
HETATM    4  O   UNL     1      39.831 -14.299   2.358  1.00  0.00    -0.247 OA
HETATM    5  H   UNL     1      41.846 -15.197   4.577  1.00  0.00     0.165 HD
HETATM    6  H   UNL     1      38.927 -13.373   4.311  1.00  0.00     0.164 HD
ENDROOT
BRANCH   1   7
HETATM    7  C   UNL     1      42.343 -15.606   2.571  1.00  0.00     0.118 C 
HETATM    8  C   UNL     1      43.380 -14.657   1.966  1.00  0.00     0.037 C 
BRANCH   7   9
HETATM    9  C   UNL     1      43.021 -16.894   3.037  1.00  0.00    -0.002 A 
HETATM   10  C   UNL     1      43.012 -18.059   2.241  1.00  0.00     0.018 A 
HETATM   11  C   UNL     1      43.606 -19.248   2.680  1.00  0.00    -0.061 A 
HETATM   12  C   UNL     1      43.591 -20.481   1.826  1.00  0.00     0.048 C 
HETATM   13  C   UNL     1      44.210 -19.278   3.939  1.00  0.00     0.009 A 
HETATM   14  C   UNL     1      44.218 -18.140   4.748  1.00  0.00     0.038 A 
HETATM   15  C   UNL     1      43.628 -16.950   4.310  1.00  0.00     0.076 A 
BRANCH  15  16
HETATM   16  O   UNL     1      43.565 -15.802   5.058  1.00  0.00    -0.355 OA
HETATM   17  C   UNL     1      43.614 -15.936   6.472  1.00  0.00     0.210 C 
ENDBRANCH  15  16
ENDBRANCH   7   9
ENDBRANCH   1   7
BRANCH   3  18
HETATM   18  C   UNL     1      40.358 -13.605   5.858  1.00  0.00     0.163 C 
BRANCH  18  19
HETATM   19  C   UNL     1      41.093 -12.298   6.000  1.00  0.00    -0.035 A 
HETATM   20  C   UNL     1      42.490 -12.268   6.005  1.00  0.00     0.066 A 
HETATM   21  C   UNL     1      43.128 -11.044   6.131  1.00  0.00     0.164 A 
HETATM   22  N   UNL     1      42.486  -9.865   6.240  1.00  0.00    -0.237 NA
HETATM   23  C   UNL     1      41.138  -9.910   6.213  1.00  0.00     0.120 A 
HETATM   24  C   UNL     1      40.408 -11.081   6.093  1.00  0.00     0.028 A 
BRANCH  21  25
HETATM   25  O   UNL     1      44.510 -11.067   6.150  1.00  0.00    -0.329 OA
BRANCH  25  26
HETATM   26  C   UNL     1      45.122 -11.168   7.454  1.00  0.00     0.130 C 
HETATM   27  C   UNL     1      46.013  -9.979   7.904  1.00  0.00     0.032 C 
HETATM   28  C   UNL     1      45.408 -10.136   9.310  1.00  0.00     0.005 C 
HETATM   29  C   UNL     1      44.191 -10.796   8.638  1.00  0.00     0.032 C 
ENDBRANCH  25  26
ENDBRANCH  21  25
ENDBRANCH  18  19
ENDBRANCH   3  18
TORSDOF 7
ENDMDL
MODEL 3
REMARK VINA RESULT:      -7.8      1.794      2.804
REMARK  7 active torsions:
REMARK  status: ('A' for Active; 'I' for Inactive)
REMARK    1  A    between atoms: C_4  and  C_5 
REMARK    2  A    between atoms: C_5  and  N_6 
REMARK       I    between atoms: N_6  and  C_7 
REMARK       I    between atoms: C_7  and  N_8 
REMARK    3  A    between atoms: N_8  and  C_9 
REMARK    4  A    between atoms: C_9  and  C_10 
REMARK    5  A    between atoms: C_12  and  O_13 
REMARK    6  A    between atoms: O_13  and  C_14 
REMARK    7  A    between atoms: C_23  and  O_24 
ROOT
HETATM    1  N   UNL     1      42.325 -14.624   6.347  1.00  0.00    -0.335 N 
HETATM    2  C   UNL     1      43.055 -14.451   7.481  1.00  0.00     0.316 C 
HETATM    3  N   UNL     1      43.646 -13.238   7.630  1.00  0.00    -0.339 N 
HETATM    4  O   UNL     1      43.181 -15.290   8.365  1.00  0.00    -0.247 OA
HETATM    5  H   UNL     1      42.556 -14.033   5.568  1.00  0.00     0.165 HD
HETATM    6  H   UNL     1      44.146 -13.159   8.507  1.00  0.00     0.164 HD
ENDROOT
BRANCH   1   7
HETATM    7  C   UNL     1      41.694 -15.900   6.024  1.00  0.00     0.118 C 
HETATM    8  C   UNL     1      40.219 -15.843   6.426  1.00  0.00     0.037 C 
BRANCH   7   9
HETATM    9  C   UNL     1      41.820 -16.280   4.549  1.00  0.00    -0.002 A 
HETATM   10  C   UNL     1      40.834 -15.916   3.609  1.00  0.00     0.018 A 
HETATM   11  C   UNL     1      40.934 -16.290   2.263  1.00  0.00    -0.061 A 
HETATM   12  C   UNL     1      39.879 -15.896   1.271  1.00  0.00     0.048 C 
HETATM   13  C   UNL     1      42.031 -17.050   1.852  1.00  0.00     0.009 A 
HETATM   14  C   UNL     1      43.011 -17.433   2.769  1.00  0.00     0.038 A 
HETATM   15  C   UNL     1      42.915 -17.057   4.113  1.00  0.00     0.076 A 
BRANCH  15  16
HETATM   16  O   UNL     1      43.816 -17.422   5.081  1.00  0.00    -0.355 OA
HETATM   17  C   UNL     1      43.933 -18.807   5.380  1.00  0.00     0.210 C 
ENDBRANCH  15  16
ENDBRANCH   7   9
ENDBRANCH   1   7
BRANCH   3  18
HETATM   18  C   UNL     1      43.515 -12.052   6.811  1.00  0.00     0.163 C 
BRANCH  18  19
HETATM   19  C   UNL     1      44.303 -10.887   7.349  1.00  0.00    -0.035 A 
HETATM   20  C   UNL     1      43.666  -9.876   8.074  1.00  0.00     0.066 A 
HETATM   21  C   UNL     1      44.427  -8.824   8.558  1.00  0.00     0.164 A 
HETATM   22  N   UNL     1      45.759  -8.712   8.385  1.00  0.00    -0.237 NA
HETATM   23  C   UNL     1      46.361  -9.707   7.701  1.00  0.00     0.120 A 
HETATM   24  C   UNL     1      45.689 -10.798   7.175  1.00  0.00     0.028 A 
BRANCH  21  25
HETATM   25  O   UNL     1      43.750  -7.839   9.252  1.00  0.00    -0.329 OA
BRANCH  25  26
HETATM   26  C   UNL     1      43.016  -8.276  10.416  1.00  0.00     0.130 C 
HETATM   27  C   UNL     1      43.845  -8.877  11.582  1.00  0.00     0.032 C 
HETATM   28  C   UNL     1      42.916  -8.124  12.551  1.00  0.00     0.005 C 
HETATM   29  C   UNL     1      42.626  -7.142  11.401  1.00  0.00     0.032 C 
ENDBRANCH  25  26
ENDBRANCH  21  25
ENDBRANCH  18  19
ENDBRANCH   3  18
TORSDOF 7
ENDMDL
MODEL 4
REMARK VINA RESULT:      -7.8      3.820      7.415
REMARK  7 active torsions:
REMARK  status: ('A' for Active; 'I' for Inactive)
REMARK    1  A    between atoms: C_4  and  C_5 
REMARK    2  A    between atoms: C_5  and  N_6 
REMARK       I    between atoms: N_6  and  C_7 
REMARK       I    between atoms: C_7  and  N_8 
REMARK    3  A    between atoms: N_8  and  C_9 
REMARK    4  A    between atoms: C_9  and  C_10 
REMARK    5  A    between atoms: C_12  and  O_13 
REMARK    6  A    between atoms: O_13  and  C_14 
REMARK    7  A    between atoms: C_23  and  O_24 
ROOT
HETATM    1  N   UNL     1      42.446 -15.029   5.293  1.00  0.00    -0.335 N 
HETATM    2  C   UNL     1      42.565 -13.674   5.321  1.00  0.00     0.316 C 
HETATM    3  N   UNL     1      41.507 -12.974   4.839  1.00  0.00    -0.339 N 
HETATM    4  O   UNL     1      43.529 -13.067   5.772  1.00  0.00    -0.247 OA
HETATM    5  H   UNL     1      41.801 -15.410   4.624  1.00  0.00     0.165 HD
HETATM    6  H   UNL     1      41.642 -11.974   4.917  1.00  0.00     0.164 HD
ENDROOT
BRANCH   1   7
HETATM    7  C   UNL     1      43.534 -15.907   5.714  1.00  0.00     0.118 C 
HETATM    8  C   UNL     1      43.346 -16.261   7.191  1.00  0.00     0.037 C 
BRANCH   7   9
HETATM    9  C   UNL     1      43.639 -17.182   4.879  1.00  0.00    -0.002 A 
HETATM   10  C   UNL     1      43.859 -18.439   5.480  1.00  0.00     0.018 A 
HETATM   11  C   UNL     1      43.985 -19.604   4.713  1.00  0.00    -0.061 A 
HETATM   12  C   UNL     1      44.218 -20.936   5.364  1.00  0.00     0.048 C 
HETATM   13  C   UNL     1      43.902 -19.510   3.322  1.00  0.00     0.009 A 
HETATM   14  C   UNL     1      43.700 -18.273   2.707  1.00  0.00     0.038 A 
HETATM   15  C   UNL     1      43.569 -17.110   3.472  1.00  0.00     0.076 A 
BRANCH  15  16
HETATM   16  O   UNL     1      43.403 -15.855   2.941  1.00  0.00    -0.355 OA
HETATM   17  C   UNL     1      43.570 -15.709   1.537  1.00  0.00     0.210 C 
ENDBRANCH  15  16
ENDBRANCH   7   9
ENDBRANCH   1   7
BRANCH   3  18
HETATM   18  C   UNL     1      40.214 -13.456   4.406  1.00  0.00     0.163 C 
BRANCH  18  19
HETATM   19  C   UNL     1      40.229 -13.960   2.987  1.00  0.00    -0.035 A 
HETATM   20  C   UNL     1      40.616 -13.119   1.940  1.00  0.00     0.066 A 
HETATM   21  C   UNL     1      40.623 -13.623   0.649  1.00  0.00     0.164 A 
HETATM   22  N   UNL     1      40.288 -14.889   0.330  1.00  0.00    -0.237 NA
HETATM   23  C   UNL     1      39.936 -15.693   1.355  1.00  0.00     0.120 A 
HETATM   24  C   UNL     1      39.895 -15.284   2.678  1.00  0.00     0.028 A 
BRANCH  21  25
HETATM   25  O   UNL     1      40.994 -12.748  -0.354  1.00  0.00    -0.329 OA
BRANCH  25  26
HETATM   26  C   UNL     1      40.022 -12.537  -1.401  1.00  0.00     0.130 C 
HETATM   27  C   UNL     1      39.448 -11.102  -1.545  1.00  0.00     0.032 C 
HETATM   28  C   UNL     1      39.527 -11.289  -3.070  1.00  0.00     0.005 C 
HETATM   29  C   UNL     1      40.625 -12.337  -2.816  1.00  0.00     0.032 C 
ENDBRANCH  25  26
ENDBRANCH  21  25
ENDBRANCH  18  19
ENDBRANCH   3  18
TORSDOF 7
ENDMDL
MODEL 5
REMARK VINA RESULT:      -7.4      2.013      8.383
REMARK  7 active torsions:
REMARK  status: ('A' for Active; 'I' for Inactive)
REMARK    1  A    between atoms: C_4  and  C_5 
REMARK    2  A    between atoms: C_5  and  N_6 
REMARK       I    between atoms: N_6  and  C_7 
REMARK       I    between atoms: C_7  and  N_8 
REMARK    3  A    between atoms: N_8  and  C_9 
REMARK    4  A    between atoms: C_9  and  C_10 
REMARK    5  A    between atoms: C_12  and  O_13 
REMARK    6  A    between atoms: O_13  and  C_14 
REMARK    7  A    between atoms: C_23  and  O_24 
ROOT
HETATM    1  N   UNL     1      41.981 -10.973   7.035  1.00  0.00    -0.335 N 
HETATM    2  C   UNL     1      42.212 -11.313   5.739  1.00  0.00     0.316 C 
HETATM    3  N   UNL     1      42.004 -12.616   5.419  1.00  0.00    -0.339 N 
HETATM    4  O   UNL     1      42.557 -10.530   4.862  1.00  0.00    -0.247 OA
HETATM    5  H   UNL     1      42.034 -11.714   7.711  1.00  0.00     0.165 HD
HETATM    6  H   UNL     1      42.161 -12.800   4.436  1.00  0.00     0.164 HD
ENDROOT
BRANCH   1   7
HETATM    7  C   UNL     1      42.231  -9.624   7.534  1.00  0.00     0.118 C 
HETATM    8  C   UNL     1      40.900  -8.987   7.939  1.00  0.00     0.037 C 
BRANCH   7   9
HETATM    9  C   UNL     1      43.208  -9.587   8.709  1.00  0.00    -0.002 A 
HETATM   10  C   UNL     1      42.789  -9.210  10.002  1.00  0.00     0.018 A 
HETATM   11  C   UNL     1      43.689  -9.146  11.072  1.00  0.00    -0.061 A 
HETATM   12  C   UNL     1      43.232  -8.745  12.444  1.00  0.00     0.048 C 
HETATM   13  C   UNL     1      45.033  -9.452  10.845  1.00  0.00     0.009 A 
HETATM   14  C   UNL     1      45.471  -9.814   9.570  1.00  0.00     0.038 A 
HETATM   15  C   UNL     1      44.572  -9.882   8.501  1.00  0.00     0.076 A 
BRANCH  15  16
HETATM   16  O   UNL     1      44.930 -10.195   7.214  1.00  0.00    -0.355 OA
HETATM   17  C   UNL     1      46.004 -11.109   7.035  1.00  0.00     0.210 C 
ENDBRANCH  15  16
ENDBRANCH   7   9
ENDBRANCH   1   7
BRANCH   3  18
HETATM   18  C   UNL     1      41.455 -13.679   6.231  1.00  0.00     0.163 C 
BRANCH  18  19
HETATM   19  C   UNL     1      42.374 -14.868   6.330  1.00  0.00    -0.035 A 
HETATM   20  C   UNL     1      42.857 -15.487   5.173  1.00  0.00     0.066 A 
HETATM   21  C   UNL     1      43.707 -16.574   5.307  1.00  0.00     0.164 A 
HETATM   22  N   UNL     1      44.112 -17.076   6.490  1.00  0.00    -0.237 NA
HETATM   23  C   UNL     1      43.652 -16.454   7.595  1.00  0.00     0.120 A 
HETATM   24  C   UNL     1      42.799 -15.363   7.568  1.00  0.00     0.028 A 
BRANCH  21  25
HETATM   25  O   UNL     1      44.143 -17.165   4.136  1.00  0.00    -0.329 OA
BRANCH  25  26
HETATM   26  C   UNL     1      43.377 -18.299   3.677  1.00  0.00     0.130 C 
HETATM   27  C   UNL     1      43.151 -18.420   2.146  1.00  0.00     0.032 C 
HETATM   28  C   UNL     1      43.377 -19.935   2.292  1.00  0.00     0.005 C 
HETATM   29  C   UNL     1      44.180 -19.623   3.568  1.00  0.00     0.032 C 
ENDBRANCH  25  26
ENDBRANCH  21  25
ENDBRANCH  18  19
ENDBRANCH   3  18
TORSDOF 7
ENDMDL
MODEL 6
REMARK VINA RESULT:      -7.4      4.891      7.959
REMARK  7 active torsions:
REMARK  status: ('A' for Active; 'I' for Inactive)
REMARK    1  A    between atoms: C_4  and  C_5 
REMARK    2  A    between atoms: C_5  and  N_6 
REMARK       I    between atoms: N_6  and  C_7 
REMARK       I    between atoms: C_7  and  N_8 
REMARK    3  A    between atoms: N_8  and  C_9 
REMARK    4  A    between atoms: C_9  and  C_10 
REMARK    5  A    between atoms: C_12  and  O_13 
REMARK    6  A    between atoms: O_13  and  C_14 
REMARK    7  A    between atoms: C_23  and  O_24 
ROOT
HETATM    1  N   UNL     1      41.534 -15.527   2.607  1.00  0.00    -0.335 N 
HETATM    2  C   UNL     1      42.214 -14.620   1.856  1.00  0.00     0.316 C 
HETATM    3  N   UNL     1      41.694 -14.352   0.631  1.00  0.00    -0.339 N 
HETATM    4  O   UNL     1      43.221 -14.026   2.221  1.00  0.00    -0.247 OA
HETATM    5  H   UNL     1      40.952 -16.177   2.109  1.00  0.00     0.165 HD
HETATM    6  H   UNL     1      42.224 -13.646   0.135  1.00  0.00     0.164 HD
ENDROOT
BRANCH   1   7
HETATM    7  C   UNL     1      42.018 -15.964   3.913  1.00  0.00     0.118 C 
HETATM    8  C   UNL     1      40.827 -16.108   4.863  1.00  0.00     0.037 C 
BRANCH   7   9
HETATM    9  C   UNL     1      42.807 -17.271   3.859  1.00  0.00    -0.002 A 
HETATM   10  C   UNL     1      42.753 -18.117   2.732  1.00  0.00     0.018 A 
HETATM   11  C   UNL     1      43.451 -19.330   2.695  1.00  0.00    -0.061 A 
HETATM   12  C   UNL     1      43.387 -20.222   1.489  1.00  0.00     0.048 C 
HETATM   13  C   UNL     1      44.207 -19.711   3.806  1.00  0.00     0.009 A 
HETATM   14  C   UNL     1      44.262 -18.895   4.938  1.00  0.00     0.038 A 
HETATM   15  C   UNL     1      43.568 -17.681   4.975  1.00  0.00     0.076 A 
BRANCH  15  16
HETATM   16  O   UNL     1      43.544 -16.842   6.061  1.00  0.00    -0.355 OA
HETATM   17  C   UNL     1      44.774 -16.252   6.461  1.00  0.00     0.210 C 
ENDBRANCH  15  16
ENDBRANCH   7   9
ENDBRANCH   1   7
BRANCH   3  18
HETATM   18  C   UNL     1      40.449 -14.802   0.049  1.00  0.00     0.163 C 
BRANCH  18  19
HETATM   19  C   UNL     1      39.938 -13.872  -1.020  1.00  0.00    -0.035 A 
HETATM   20  C   UNL     1      40.186 -12.499  -0.941  1.00  0.00     0.066 A 
HETATM   21  C   UNL     1      39.705 -11.677  -1.949  1.00  0.00     0.164 A 
HETATM   22  N   UNL     1      39.016 -12.119  -3.019  1.00  0.00    -0.237 NA
HETATM   23  C   UNL     1      38.804 -13.449  -3.090  1.00  0.00     0.120 A 
HETATM   24  C   UNL     1      39.240 -14.352  -2.134  1.00  0.00     0.028 A 
BRANCH  21  25
HETATM   25  O   UNL     1      39.957 -10.325  -1.817  1.00  0.00    -0.329 OA
BRANCH  25  26
HETATM   26  C   UNL     1      41.347  -9.935  -1.852  1.00  0.00     0.130 C 
HETATM   27  C   UNL     1      41.688  -8.622  -2.606  1.00  0.00     0.032 C 
HETATM   28  C   UNL     1      42.693  -8.309  -1.484  1.00  0.00     0.005 C 
HETATM   29  C   UNL     1      41.854  -9.221  -0.571  1.00  0.00     0.032 C 
ENDBRANCH  25  26
ENDBRANCH  21  25
ENDBRANCH  18  19
ENDBRANCH   3  18
TORSDOF 7
ENDMDL
MODEL 7
REMARK VINA RESULT:      -7.3      4.689      7.934
REMARK  7 active torsions:
REMARK  status: ('A' for Active; 'I' for Inactive)
REMARK    1  A    between atoms: C_4  and  C_5 
REMARK    2  A    between atoms: C_5  and  N_6 
REMARK       I    between atoms: N_6  and  C_7 
REMARK       I    between atoms: C_7  and  N_8 
REMARK    3  A    between atoms: N_8  and  C_9 
REMARK    4  A    between atoms: C_9  and  C_10 
REMARK    5  A    between atoms: C_12  and  O_13 
REMARK    6  A    between atoms: O_13  and  C_14 
REMARK    7  A    between atoms: C_23  and  O_24 
ROOT
HETATM    1  N   UNL     1      40.880 -13.705   2.350  1.00  0.00    -0.335 N 
HETATM    2  C   UNL     1      40.090 -12.681   2.769  1.00  0.00     0.316 C 
HETATM    3  N   UNL     1      40.572 -11.430   2.554  1.00  0.00    -0.339 N 
HETATM    4  O   UNL     1      38.987 -12.816   3.285  1.00  0.00    -0.247 OA
HETATM    5  H   UNL     1      41.861 -13.509   2.260  1.00  0.00     0.165 HD
HETATM    6  H   UNL     1      39.926 -10.712   2.856  1.00  0.00     0.164 HD
ENDROOT
BRANCH   1   7
HETATM    7  C   UNL     1      40.519 -15.101   2.580  1.00  0.00     0.118 C 
HETATM    8  C   UNL     1      39.965 -15.693   1.283  1.00  0.00     0.037 C 
BRANCH   7   9
HETATM    9  C   UNL     1      41.684 -15.950   3.088  1.00  0.00    -0.002 A 
HETATM   10  C   UNL     1      42.028 -17.171   2.470  1.00  0.00     0.018 A 
HETATM   11  C   UNL     1      43.076 -17.964   2.954  1.00  0.00    -0.061 A 
HETATM   12  C   UNL     1      43.434 -19.260   2.288  1.00  0.00     0.048 C 
HETATM   13  C   UNL     1      43.784 -17.537   4.079  1.00  0.00     0.009 A 
HETATM   14  C   UNL     1      43.450 -16.339   4.714  1.00  0.00     0.038 A 
HETATM   15  C   UNL     1      42.407 -15.543   4.230  1.00  0.00     0.076 A 
BRANCH  15  16
HETATM   16  O   UNL     1      41.996 -14.373   4.817  1.00  0.00    -0.355 OA
HETATM   17  C   UNL     1      42.999 -13.435   5.182  1.00  0.00     0.210 C 
ENDBRANCH  15  16
ENDBRANCH   7   9
ENDBRANCH   1   7
BRANCH   3  18
HETATM   18  C   UNL     1      41.757 -11.020   1.833  1.00  0.00     0.163 C 
BRANCH  18  19
HETATM   19  C   UNL     1      41.447 -10.509   0.451  1.00  0.00    -0.035 A 
HETATM   20  C   UNL     1      40.903 -11.361  -0.514  1.00  0.00     0.066 A 
HETATM   21  C   UNL     1      40.626 -10.850  -1.772  1.00  0.00     0.164 A 
HETATM   22  N   UNL     1      40.837  -9.569  -2.131  1.00  0.00    -0.237 NA
HETATM   23  C   UNL     1      41.343  -8.755  -1.181  1.00  0.00     0.120 A 
HETATM   24  C   UNL     1      41.656  -9.169   0.103  1.00  0.00     0.028 A 
BRANCH  21  25
HETATM   25  O   UNL     1      40.108 -11.736  -2.698  1.00  0.00    -0.329 OA
BRANCH  25  26
HETATM   26  C   UNL     1      39.463 -12.910  -2.158  1.00  0.00     0.130 C 
HETATM   27  C   UNL     1      38.191 -13.411  -2.892  1.00  0.00     0.032 C 
HETATM   28  C   UNL     1      38.699 -14.846  -2.666  1.00  0.00     0.005 C 
HETATM   29  C   UNL     1      40.117 -14.256  -2.569  1.00  0.00     0.032 C 
ENDBRANCH  25  26
ENDBRANCH  21  25
ENDBRANCH  18  19
ENDBRANCH   3  18
TORSDOF 7
ENDMDL
MODEL 8
REMARK VINA RESULT:      -7.2      3.523      6.291
REMARK  7 active torsions:
REMARK  status: ('A' for Active; 'I' for Inactive)
REMARK    1  A    between atoms: C_4  and  C_5 
REMARK    2  A    between atoms: C_5  and  N_6 
REMARK       I    between atoms: N_6  and  C_7 
REMARK       I    between atoms: C_7  and  N_8 
REMARK    3  A    between atoms: N_8  and  C_9 
REMARK    4  A    between atoms: C_9  and  C_10 
REMARK    5  A    between atoms: C_12  and  O_13 
REMARK    6  A    between atoms: O_13  and  C_14 
REMARK    7  A    between atoms: C_23  and  O_24 
ROOT
HETATM    1  N   UNL     1      42.694 -15.125   5.898  1.00  0.00    -0.335 N 
HETATM    2  C   UNL     1      42.852 -13.902   6.471  1.00  0.00     0.316 C 
HETATM    3  N   UNL     1      41.755 -13.102   6.481  1.00  0.00    -0.339 N 
HETATM    4  O   UNL     1      43.887 -13.503   6.992  1.00  0.00    -0.247 OA
HETATM    5  H   UNL     1      41.949 -15.216   5.231  1.00  0.00     0.165 HD
HETATM    6  H   UNL     1      41.926 -12.221   6.949  1.00  0.00     0.164 HD
ENDROOT
BRANCH   1   7
HETATM    7  C   UNL     1      43.807 -16.059   5.756  1.00  0.00     0.118 C 
HETATM    8  C   UNL     1      43.967 -16.846   7.058  1.00  0.00     0.037 C 
BRANCH   7   9
HETATM    9  C   UNL     1      43.642 -17.020   4.579  1.00  0.00    -0.002 A 
HETATM   10  C   UNL     1      43.829 -18.410   4.733  1.00  0.00     0.018 A 
HETATM   11  C   UNL     1      43.708 -19.287   3.649  1.00  0.00    -0.061 A 
HETATM   12  C   UNL     1      43.908 -20.764   3.825  1.00  0.00     0.048 C 
HETATM   13  C   UNL     1      43.407 -18.768   2.388  1.00  0.00     0.009 A 
HETATM   14  C   UNL     1      43.232 -17.394   2.212  1.00  0.00     0.038 A 
HETATM   15  C   UNL     1      43.349 -16.516   3.294  1.00  0.00     0.076 A 
BRANCH  15  16
HETATM   16  O   UNL     1      43.226 -15.153   3.196  1.00  0.00    -0.355 OA
HETATM   17  C   UNL     1      42.387 -14.642   2.168  1.00  0.00     0.210 C 
ENDBRANCH  15  16
ENDBRANCH   7   9
ENDBRANCH   1   7
BRANCH   3  18
HETATM   18  C   UNL     1      40.401 -13.406   6.075  1.00  0.00     0.163 C 
BRANCH  18  19
HETATM   19  C   UNL     1      39.720 -12.241   5.405  1.00  0.00    -0.035 A 
HETATM   20  C   UNL     1      39.740 -12.114   4.013  1.00  0.00     0.066 A 
HETATM   21  C   UNL     1      39.096 -11.031   3.435  1.00  0.00     0.164 A 
HETATM   22  N   UNL     1      38.435 -10.086   4.131  1.00  0.00    -0.237 NA
HETATM   23  C   UNL     1      38.408 -10.235   5.471  1.00  0.00     0.120 A 
HETATM   24  C   UNL     1      39.022 -11.280   6.144  1.00  0.00     0.028 A 
BRANCH  21  25
HETATM   25  O   UNL     1      39.160 -10.938   2.058  1.00  0.00    -0.329 OA
BRANCH  25  26
HETATM   26  C   UNL     1      39.985 -11.921   1.395  1.00  0.00     0.130 C 
HETATM   27  C   UNL     1      39.367 -12.640   0.166  1.00  0.00     0.032 C 
HETATM   28  C   UNL     1      40.744 -12.532  -0.513  1.00  0.00     0.005 C 
HETATM   29  C   UNL     1      41.029 -11.333   0.409  1.00  0.00     0.032 C 
ENDBRANCH  25  26
ENDBRANCH  21  25
ENDBRANCH  18  19
ENDBRANCH   3  18
TORSDOF 7
ENDMDL
MODEL 9
REMARK VINA RESULT:      -6.9      2.178      8.463
REMARK  7 active torsions:
REMARK  status: ('A' for Active; 'I' for Inactive)
REMARK    1  A    between atoms: C_4  and  C_5 
REMARK    2  A    between atoms: C_5  and  N_6 
REMARK       I    between atoms: N_6  and  C_7 
REMARK       I    between atoms: C_7  and  N_8 
REMARK    3  A    between atoms: N_8  and  C_9 
REMARK    4  A    between atoms: C_9  and  C_10 
REMARK    5  A    between atoms: C_12  and  O_13 
REMARK    6  A    between atoms: O_13  and  C_14 
REMARK    7  A    between atoms: C_23  and  O_24 
ROOT
HETATM    1  N   UNL     1      41.903  -9.890   6.580  1.00  0.00    -0.335 N 
HETATM    2  C   UNL     1      41.654  -9.865   5.243  1.00  0.00     0.316 C 
HETATM    3  N   UNL     1      41.210 -11.027   4.699  1.00  0.00    -0.339 N 
HETATM    4  O   UNL     1      41.773  -8.877   4.529  1.00  0.00    -0.247 OA
HETATM    5  H   UNL     1      42.095 -10.789   6.986  1.00  0.00     0.165 HD
HETATM    6  H   UNL     1      41.011 -10.936   3.711  1.00  0.00     0.164 HD
ENDROOT
BRANCH   1   7
HETATM    7  C   UNL     1      42.451  -8.734   7.283  1.00  0.00     0.118 C 
HETATM    8  C   UNL     1      41.300  -7.829   7.727  1.00  0.00     0.037 C 
BRANCH   7   9
HETATM    9  C   UNL     1      43.314  -9.112   8.487  1.00  0.00    -0.002 A 
HETATM   10  C   UNL     1      43.023  -8.631   9.780  1.00  0.00     0.018 A 
HETATM   11  C   UNL     1      43.831  -8.953  10.878  1.00  0.00    -0.061 A 
HETATM   12  C   UNL     1      43.511  -8.437  12.250  1.00  0.00     0.048 C 
HETATM   13  C   UNL     1      44.954  -9.758  10.678  1.00  0.00     0.009 A 
HETATM   14  C   UNL     1      45.268 -10.233   9.403  1.00  0.00     0.038 A 
HETATM   15  C   UNL     1      44.460  -9.916   8.306  1.00  0.00     0.076 A 
BRANCH  15  16
HETATM   16  O   UNL     1      44.720 -10.314   7.020  1.00  0.00    -0.355 OA
HETATM   17  C   UNL     1      45.096 -11.669   6.814  1.00  0.00     0.210 C 
ENDBRANCH  15  16
ENDBRANCH   7   9
ENDBRANCH   1   7
BRANCH   3  18
HETATM   18  C   UNL     1      40.846 -12.263   5.356  1.00  0.00     0.163 C 
BRANCH  18  19
HETATM   19  C   UNL     1      40.630 -13.394   4.386  1.00  0.00    -0.035 A 
HETATM   20  C   UNL     1      41.167 -14.659   4.643  1.00  0.00     0.066 A 
HETATM   21  C   UNL     1      40.940 -15.676   3.729  1.00  0.00     0.164 A 
HETATM   22  N   UNL     1      40.219 -15.530   2.599  1.00  0.00    -0.237 NA
HETATM   23  C   UNL     1      39.692 -14.308   2.378  1.00  0.00     0.120 A 
HETATM   24  C   UNL     1      39.863 -13.228   3.228  1.00  0.00     0.028 A 
BRANCH  21  25
HETATM   25  O   UNL     1      41.506 -16.903   4.016  1.00  0.00    -0.329 OA
BRANCH  25  26
HETATM   26  C   UNL     1      42.826 -17.132   3.477  1.00  0.00     0.130 C 
HETATM   27  C   UNL     1      43.775 -18.037   4.307  1.00  0.00     0.032 C 
HETATM   28  C   UNL     1      44.247 -18.657   2.980  1.00  0.00     0.005 C 
HETATM   29  C   UNL     1      42.898 -18.225   2.377  1.00  0.00     0.032 C 
ENDBRANCH  25  26
ENDBRANCH  21  25
ENDBRANCH  18  19
ENDBRANCH   3  18
TORSDOF 7
ENDMDL
MODEL 10
REMARK VINA RESULT:      -6.9      2.440      8.765
REMARK  7 active torsions:
REMARK  status: ('A' for Active; 'I' for Inactive)
REMARK    1  A    between atoms: C_4  and  C_5 
REMARK    2  A    between atoms: C_5  and  N_6 
REMARK       I    between atoms: N_6  and  C_7 
REMARK       I    between atoms: C_7  and  N_8 
REMARK    3  A    between atoms: N_8  and  C_9 
REMARK    4  A    between atoms: C_9  and  C_10 
REMARK    5  A    between atoms: C_12  and  O_13 
REMARK    6  A    between atoms: O_13  and  C_14 
REMARK    7  A    between atoms: C_23  and  O_24 
ROOT
HETATM    1  N   UNL     1      41.453 -10.093   7.782  1.00  0.00    -0.335 N 
HETATM    2  C   UNL     1      41.568  -9.858   6.447  1.00  0.00     0.316 C 
HETATM    3  N   UNL     1      42.108 -10.861   5.710  1.00  0.00    -0.339 N 
HETATM    4  O   UNL     1      41.195  -8.836   5.883  1.00  0.00    -0.247 OA
HETATM    5  H   UNL     1      42.071 -10.782   8.172  1.00  0.00     0.165 HD
HETATM    6  H   UNL     1      42.136 -10.640   4.722  1.00  0.00     0.164 HD
ENDROOT
BRANCH   1   7
HETATM    7  C   UNL     1      40.956  -9.076   8.703  1.00  0.00     0.118 C 
HETATM    8  C   UNL     1      39.481  -9.352   9.001  1.00  0.00     0.037 C 
BRANCH   7   9
HETATM    9  C   UNL     1      41.748  -9.004  10.008  1.00  0.00    -0.002 A 
HETATM   10  C   UNL     1      41.129  -9.216  11.257  1.00  0.00     0.018 A 
HETATM   11  C   UNL     1      41.848  -9.120  12.455  1.00  0.00    -0.061 A 
HETATM   12  C   UNL     1      41.179  -9.348  13.778  1.00  0.00     0.048 C 
HETATM   13  C   UNL     1      43.206  -8.796  12.405  1.00  0.00     0.009 A 
HETATM   14  C   UNL     1      43.835  -8.569  11.179  1.00  0.00     0.038 A 
HETATM   15  C   UNL     1      43.119  -8.668   9.982  1.00  0.00     0.076 A 
BRANCH  15  16
HETATM   16  O   UNL     1      43.655  -8.426   8.743  1.00  0.00    -0.355 OA
HETATM   17  C   UNL     1      45.047  -8.660   8.573  1.00  0.00     0.210 C 
ENDBRANCH  15  16
ENDBRANCH   7   9
ENDBRANCH   1   7
BRANCH   3  18
HETATM   18  C   UNL     1      42.474 -12.200   6.118  1.00  0.00     0.163 C 
BRANCH  18  19
HETATM   19  C   UNL     1      42.743 -13.110   4.949  1.00  0.00    -0.035 A 
HETATM   20  C   UNL     1      42.626 -14.496   5.089  1.00  0.00     0.066 A 
HETATM   21  C   UNL     1      42.875 -15.299   3.988  1.00  0.00     0.164 A 
HETATM   22  N   UNL     1      43.217 -14.829   2.772  1.00  0.00    -0.237 NA
HETATM   23  C   UNL     1      43.305 -13.489   2.649  1.00  0.00     0.120 A 
HETATM   24  C   UNL     1      43.078 -12.602   3.689  1.00  0.00     0.028 A 
BRANCH  21  25
HETATM   25  O   UNL     1      42.766 -16.664   4.180  1.00  0.00    -0.329 OA
BRANCH  25  26
HETATM   26  C   UNL     1      43.585 -17.490   3.325  1.00  0.00     0.130 C 
HETATM   27  C   UNL     1      44.101 -18.825   3.925  1.00  0.00     0.032 C 
HETATM   28  C   UNL     1      43.823 -19.477   2.560  1.00  0.00     0.005 C 
HETATM   29  C   UNL     1      42.794 -18.360   2.312  1.00  0.00     0.032 C 
ENDBRANCH  25  26
ENDBRANCH  21  25
ENDBRANCH  18  19
ENDBRANCH   3  18
TORSDOF 7
ENDMDL
