MODEL 1
REMARK VINA RESULT:      -7.0      0.000      0.000
REMARK  5 active torsions:
REMARK  status: ('A' for Active; 'I' for Inactive)
REMARK    1  A    between atoms: C_2  and  O_3 
REMARK    2  A    between atoms: C_4  and  C_5 
REMARK    3  A    between atoms: C_5  and  O_6 
REMARK    4  A    between atoms: C_9  and  C_10 
REMARK    5  A    between atoms: C_22  and  O_23 
ROOT
HETATM    1  C   UNL     1      43.104 -15.515   8.015  1.00  0.00     0.047 C 
HETATM    2  C   UNL     1      42.982 -16.396   6.762  1.00  0.00     0.073 C 
HETATM    3  C   UNL     1      41.826 -15.953   5.796  1.00  0.00     0.133 C 
HETATM    4  C   UNL     1      41.788 -16.668   4.401  1.00  0.00     0.074 C 
HETATM    5  C   UNL     1      43.050 -17.405   4.089  1.00  0.00     0.030 A 
HETATM    6  C   UNL     1      44.205 -17.303   4.830  1.00  0.00     0.042 A 
HETATM    7  N   UNL     1      45.125 -18.134   4.258  1.00  0.00    -0.279 N 
HETATM    8  H   UNL     1      46.085 -18.311   4.537  1.00  0.00     0.189 HD
HETATM    9  N   UNL     1      44.616 -18.830   3.218  1.00  0.00    -0.149 NA
HETATM   10  C   UNL     1      43.373 -18.375   3.139  1.00  0.00     0.190 A 
HETATM   11  C   UNL     1      44.371 -16.502   6.067  1.00  0.00     0.097 C 
ENDROOT
BRANCH   4  12
HETATM   12  C   UNL     1      41.527 -15.786   3.182  1.00  0.00    -0.048 A 
HETATM   13  C   UNL     1      42.551 -15.061   2.540  1.00  0.00     0.009 A 
HETATM   14  C   UNL     1      42.277 -14.242   1.443  1.00  0.00     0.024 A 
HETATM   15  C   UNL     1      40.974 -14.137   0.970  1.00  0.00     0.034 A 
HETATM   16 CL   UNL     1      40.634 -13.126  -0.379  1.00  0.00    -0.084 Cl
HETATM   17  C   UNL     1      39.943 -14.842   1.586  1.00  0.00     0.024 A 
HETATM   18  C   UNL     1      40.217 -15.660   2.687  1.00  0.00     0.009 A 
ENDBRANCH   4  12
BRANCH   3  19
HETATM   19  C   UNL     1      41.752 -14.445   5.671  1.00  0.00     0.266 C 
HETATM   20  O   UNL     1      42.686 -13.717   5.366  1.00  0.00    -0.265 OA
BRANCH  19  21
HETATM   21  O   UNL     1      40.483 -14.022   5.943  1.00  0.00    -0.326 OA
HETATM   22  C   UNL     1      40.079 -12.856   5.225  1.00  0.00     0.213 C 
ENDBRANCH  19  21
ENDBRANCH   3  19
BRANCH   2  23
HETATM   23  O   UNL     1      42.629 -17.699   7.292  1.00  0.00    -0.389 OA
HETATM   24  H   UNL     1      43.410 -18.074   7.739  1.00  0.00     0.210 HD
ENDBRANCH   2  23
BRANCH  10  25
HETATM   25  O   UNL     1      42.616 -18.934   2.201  1.00  0.00    -0.343 OA
HETATM   26  H   UNL     1      41.984 -19.486   2.693  1.00  0.00     0.219 HD
ENDBRANCH  10  25
TORSDOF 5
ENDMDL
MODEL 2
REMARK VINA RESULT:      -6.6      2.738      4.232
REMARK  5 active torsions:
REMARK  status: ('A' for Active; 'I' for Inactive)
REMARK    1  A    between atoms: C_2  and  O_3 
REMARK    2  A    between atoms: C_4  and  C_5 
REMARK    3  A    between atoms: C_5  and  O_6 
REMARK    4  A    between atoms: C_9  and  C_10 
REMARK    5  A    between atoms: C_22  and  O_23 
ROOT
HETATM    1  C   UNL     1      43.174 -17.600   6.654  1.00  0.00     0.047 C 
HETATM    2  C   UNL     1      43.520 -16.160   6.247  1.00  0.00     0.073 C 
HETATM    3  C   UNL     1      43.140 -15.822   4.761  1.00  0.00     0.133 C 
HETATM    4  C   UNL     1      43.261 -14.313   4.350  1.00  0.00     0.074 C 
HETATM    5  C   UNL     1      43.393 -13.398   5.524  1.00  0.00     0.030 A 
HETATM    6  C   UNL     1      43.214 -13.790   6.831  1.00  0.00     0.042 A 
HETATM    7  N   UNL     1      43.440 -12.695   7.614  1.00  0.00    -0.279 N 
HETATM    8  H   UNL     1      43.395 -12.613   8.625  1.00  0.00     0.189 HD
HETATM    9  N   UNL     1      43.824 -11.616   6.897  1.00  0.00    -0.149 NA
HETATM   10  C   UNL     1      43.788 -12.065   5.648  1.00  0.00     0.190 A 
HETATM   11  C   UNL     1      42.918 -15.170   7.287  1.00  0.00     0.097 C 
ENDROOT
BRANCH   4  12
HETATM   12  C   UNL     1      42.122 -13.733   3.515  1.00  0.00    -0.048 A 
HETATM   13  C   UNL     1      40.938 -13.233   4.095  1.00  0.00     0.009 A 
HETATM   14  C   UNL     1      39.902 -12.732   3.303  1.00  0.00     0.024 A 
HETATM   15  C   UNL     1      40.035 -12.723   1.919  1.00  0.00     0.034 A 
HETATM   16 CL   UNL     1      38.760 -12.111   0.942  1.00  0.00    -0.084 Cl
HETATM   17  C   UNL     1      41.194 -13.212   1.321  1.00  0.00     0.024 A 
HETATM   18  C   UNL     1      42.230 -13.717   2.114  1.00  0.00     0.009 A 
ENDBRANCH   4  12
BRANCH   3  19
HETATM   19  C   UNL     1      41.798 -16.415   4.381  1.00  0.00     0.266 C 
HETATM   20  O   UNL     1      40.785 -16.360   5.064  1.00  0.00    -0.265 OA
BRANCH  19  21
HETATM   21  O   UNL     1      41.889 -17.012   3.158  1.00  0.00    -0.326 OA
HETATM   22  C   UNL     1      43.102 -17.732   2.938  1.00  0.00     0.213 C 
ENDBRANCH  19  21
ENDBRANCH   3  19
BRANCH   2  23
HETATM   23  O   UNL     1      44.966 -16.113   6.346  1.00  0.00    -0.389 OA
HETATM   24  H   UNL     1      45.345 -16.594   5.589  1.00  0.00     0.210 HD
ENDBRANCH   2  23
BRANCH  10  25
HETATM   25  O   UNL     1      44.168 -11.198   4.717  1.00  0.00    -0.343 OA
HETATM   26  H   UNL     1      43.350 -10.977   4.239  1.00  0.00     0.219 HD
ENDBRANCH  10  25
TORSDOF 5
ENDMDL
MODEL 3
REMARK VINA RESULT:      -6.6      3.896      5.840
REMARK  5 active torsions:
REMARK  status: ('A' for Active; 'I' for Inactive)
REMARK    1  A    between atoms: C_2  and  O_3 
REMARK    2  A    between atoms: C_4  and  C_5 
REMARK    3  A    between atoms: C_5  and  O_6 
REMARK    4  A    between atoms: C_9  and  C_10 
REMARK    5  A    between atoms: C_22  and  O_23 
ROOT
HETATM    1  C   UNL     1      39.983 -10.568   4.771  1.00  0.00     0.047 C 
HETATM    2  C   UNL     1      40.222 -11.107   3.353  1.00  0.00     0.073 C 
HETATM    3  C   UNL     1      41.438 -12.096   3.255  1.00  0.00     0.133 C 
HETATM    4  C   UNL     1      41.599 -12.850   1.890  1.00  0.00     0.074 C 
HETATM    5  C   UNL     1      40.383 -12.761   1.026  1.00  0.00     0.030 A 
HETATM    6  C   UNL     1      39.172 -12.262   1.450  1.00  0.00     0.042 A 
HETATM    7  N   UNL     1      38.319 -12.318   0.386  1.00  0.00    -0.279 N 
HETATM    8  H   UNL     1      37.345 -12.037   0.334  1.00  0.00     0.189 HD
HETATM    9  N   UNL     1      38.922 -12.765  -0.737  1.00  0.00    -0.149 NA
HETATM   10  C   UNL     1      40.157 -13.022  -0.326  1.00  0.00     0.190 A 
HETATM   11  C   UNL     1      38.893 -11.693   2.792  1.00  0.00     0.097 C 
ENDROOT
BRANCH   4  12
HETATM   12  C   UNL     1      41.932 -14.339   1.960  1.00  0.00    -0.048 A 
HETATM   13  C   UNL     1      40.949 -15.324   2.191  1.00  0.00     0.009 A 
HETATM   14  C   UNL     1      41.288 -16.675   2.276  1.00  0.00     0.024 A 
HETATM   15  C   UNL     1      42.615 -17.064   2.131  1.00  0.00     0.034 A 
HETATM   16 CL   UNL     1      43.035 -18.728   2.239  1.00  0.00    -0.084 Cl
HETATM   17  C   UNL     1      43.606 -16.111   1.903  1.00  0.00     0.024 A 
HETATM   18  C   UNL     1      43.266 -14.757   1.821  1.00  0.00     0.009 A 
ENDBRANCH   4  12
BRANCH   3  19
HETATM   19  C   UNL     1      41.485 -13.038   4.441  1.00  0.00     0.266 C 
HETATM   20  O   UNL     1      40.532 -13.664   4.881  1.00  0.00    -0.265 OA
BRANCH  19  21
HETATM   21  O   UNL     1      42.755 -13.088   4.939  1.00  0.00    -0.326 OA
HETATM   22  C   UNL     1      43.098 -14.323   5.567  1.00  0.00     0.213 C 
ENDBRANCH  19  21
ENDBRANCH   3  19
BRANCH   2  23
HETATM   23  O   UNL     1      40.563  -9.923   2.588  1.00  0.00    -0.389 OA
HETATM   24  H   UNL     1      41.520  -9.759   2.679  1.00  0.00     0.210 HD
ENDBRANCH   2  23
BRANCH  10  25
HETATM   25  O   UNL     1      40.996 -13.448  -1.263  1.00  0.00    -0.343 OA
HETATM   26  H   UNL     1      41.858 -13.078  -1.007  1.00  0.00     0.219 HD
ENDBRANCH  10  25
TORSDOF 5
ENDMDL
MODEL 4
REMARK VINA RESULT:      -6.5      2.662      4.579
REMARK  5 active torsions:
REMARK  status: ('A' for Active; 'I' for Inactive)
REMARK    1  A    between atoms: C_2  and  O_3 
REMARK    2  A    between atoms: C_4  and  C_5 
REMARK    3  A    between atoms: C_5  and  O_6 
REMARK    4  A    between atoms: C_9  and  C_10 
REMARK    5  A    between atoms: C_22  and  O_23 
ROOT
HETATM    1  C   UNL     1      42.529 -17.699   2.737  1.00  0.00     0.047 C 
HETATM    2  C   UNL     1      42.879 -16.716   3.863  1.00  0.00     0.073 C 
HETATM    3  C   UNL     1      42.582 -15.218   3.501  1.00  0.00     0.133 C 
HETATM    4  C   UNL     1      42.708 -14.191   4.680  1.00  0.00     0.074 C 
HETATM    5  C   UNL     1      42.759 -14.845   6.021  1.00  0.00     0.030 A 
HETATM    6  C   UNL     1      42.509 -16.182   6.237  1.00  0.00     0.042 A 
HETATM    7  N   UNL     1      42.675 -16.412   7.572  1.00  0.00    -0.279 N 
HETATM    8  H   UNL     1      42.570 -17.281   8.087  1.00  0.00     0.189 HD
HETATM    9  N   UNL     1      43.086 -15.313   8.239  1.00  0.00    -0.149 NA
HETATM   10  C   UNL     1      43.129 -14.389   7.287  1.00  0.00     0.190 A 
HETATM   11  C   UNL     1      42.206 -17.184   5.186  1.00  0.00     0.097 C 
ENDROOT
BRANCH   4  12
HETATM   12  C   UNL     1      41.612 -13.133   4.791  1.00  0.00    -0.048 A 
HETATM   13  C   UNL     1      40.446 -13.330   5.560  1.00  0.00     0.009 A 
HETATM   14  C   UNL     1      39.450 -12.354   5.622  1.00  0.00     0.024 A 
HETATM   15  C   UNL     1      39.603 -11.166   4.917  1.00  0.00     0.034 A 
HETATM   16 CL   UNL     1      38.374  -9.965   4.989  1.00  0.00    -0.084 Cl
HETATM   17  C   UNL     1      40.744 -10.946   4.149  1.00  0.00     0.024 A 
HETATM   18  C   UNL     1      41.742 -11.925   4.084  1.00  0.00     0.009 A 
ENDBRANCH   4  12
BRANCH   3  19
HETATM   19  C   UNL     1      41.273 -15.075   2.752  1.00  0.00     0.266 C 
HETATM   20  O   UNL     1      40.188 -15.479   3.147  1.00  0.00    -0.265 OA
BRANCH  19  21
HETATM   21  O   UNL     1      41.486 -14.420   1.574  1.00  0.00    -0.326 OA
HETATM   22  C   UNL     1      40.416 -14.527   0.634  1.00  0.00     0.213 C 
ENDBRANCH  19  21
ENDBRANCH   3  19
BRANCH   2  23
HETATM   23  O   UNL     1      44.316 -16.852   4.004  1.00  0.00    -0.389 OA
HETATM   24  H   UNL     1      44.586 -16.447   4.848  1.00  0.00     0.210 HD
ENDBRANCH   2  23
BRANCH  10  25
HETATM   25  O   UNL     1      43.552 -13.190   7.671  1.00  0.00    -0.343 OA
HETATM   26  H   UNL     1      44.419 -13.087   7.242  1.00  0.00     0.219 HD
ENDBRANCH  10  25
TORSDOF 5
ENDMDL
MODEL 5
REMARK VINA RESULT:      -6.5      2.836      3.882
REMARK  5 active torsions:
REMARK  status: ('A' for Active; 'I' for Inactive)
REMARK    1  A    between atoms: C_2  and  O_3 
REMARK    2  A    between atoms: C_4  and  C_5 
REMARK    3  A    between atoms: C_5  and  O_6 
REMARK    4  A    between atoms: C_9  and  C_10 
REMARK    5  A    between atoms: C_22  and  O_23 
ROOT
HETATM    1  C   UNL     1      44.874 -11.150   6.294  1.00  0.00     0.047 C 
HETATM    2  C   UNL     1      43.686 -12.112   6.446  1.00  0.00     0.073 C 
HETATM    3  C   UNL     1      42.575 -11.912   5.356  1.00  0.00     0.133 C 
HETATM    4  C   UNL     1      41.447 -13.001   5.319  1.00  0.00     0.074 C 
HETATM    5  C   UNL     1      41.794 -14.227   6.100  1.00  0.00     0.030 A 
HETATM    6  C   UNL     1      43.042 -14.481   6.621  1.00  0.00     0.042 A 
HETATM    7  N   UNL     1      42.967 -15.671   7.284  1.00  0.00    -0.279 N 
HETATM    8  H   UNL     1      43.697 -16.169   7.785  1.00  0.00     0.189 HD
HETATM    9  N   UNL     1      41.718 -16.185   7.285  1.00  0.00    -0.149 NA
HETATM   10  C   UNL     1      41.035 -15.299   6.570  1.00  0.00     0.190 A 
HETATM   11  C   UNL     1      44.214 -13.574   6.540  1.00  0.00     0.097 C 
ENDROOT
BRANCH   4  12
HETATM   12  C   UNL     1      41.024 -13.509   3.943  1.00  0.00    -0.048 A 
HETATM   13  C   UNL     1      41.657 -14.599   3.311  1.00  0.00     0.009 A 
HETATM   14  C   UNL     1      41.265 -15.024   2.041  1.00  0.00     0.024 A 
HETATM   15  C   UNL     1      40.233 -14.367   1.382  1.00  0.00     0.034 A 
HETATM   16 CL   UNL     1      39.751 -14.887  -0.185  1.00  0.00    -0.084 Cl
HETATM   17  C   UNL     1      39.591 -13.286   1.982  1.00  0.00     0.024 A 
HETATM   18  C   UNL     1      39.985 -12.858   3.255  1.00  0.00     0.009 A 
ENDBRANCH   4  12
BRANCH   3  19
HETATM   19  C   UNL     1      43.176 -11.662   3.988  1.00  0.00     0.266 C 
HETATM   20  O   UNL     1      44.042 -12.348   3.463  1.00  0.00    -0.265 OA
BRANCH  19  21
HETATM   21  O   UNL     1      42.601 -10.559   3.426  1.00  0.00    -0.326 OA
HETATM   22  C   UNL     1      41.878  -9.736   4.342  1.00  0.00     0.213 C 
ENDBRANCH  19  21
ENDBRANCH   3  19
BRANCH   2  23
HETATM   23  O   UNL     1      43.110 -11.747   7.726  1.00  0.00    -0.389 OA
HETATM   24  H   UNL     1      43.373 -12.412   8.387  1.00  0.00     0.210 HD
ENDBRANCH   2  23
BRANCH  10  25
HETATM   25  O   UNL     1      39.736 -15.544   6.444  1.00  0.00    -0.343 OA
HETATM   26  H   UNL     1      39.530 -16.154   7.174  1.00  0.00     0.219 HD
ENDBRANCH  10  25
TORSDOF 5
ENDMDL
MODEL 6
REMARK VINA RESULT:      -6.4     14.060     16.123
REMARK  5 active torsions:
REMARK  status: ('A' for Active; 'I' for Inactive)
REMARK    1  A    between atoms: C_2  and  O_3 
REMARK    2  A    between atoms: C_4  and  C_5 
REMARK    3  A    between atoms: C_5  and  O_6 
REMARK    4  A    between atoms: C_9  and  C_10 
REMARK    5  A    between atoms: C_22  and  O_23 
ROOT
HETATM    1  C   UNL     1      51.270 -31.594   0.766  1.00  0.00     0.047 C 
HETATM    2  C   UNL     1      50.081 -30.725   1.201  1.00  0.00     0.073 C 
HETATM    3  C   UNL     1      49.475 -29.865   0.035  1.00  0.00     0.133 C 
HETATM    4  C   UNL     1      48.129 -29.128   0.356  1.00  0.00     0.074 C 
HETATM    5  C   UNL     1      47.470 -29.631   1.599  1.00  0.00     0.030 A 
HETATM    6  C   UNL     1      47.871 -30.757   2.281  1.00  0.00     0.042 A 
HETATM    7  N   UNL     1      47.054 -30.882   3.368  1.00  0.00    -0.279 N 
HETATM    8  H   UNL     1      47.057 -31.596   4.090  1.00  0.00     0.189 HD
HETATM    9  N   UNL     1      46.177 -29.860   3.475  1.00  0.00    -0.149 NA
HETATM   10  C   UNL     1      46.449 -29.125   2.404  1.00  0.00     0.190 A 
HETATM   11  C   UNL     1      49.032 -31.612   1.933  1.00  0.00     0.097 C 
ENDROOT
BRANCH   4  12
HETATM   12  C   UNL     1      47.045 -29.174  -0.719  1.00  0.00    -0.048 A 
HETATM   13  C   UNL     1      46.946 -28.201  -1.735  1.00  0.00     0.009 A 
HETATM   14  C   UNL     1      45.929 -28.255  -2.689  1.00  0.00     0.024 A 
HETATM   15  C   UNL     1      44.995 -29.284  -2.643  1.00  0.00     0.034 A 
HETATM   16 CL   UNL     1      43.738 -29.350  -3.816  1.00  0.00    -0.084 Cl
HETATM   17  C   UNL     1      45.069 -30.257  -1.650  1.00  0.00     0.024 A 
HETATM   18  C   UNL     1      46.087 -30.201  -0.692  1.00  0.00     0.009 A 
ENDBRANCH   4  12
BRANCH   3  19
HETATM   19  C   UNL     1      49.405 -30.651  -1.258  1.00  0.00     0.266 C 
HETATM   20  O   UNL     1      48.817 -31.713  -1.406  1.00  0.00    -0.265 OA
BRANCH  19  21
HETATM   21  O   UNL     1      50.092 -29.991  -2.236  1.00  0.00    -0.326 OA
HETATM   22  C   UNL     1      51.379 -30.536  -2.528  1.00  0.00     0.213 C 
ENDBRANCH  19  21
ENDBRANCH   3  19
BRANCH   2  23
HETATM   23  O   UNL     1      50.660 -29.806   2.162  1.00  0.00    -0.389 OA
HETATM   24  H   UNL     1      50.006 -29.637   2.864  1.00  0.00     0.210 HD
ENDBRANCH   2  23
BRANCH  10  25
HETATM   25  O   UNL     1      45.741 -28.008   2.281  1.00  0.00    -0.343 OA
HETATM   26  H   UNL     1      45.737 -27.824   1.326  1.00  0.00     0.219 HD
ENDBRANCH  10  25
TORSDOF 5
ENDMDL
MODEL 7
REMARK VINA RESULT:      -6.4      4.613      7.045
REMARK  5 active torsions:
REMARK  status: ('A' for Active; 'I' for Inactive)
REMARK    1  A    between atoms: C_2  and  O_3 
REMARK    2  A    between atoms: C_4  and  C_5 
REMARK    3  A    between atoms: C_5  and  O_6 
REMARK    4  A    between atoms: C_9  and  C_10 
REMARK    5  A    between atoms: C_22  and  O_23 
ROOT
HETATM    1  C   UNL     1      39.863 -12.968   0.964  1.00  0.00     0.047 C 
HETATM    2  C   UNL     1      39.574 -12.717   2.451  1.00  0.00     0.073 C 
HETATM    3  C   UNL     1      40.687 -13.277   3.408  1.00  0.00     0.133 C 
HETATM    4  C   UNL     1      40.566 -12.862   4.915  1.00  0.00     0.074 C 
HETATM    5  C   UNL     1      39.611 -11.735   5.136  1.00  0.00     0.030 A 
HETATM    6  C   UNL     1      39.053 -10.988   4.123  1.00  0.00     0.042 A 
HETATM    7  N   UNL     1      38.221 -10.076   4.706  1.00  0.00    -0.279 N 
HETATM    8  H   UNL     1      37.649  -9.363   4.266  1.00  0.00     0.189 HD
HETATM    9  N   UNL     1      38.149 -10.226   6.046  1.00  0.00    -0.149 NA
HETATM   10  C   UNL     1      38.990 -11.226   6.277  1.00  0.00     0.190 A 
HETATM   11  C   UNL     1      39.263 -11.208   2.671  1.00  0.00     0.097 C 
ENDROOT
BRANCH   4  12
HETATM   12  C   UNL     1      41.854 -12.441   5.619  1.00  0.00    -0.048 A 
HETATM   13  C   UNL     1      42.684 -13.361   6.292  1.00  0.00     0.009 A 
HETATM   14  C   UNL     1      43.842 -12.941   6.949  1.00  0.00     0.024 A 
HETATM   15  C   UNL     1      44.189 -11.595   6.942  1.00  0.00     0.034 A 
HETATM   16 CL   UNL     1      45.614 -11.076   7.753  1.00  0.00    -0.084 Cl
HETATM   17  C   UNL     1      43.387 -10.665   6.286  1.00  0.00     0.024 A 
HETATM   18  C   UNL     1      42.224 -11.085   5.630  1.00  0.00     0.009 A 
ENDBRANCH   4  12
BRANCH   3  19
HETATM   19  C   UNL     1      42.075 -13.027   2.853  1.00  0.00     0.266 C 
HETATM   20  O   UNL     1      42.481 -11.954   2.430  1.00  0.00    -0.265 OA
BRANCH  19  21
HETATM   21  O   UNL     1      42.805 -14.178   2.904  1.00  0.00    -0.326 OA
HETATM   22  C   UNL     1      42.052 -15.369   2.676  1.00  0.00     0.213 C 
ENDBRANCH  19  21
ENDBRANCH   3  19
BRANCH   2  23
HETATM   23  O   UNL     1      38.365 -13.479   2.700  1.00  0.00    -0.389 OA
HETATM   24  H   UNL     1      38.061 -13.291   3.607  1.00  0.00     0.210 HD
ENDBRANCH   2  23
BRANCH  10  25
HETATM   25  O   UNL     1      39.083 -11.615   7.544  1.00  0.00    -0.343 OA
HETATM   26  H   UNL     1      38.979 -10.797   8.060  1.00  0.00     0.219 HD
ENDBRANCH  10  25
TORSDOF 5
ENDMDL
MODEL 8
REMARK VINA RESULT:      -6.3      4.067      6.467
REMARK  5 active torsions:
REMARK  status: ('A' for Active; 'I' for Inactive)
REMARK    1  A    between atoms: C_2  and  O_3 
REMARK    2  A    between atoms: C_4  and  C_5 
REMARK    3  A    between atoms: C_5  and  O_6 
REMARK    4  A    between atoms: C_9  and  C_10 
REMARK    5  A    between atoms: C_22  and  O_23 
ROOT
HETATM    1  C   UNL     1      38.977  -9.743   0.778  1.00  0.00     0.047 C 
HETATM    2  C   UNL     1      38.969 -10.607   2.048  1.00  0.00     0.073 C 
HETATM    3  C   UNL     1      39.035 -12.149   1.756  1.00  0.00     0.133 C 
HETATM    4  C   UNL     1      39.254 -13.073   3.004  1.00  0.00     0.074 C 
HETATM    5  C   UNL     1      39.698 -12.321   4.216  1.00  0.00     0.030 A 
HETATM    6  C   UNL     1      40.085 -11.000   4.205  1.00  0.00     0.042 A 
HETATM    7  N   UNL     1      40.394 -10.660   5.490  1.00  0.00    -0.279 N 
HETATM    8  H   UNL     1      40.719  -9.769   5.854  1.00  0.00     0.189 HD
HETATM    9  N   UNL     1      40.167 -11.668   6.360  1.00  0.00    -0.149 NA
HETATM   10  C   UNL     1      39.750 -12.650   5.572  1.00  0.00     0.190 A 
HETATM   11  C   UNL     1      40.076 -10.107   3.021  1.00  0.00     0.097 C 
ENDROOT
BRANCH   4  12
HETATM   12  C   UNL     1      40.257 -14.213   2.850  1.00  0.00    -0.048 A 
HETATM   13  C   UNL     1      41.607 -14.091   3.239  1.00  0.00     0.009 A 
HETATM   14  C   UNL     1      42.508 -15.143   3.061  1.00  0.00     0.024 A 
HETATM   15  C   UNL     1      42.072 -16.335   2.493  1.00  0.00     0.034 A 
HETATM   16 CL   UNL     1      43.181 -17.630   2.270  1.00  0.00    -0.084 Cl
HETATM   17  C   UNL     1      40.744 -16.482   2.099  1.00  0.00     0.024 A 
HETATM   18  C   UNL     1      39.843 -15.427   2.275  1.00  0.00     0.009 A 
ENDBRANCH   4  12
BRANCH   3  19
HETATM   19  C   UNL     1      40.004 -12.461   0.634  1.00  0.00     0.266 C 
HETATM   20  O   UNL     1      41.195 -12.184   0.634  1.00  0.00    -0.265 OA
BRANCH  19  21
HETATM   21  O   UNL     1      39.348 -13.106  -0.374  1.00  0.00    -0.326 OA
HETATM   22  C   UNL     1      40.148 -14.036  -1.104  1.00  0.00     0.213 C 
ENDBRANCH  19  21
ENDBRANCH   3  19
BRANCH   2  23
HETATM   23  O   UNL     1      37.675 -10.334   2.641  1.00  0.00    -0.389 OA
HETATM   24  H   UNL     1      37.435 -11.080   3.221  1.00  0.00     0.210 HD
ENDBRANCH   2  23
BRANCH  10  25
HETATM   25  O   UNL     1      39.410 -13.776   6.189  1.00  0.00    -0.343 OA
HETATM   26  H   UNL     1      39.949 -14.463   5.760  1.00  0.00     0.219 HD
ENDBRANCH  10  25
TORSDOF 5
ENDMDL
MODEL 9
REMARK VINA RESULT:      -6.2     14.358     16.549
REMARK  5 active torsions:
REMARK  status: ('A' for Active; 'I' for Inactive)
REMARK    1  A    between atoms: C_2  and  O_3 
REMARK    2  A    between atoms: C_4  and  C_5 
REMARK    3  A    between atoms: C_5  and  O_6 
REMARK    4  A    between atoms: C_9  and  C_10 
REMARK    5  A    between atoms: C_22  and  O_23 
ROOT
HETATM    1  C   UNL     1      48.396 -29.209   3.659  1.00  0.00     0.047 C 
HETATM    2  C   UNL     1      48.011 -28.779   2.236  1.00  0.00     0.073 C 
HETATM    3  C   UNL     1      48.982 -29.329   1.132  1.00  0.00     0.133 C 
HETATM    4  C   UNL     1      48.524 -29.114  -0.352  1.00  0.00     0.074 C 
HETATM    5  C   UNL     1      47.086 -28.724  -0.468  1.00  0.00     0.030 A 
HETATM    6  C   UNL     1      46.193 -28.755   0.578  1.00  0.00     0.042 A 
HETATM    7  N   UNL     1      44.995 -28.309   0.099  1.00  0.00    -0.279 N 
HETATM    8  H   UNL     1      44.112 -28.202   0.588  1.00  0.00     0.189 HD
HETATM    9  N   UNL     1      45.067 -27.923  -1.194  1.00  0.00    -0.149 NA
HETATM   10  C   UNL     1      46.330 -28.181  -1.508  1.00  0.00     0.190 A 
HETATM   11  C   UNL     1      46.515 -29.122   1.979  1.00  0.00     0.097 C 
ENDROOT
BRANCH   4  12
HETATM   12  C   UNL     1      48.697 -30.294  -1.305  1.00  0.00    -0.048 A 
HETATM   13  C   UNL     1      47.674 -31.236  -1.537  1.00  0.00     0.009 A 
HETATM   14  C   UNL     1      47.871 -32.320  -2.394  1.00  0.00     0.024 A 
HETATM   15  C   UNL     1      49.095 -32.479  -3.034  1.00  0.00     0.034 A 
HETATM   16 CL   UNL     1      49.340 -33.816  -4.088  1.00  0.00    -0.084 Cl
HETATM   17  C   UNL     1      50.123 -31.564  -2.823  1.00  0.00     0.024 A 
HETATM   18  C   UNL     1      49.926 -30.479  -1.961  1.00  0.00     0.009 A 
ENDBRANCH   4  12
BRANCH   3  19
HETATM   19  C   UNL     1      49.382 -30.764   1.407  1.00  0.00     0.266 C 
HETATM   20  O   UNL     1      48.603 -31.686   1.606  1.00  0.00    -0.265 OA
BRANCH  19  21
HETATM   21  O   UNL     1      50.742 -30.875   1.392  1.00  0.00    -0.326 OA
HETATM   22  C   UNL     1      51.230 -32.150   0.976  1.00  0.00     0.213 C 
ENDBRANCH  19  21
ENDBRANCH   3  19
BRANCH   2  23
HETATM   23  O   UNL     1      48.156 -27.336   2.262  1.00  0.00    -0.389 OA
HETATM   24  H   UNL     1      47.790 -26.972   1.435  1.00  0.00     0.210 HD
ENDBRANCH   2  23
BRANCH  10  25
HETATM   25  O   UNL     1      46.693 -27.850  -2.742  1.00  0.00    -0.343 OA
HETATM   26  H   UNL     1      46.368 -26.940  -2.857  1.00  0.00     0.219 HD
ENDBRANCH  10  25
TORSDOF 5
ENDMDL
MODEL 10
REMARK VINA RESULT:      -6.1     14.003     15.276
REMARK  5 active torsions:
REMARK  status: ('A' for Active; 'I' for Inactive)
REMARK    1  A    between atoms: C_2  and  O_3 
REMARK    2  A    between atoms: C_4  and  C_5 
REMARK    3  A    between atoms: C_5  and  O_6 
REMARK    4  A    between atoms: C_9  and  C_10 
REMARK    5  A    between atoms: C_22  and  O_23 
ROOT
HETATM    1  C   UNL     1      47.694 -31.482   3.399  1.00  0.00     0.047 C 
HETATM    2  C   UNL     1      46.388 -30.765   3.026  1.00  0.00     0.073 C 
HETATM    3  C   UNL     1      46.527 -29.819   1.780  1.00  0.00     0.133 C 
HETATM    4  C   UNL     1      45.188 -29.232   1.214  1.00  0.00     0.074 C 
HETATM    5  C   UNL     1      43.976 -29.930   1.739  1.00  0.00     0.030 A 
HETATM    6  C   UNL     1      44.014 -31.096   2.468  1.00  0.00     0.042 A 
HETATM    7  N   UNL     1      42.726 -31.413   2.789  1.00  0.00    -0.279 N 
HETATM    8  H   UNL     1      42.377 -32.207   3.318  1.00  0.00     0.189 HD
HETATM    9  N   UNL     1      41.844 -30.482   2.367  1.00  0.00    -0.149 NA
HETATM   10  C   UNL     1      42.619 -29.605   1.742  1.00  0.00     0.190 A 
HETATM   11  C   UNL     1      45.243 -31.811   2.891  1.00  0.00     0.097 C 
ENDROOT
BRANCH   4  12
HETATM   12  C   UNL     1      45.024 -29.230  -0.304  1.00  0.00    -0.048 A 
HETATM   13  C   UNL     1      45.400 -28.132  -1.105  1.00  0.00     0.009 A 
HETATM   14  C   UNL     1      45.214 -28.149  -2.488  1.00  0.00     0.024 A 
HETATM   15  C   UNL     1      44.650 -29.267  -3.094  1.00  0.00     0.034 A 
HETATM   16 CL   UNL     1      44.417 -29.289  -4.797  1.00  0.00    -0.084 Cl
HETATM   17  C   UNL     1      44.269 -30.365  -2.327  1.00  0.00     0.024 A 
HETATM   18  C   UNL     1      44.453 -30.346  -0.940  1.00  0.00     0.009 A 
ENDBRANCH   4  12
BRANCH   3  19
HETATM   19  C   UNL     1      47.382 -30.447   0.698  1.00  0.00     0.266 C 
HETATM   20  O   UNL     1      47.188 -31.545   0.196  1.00  0.00    -0.265 OA
BRANCH  19  21
HETATM   21  O   UNL     1      48.396 -29.598   0.362  1.00  0.00    -0.326 OA
HETATM   22  C   UNL     1      48.791 -29.658  -1.009  1.00  0.00     0.213 C 
ENDBRANCH  19  21
ENDBRANCH   3  19
BRANCH   2  23
HETATM   23  O   UNL     1      46.115 -29.927   4.178  1.00  0.00    -0.389 OA
HETATM   24  H   UNL     1      45.494 -29.225   3.911  1.00  0.00     0.210 HD
ENDBRANCH   2  23
BRANCH  10  25
HETATM   25  O   UNL     1      41.997 -28.538   1.252  1.00  0.00    -0.343 OA
HETATM   26  H   UNL     1      42.393 -27.785   1.724  1.00  0.00     0.219 HD
ENDBRANCH  10  25
TORSDOF 5
ENDMDL
