MODEL 1
REMARK VINA RESULT:      -8.4      0.000      0.000
REMARK  7 active torsions:
REMARK  status: ('A' for Active; 'I' for Inactive)
REMARK    1  A    between atoms: C_2  and  O_3 
REMARK    2  A    between atoms: O_3  and  C_4 
REMARK    3  A    between atoms: C_4  and  C_5 
REMARK    4  A    between atoms: C_6  and  C_7 
REMARK    5  A    between atoms: C_18  and  S_19 
REMARK    6  A    between atoms: S_19  and  C_20 
REMARK    7  A    between atoms: C_20  and  C_21 
ROOT
HETATM    1  C   UNL     1      39.985 -13.355  -1.675  1.00  0.00     0.070 A 
HETATM    2  C   UNL     1      40.805 -13.006  -0.441  1.00  0.00     0.203 A 
HETATM    3  N   UNL     1      40.729 -14.069   0.567  1.00  0.00    -0.082 N 
HETATM    4  C   UNL     1      39.964 -15.196   0.443  1.00  0.00     0.726 A 
HETATM    5  N   UNL     1      39.236 -15.376  -0.676  1.00  0.00    -0.192 N 
HETATM    6  N   UNL     1      41.430 -14.078   1.715  1.00  0.00    -0.128 NA
HETATM    7  C   UNL     1      40.992 -15.212   2.270  1.00  0.00     0.226 A 
HETATM    8  N   UNL     1      40.106 -15.938   1.510  1.00  0.00    -0.035 NA
HETATM    9  C   UNL     1      39.258 -14.497  -1.755  1.00  0.00     0.037 A 
HETATM   10  C   UNL     1      38.487 -14.936  -2.975  1.00  0.00     0.070 C 
HETATM   11  H   UNL     1      38.696 -16.233  -0.777  1.00  0.00     0.184 HD
ENDROOT
BRANCH   7  12
HETATM   12  S   UNL     1      41.520 -15.678   3.860  1.00  0.00    -0.083 SA
BRANCH  12  13
HETATM   13  C   UNL     1      43.229 -16.158   3.506  1.00  0.00     0.121 C 
BRANCH  13  14
HETATM   14  C   UNL     1      43.351 -17.654   3.334  1.00  0.00    -0.047 A 
HETATM   15  C   UNL     1      43.826 -18.455   4.385  1.00  0.00     0.031 A 
HETATM   16  C   UNL     1      43.962 -19.833   4.210  1.00  0.00     0.034 A 
HETATM   17 CL   UNL     1      44.540 -20.804   5.507  1.00  0.00    -0.084 Cl
HETATM   18  C   UNL     1      43.635 -20.429   2.994  1.00  0.00     0.024 A 
HETATM   19  C   UNL     1      43.167 -19.640   1.942  1.00  0.00     0.002 A 
HETATM   20  C   UNL     1      43.025 -18.263   2.112  1.00  0.00     0.008 A 
ENDBRANCH  13  14
ENDBRANCH  12  13
ENDBRANCH   7  12
BRANCH   2  21
HETATM   21  C   UNL     1      40.396 -11.671   0.182  1.00  0.00    -0.028 A 
HETATM   22  C   UNL     1      39.152 -11.501   0.817  1.00  0.00     0.011 A 
HETATM   23  C   UNL     1      38.805 -10.271   1.380  1.00  0.00     0.024 A 
HETATM   24  C   UNL     1      39.695  -9.201   1.312  1.00  0.00     0.034 A 
HETATM   25 CL   UNL     1      39.266  -7.687   2.008  1.00  0.00    -0.084 Cl
HETATM   26  C   UNL     1      40.928  -9.349   0.684  1.00  0.00     0.024 A 
HETATM   27  C   UNL     1      41.277 -10.577   0.119  1.00  0.00     0.011 A 
ENDBRANCH   2  21
BRANCH   1  28
HETATM   28  C   UNL     1      40.103 -12.354  -2.753  1.00  0.00     0.293 C 
HETATM   29  O   UNL     1      41.144 -12.153  -3.359  1.00  0.00    -0.259 OA
BRANCH  28  30
HETATM   30  O   UNL     1      38.948 -11.656  -2.876  1.00  0.00    -0.318 OA
BRANCH  30  31
HETATM   31  C   UNL     1      39.092 -10.265  -3.199  1.00  0.00     0.174 C 
HETATM   32  C   UNL     1      38.315  -9.403  -2.223  1.00  0.00     0.034 C 
ENDBRANCH  30  31
ENDBRANCH  28  30
ENDBRANCH   1  28
TORSDOF 7
ENDMDL
MODEL 2
REMARK VINA RESULT:      -7.8      3.468      5.416
REMARK  7 active torsions:
REMARK  status: ('A' for Active; 'I' for Inactive)
REMARK    1  A    between atoms: C_2  and  O_3 
REMARK    2  A    between atoms: O_3  and  C_4 
REMARK    3  A    between atoms: C_4  and  C_5 
REMARK    4  A    between atoms: C_6  and  C_7 
REMARK    5  A    between atoms: C_18  and  S_19 
REMARK    6  A    between atoms: S_19  and  C_20 
REMARK    7  A    between atoms: C_20  and  C_21 
ROOT
HETATM    1  C   UNL     1      40.838 -12.115   1.120  1.00  0.00     0.070 A 
HETATM    2  C   UNL     1      40.875 -12.852   2.451  1.00  0.00     0.203 A 
HETATM    3  N   UNL     1      41.646 -12.106   3.452  1.00  0.00    -0.082 N 
HETATM    4  C   UNL     1      42.304 -10.934   3.201  1.00  0.00     0.726 A 
HETATM    5  N   UNL     1      42.244 -10.397   1.967  1.00  0.00    -0.192 N 
HETATM    6  N   UNL     1      41.765 -12.468   4.742  1.00  0.00    -0.128 NA
HETATM    7  C   UNL     1      42.566 -11.501   5.203  1.00  0.00     0.226 A 
HETATM    8  N   UNL     1      42.902 -10.528   4.291  1.00  0.00    -0.035 NA
HETATM    9  C   UNL     1      41.494 -10.943   0.929  1.00  0.00     0.037 A 
HETATM   10  C   UNL     1      41.435 -10.127  -0.338  1.00  0.00     0.070 C 
HETATM   11  H   UNL     1      42.707  -9.507   1.796  1.00  0.00     0.184 HD
ENDROOT
BRANCH   7  12
HETATM   12  S   UNL     1      43.134 -11.534   6.845  1.00  0.00    -0.083 SA
BRANCH  12  13
HETATM   13  C   UNL     1      44.367 -12.855   6.735  1.00  0.00     0.121 C 
BRANCH  13  14
HETATM   14  C   UNL     1      43.706 -14.208   6.609  1.00  0.00    -0.047 A 
HETATM   15  C   UNL     1      44.335 -15.245   5.902  1.00  0.00     0.031 A 
HETATM   16  C   UNL     1      43.706 -16.483   5.766  1.00  0.00     0.034 A 
HETATM   17 CL   UNL     1      44.491 -17.747   4.901  1.00  0.00    -0.084 Cl
HETATM   18  C   UNL     1      42.448 -16.704   6.322  1.00  0.00     0.024 A 
HETATM   19  C   UNL     1      41.813 -15.679   7.022  1.00  0.00     0.002 A 
HETATM   20  C   UNL     1      42.438 -14.439   7.165  1.00  0.00     0.008 A 
ENDBRANCH  13  14
ENDBRANCH  12  13
ENDBRANCH   7  12
BRANCH   2  21
HETATM   21  C   UNL     1      41.427 -14.272   2.325  1.00  0.00    -0.028 A 
HETATM   22  C   UNL     1      42.734 -14.519   1.865  1.00  0.00     0.011 A 
HETATM   23  C   UNL     1      43.214 -15.827   1.762  1.00  0.00     0.024 A 
HETATM   24  C   UNL     1      42.395 -16.897   2.114  1.00  0.00     0.034 A 
HETATM   25 CL   UNL     1      42.989 -18.506   1.988  1.00  0.00    -0.084 Cl
HETATM   26  C   UNL     1      41.098 -16.672   2.566  1.00  0.00     0.024 A 
HETATM   27  C   UNL     1      40.615 -15.366   2.669  1.00  0.00     0.011 A 
ENDBRANCH   2  21
BRANCH   1  28
HETATM   28  C   UNL     1      39.998 -12.785   0.108  1.00  0.00     0.293 C 
HETATM   29  O   UNL     1      38.779 -12.787   0.156  1.00  0.00    -0.259 OA
BRANCH  28  30
HETATM   30  O   UNL     1      40.775 -13.456  -0.777  1.00  0.00    -0.318 OA
BRANCH  30  31
HETATM   31  C   UNL     1      40.260 -13.544  -2.114  1.00  0.00     0.174 C 
HETATM   32  C   UNL     1      41.001 -12.599  -3.040  1.00  0.00     0.034 C 
ENDBRANCH  30  31
ENDBRANCH  28  30
ENDBRANCH   1  28
TORSDOF 7
ENDMDL
MODEL 3
REMARK VINA RESULT:      -7.8      5.293      8.133
REMARK  7 active torsions:
REMARK  status: ('A' for Active; 'I' for Inactive)
REMARK    1  A    between atoms: C_2  and  O_3 
REMARK    2  A    between atoms: O_3  and  C_4 
REMARK    3  A    between atoms: C_4  and  C_5 
REMARK    4  A    between atoms: C_6  and  C_7 
REMARK    5  A    between atoms: C_18  and  S_19 
REMARK    6  A    between atoms: S_19  and  C_20 
REMARK    7  A    between atoms: C_20  and  C_21 
ROOT
HETATM    1  C   UNL     1      41.051 -12.154   2.128  1.00  0.00     0.070 A 
HETATM    2  C   UNL     1      41.360 -12.986   3.364  1.00  0.00     0.203 A 
HETATM    3  N   UNL     1      42.365 -12.332   4.209  1.00  0.00    -0.082 N 
HETATM    4  C   UNL     1      42.994 -11.160   3.891  1.00  0.00     0.726 A 
HETATM    5  N   UNL     1      42.677 -10.534   2.741  1.00  0.00    -0.192 N 
HETATM    6  N   UNL     1      42.759 -12.789   5.412  1.00  0.00    -0.128 NA
HETATM    7  C   UNL     1      43.679 -11.875   5.739  1.00  0.00     0.226 A 
HETATM    8  N   UNL     1      43.838 -10.848   4.840  1.00  0.00    -0.035 NA
HETATM    9  C   UNL     1      41.691 -10.987   1.869  1.00  0.00     0.037 A 
HETATM   10  C   UNL     1      41.379 -10.080   0.704  1.00  0.00     0.070 C 
HETATM   11  H   UNL     1      43.123  -9.645   2.527  1.00  0.00     0.184 HD
ENDROOT
BRANCH   7  12
HETATM   12  S   UNL     1      44.603 -12.039   7.203  1.00  0.00    -0.083 SA
BRANCH  12  13
HETATM   13  C   UNL     1      45.233 -10.351   7.379  1.00  0.00     0.121 C 
BRANCH  13  14
HETATM   14  C   UNL     1      44.656  -9.679   8.603  1.00  0.00    -0.047 A 
HETATM   15  C   UNL     1      44.107  -8.390   8.515  1.00  0.00     0.031 A 
HETATM   16  C   UNL     1      43.601  -7.764   9.655  1.00  0.00     0.034 A 
HETATM   17 CL   UNL     1      42.926  -6.186   9.532  1.00  0.00    -0.084 Cl
HETATM   18  C   UNL     1      43.638  -8.404  10.891  1.00  0.00     0.024 A 
HETATM   19  C   UNL     1      44.186  -9.683  10.990  1.00  0.00     0.002 A 
HETATM   20  C   UNL     1      44.691 -10.317   9.853  1.00  0.00     0.008 A 
ENDBRANCH  13  14
ENDBRANCH  12  13
ENDBRANCH   7  12
BRANCH   2  21
HETATM   21  C   UNL     1      41.814 -14.406   3.023  1.00  0.00    -0.028 A 
HETATM   22  C   UNL     1      42.935 -14.647   2.207  1.00  0.00     0.011 A 
HETATM   23  C   UNL     1      43.330 -15.955   1.914  1.00  0.00     0.024 A 
HETATM   24  C   UNL     1      42.609 -17.030   2.429  1.00  0.00     0.034 A 
HETATM   25 CL   UNL     1      43.099 -18.638   2.067  1.00  0.00    -0.084 Cl
HETATM   26  C   UNL     1      41.496 -16.810   3.234  1.00  0.00     0.024 A 
HETATM   27  C   UNL     1      41.098 -15.504   3.529  1.00  0.00     0.011 A 
ENDBRANCH   2  21
BRANCH   1  28
HETATM   28  C   UNL     1      39.979 -12.731   1.293  1.00  0.00     0.293 C 
HETATM   29  O   UNL     1      38.812 -12.766   1.646  1.00  0.00    -0.259 OA
BRANCH  28  30
HETATM   30  O   UNL     1      40.503 -13.285   0.172  1.00  0.00    -0.318 OA
BRANCH  30  31
HETATM   31  C   UNL     1      39.998 -14.582  -0.176  1.00  0.00     0.174 C 
HETATM   32  C   UNL     1      39.279 -14.539  -1.511  1.00  0.00     0.034 C 
ENDBRANCH  30  31
ENDBRANCH  28  30
ENDBRANCH   1  28
TORSDOF 7
ENDMDL
MODEL 4
REMARK VINA RESULT:      -7.7      6.431      8.923
REMARK  7 active torsions:
REMARK  status: ('A' for Active; 'I' for Inactive)
REMARK    1  A    between atoms: C_2  and  O_3 
REMARK    2  A    between atoms: O_3  and  C_4 
REMARK    3  A    between atoms: C_4  and  C_5 
REMARK    4  A    between atoms: C_6  and  C_7 
REMARK    5  A    between atoms: C_18  and  S_19 
REMARK    6  A    between atoms: S_19  and  C_20 
REMARK    7  A    between atoms: C_20  and  C_21 
ROOT
HETATM    1  C   UNL     1      42.274 -14.330   4.912  1.00  0.00     0.070 A 
HETATM    2  C   UNL     1      43.071 -13.077   4.578  1.00  0.00     0.203 A 
HETATM    3  N   UNL     1      43.704 -12.514   5.775  1.00  0.00    -0.082 N 
HETATM    4  C   UNL     1      43.543 -13.012   7.039  1.00  0.00     0.726 A 
HETATM    5  N   UNL     1      42.771 -14.100   7.224  1.00  0.00    -0.192 N 
HETATM    6  N   UNL     1      44.548 -11.466   5.766  1.00  0.00    -0.128 NA
HETATM    7  C   UNL     1      44.810 -11.341   7.071  1.00  0.00     0.226 A 
HETATM    8  N   UNL     1      44.228 -12.284   7.884  1.00  0.00    -0.035 NA
HETATM    9  C   UNL     1      42.161 -14.793   6.182  1.00  0.00     0.037 A 
HETATM   10  C   UNL     1      41.452 -16.067   6.569  1.00  0.00     0.070 C 
HETATM   11  H   UNL     1      42.683 -14.485   8.162  1.00  0.00     0.184 HD
ENDROOT
BRANCH   7  12
HETATM   12  S   UNL     1      45.806 -10.038   7.650  1.00  0.00    -0.083 SA
BRANCH  12  13
HETATM   13  C   UNL     1      45.507 -10.170   9.431  1.00  0.00     0.121 C 
BRANCH  13  14
HETATM   14  C   UNL     1      44.577  -9.079   9.910  1.00  0.00    -0.047 A 
HETATM   15  C   UNL     1      44.084  -9.089  11.224  1.00  0.00     0.031 A 
HETATM   16  C   UNL     1      43.204  -8.095  11.651  1.00  0.00     0.034 A 
HETATM   17 CL   UNL     1      42.612  -8.115  13.267  1.00  0.00    -0.084 Cl
HETATM   18  C   UNL     1      42.798  -7.086  10.780  1.00  0.00     0.024 A 
HETATM   19  C   UNL     1      43.277  -7.071   9.470  1.00  0.00     0.002 A 
HETATM   20  C   UNL     1      44.161  -8.060   9.038  1.00  0.00     0.008 A 
ENDBRANCH  13  14
ENDBRANCH  12  13
ENDBRANCH   7  12
BRANCH   2  21
HETATM   21  C   UNL     1      42.226 -12.007   3.887  1.00  0.00    -0.028 A 
HETATM   22  C   UNL     1      42.531 -11.544   2.594  1.00  0.00     0.011 A 
HETATM   23  C   UNL     1      41.739 -10.567   1.986  1.00  0.00     0.024 A 
HETATM   24  C   UNL     1      40.640 -10.043   2.663  1.00  0.00     0.034 A 
HETATM   25 CL   UNL     1      39.667  -8.841   1.910  1.00  0.00    -0.084 Cl
HETATM   26  C   UNL     1      40.326 -10.485   3.944  1.00  0.00     0.024 A 
HETATM   27  C   UNL     1      41.116 -11.461   4.555  1.00  0.00     0.011 A 
ENDBRANCH   2  21
BRANCH   1  28
HETATM   28  C   UNL     1      41.691 -14.982   3.723  1.00  0.00     0.293 C 
HETATM   29  O   UNL     1      40.508 -14.900   3.437  1.00  0.00    -0.259 OA
BRANCH  28  30
HETATM   30  O   UNL     1      42.626 -15.736   3.095  1.00  0.00    -0.318 OA
BRANCH  30  31
HETATM   31  C   UNL     1      42.193 -17.038   2.674  1.00  0.00     0.174 C 
HETATM   32  C   UNL     1      43.354 -18.016   2.675  1.00  0.00     0.034 C 
ENDBRANCH  30  31
ENDBRANCH  28  30
ENDBRANCH   1  28
TORSDOF 7
ENDMDL
MODEL 5
REMARK VINA RESULT:      -7.5      5.750      7.534
REMARK  7 active torsions:
REMARK  status: ('A' for Active; 'I' for Inactive)
REMARK    1  A    between atoms: C_2  and  O_3 
REMARK    2  A    between atoms: O_3  and  C_4 
REMARK    3  A    between atoms: C_4  and  C_5 
REMARK    4  A    between atoms: C_6  and  C_7 
REMARK    5  A    between atoms: C_18  and  S_19 
REMARK    6  A    between atoms: S_19  and  C_20 
REMARK    7  A    between atoms: C_20  and  C_21 
ROOT
HETATM    1  C   UNL     1      43.485 -10.198   7.526  1.00  0.00     0.070 A 
HETATM    2  C   UNL     1      42.162 -10.773   7.041  1.00  0.00     0.203 A 
HETATM    3  N   UNL     1      42.366 -12.023   6.300  1.00  0.00    -0.082 N 
HETATM    4  C   UNL     1      43.591 -12.564   6.022  1.00  0.00     0.726 A 
HETATM    5  N   UNL     1      44.700 -11.939   6.460  1.00  0.00    -0.192 N 
HETATM    6  N   UNL     1      41.370 -12.803   5.840  1.00  0.00    -0.128 NA
HETATM    7  C   UNL     1      42.067 -13.770   5.234  1.00  0.00     0.226 A 
HETATM    8  N   UNL     1      43.434 -13.670   5.342  1.00  0.00    -0.035 NA
HETATM    9  C   UNL     1      44.673 -10.785   7.238  1.00  0.00     0.037 A 
HETATM   10  C   UNL     1      46.010 -10.308   7.751  1.00  0.00     0.070 C 
HETATM   11  H   UNL     1      45.607 -12.364   6.279  1.00  0.00     0.184 HD
ENDROOT
BRANCH   7  12
HETATM   12  S   UNL     1      41.249 -15.032   4.361  1.00  0.00    -0.083 SA
BRANCH  12  13
HETATM   13  C   UNL     1      42.533 -15.486   3.168  1.00  0.00     0.121 C 
BRANCH  13  14
HETATM   14  C   UNL     1      43.108 -16.848   3.478  1.00  0.00    -0.047 A 
HETATM   15  C   UNL     1      43.089 -17.867   2.512  1.00  0.00     0.031 A 
HETATM   16  C   UNL     1      43.596 -19.130   2.814  1.00  0.00     0.034 A 
HETATM   17 CL   UNL     1      43.571 -20.368   1.619  1.00  0.00    -0.084 Cl
HETATM   18  C   UNL     1      44.122 -19.400   4.076  1.00  0.00     0.024 A 
HETATM   19  C   UNL     1      44.141 -18.396   5.045  1.00  0.00     0.002 A 
HETATM   20  C   UNL     1      43.639 -17.129   4.748  1.00  0.00     0.008 A 
ENDBRANCH  13  14
ENDBRANCH  12  13
ENDBRANCH   7  12
BRANCH   2  21
HETATM   21  C   UNL     1      41.368  -9.787   6.184  1.00  0.00    -0.028 A 
HETATM   22  C   UNL     1      40.136  -9.259   6.615  1.00  0.00     0.011 A 
HETATM   23  C   UNL     1      39.433  -8.357   5.813  1.00  0.00     0.024 A 
HETATM   24  C   UNL     1      39.950  -7.977   4.577  1.00  0.00     0.034 A 
HETATM   25 CL   UNL     1      39.082  -6.865   3.593  1.00  0.00    -0.084 Cl
HETATM   26  C   UNL     1      41.164  -8.492   4.132  1.00  0.00     0.024 A 
HETATM   27  C   UNL     1      41.870  -9.395   4.931  1.00  0.00     0.011 A 
ENDBRANCH   2  21
BRANCH   1  28
HETATM   28  C   UNL     1      43.322  -8.986   8.353  1.00  0.00     0.293 C 
HETATM   29  O   UNL     1      43.657  -7.876   7.972  1.00  0.00    -0.259 OA
BRANCH  28  30
HETATM   30  O   UNL     1      42.860  -9.315   9.583  1.00  0.00    -0.318 OA
BRANCH  30  31
HETATM   31  C   UNL     1      41.794  -8.496  10.087  1.00  0.00     0.174 C 
HETATM   32  C   UNL     1      40.530  -9.315  10.274  1.00  0.00     0.034 C 
ENDBRANCH  30  31
ENDBRANCH  28  30
ENDBRANCH   1  28
TORSDOF 7
ENDMDL
MODEL 6
REMARK VINA RESULT:      -7.5      4.831      6.655
REMARK  7 active torsions:
REMARK  status: ('A' for Active; 'I' for Inactive)
REMARK    1  A    between atoms: C_2  and  O_3 
REMARK    2  A    between atoms: O_3  and  C_4 
REMARK    3  A    between atoms: C_4  and  C_5 
REMARK    4  A    between atoms: C_6  and  C_7 
REMARK    5  A    between atoms: C_18  and  S_19 
REMARK    6  A    between atoms: S_19  and  C_20 
REMARK    7  A    between atoms: C_20  and  C_21 
ROOT
HETATM    1  C   UNL     1      41.526 -10.870   6.216  1.00  0.00     0.070 A 
HETATM    2  C   UNL     1      41.106 -12.286   5.850  1.00  0.00     0.203 A 
HETATM    3  N   UNL     1      42.018 -13.278   6.431  1.00  0.00    -0.082 N 
HETATM    4  C   UNL     1      43.139 -12.967   7.150  1.00  0.00     0.726 A 
HETATM    5  N   UNL     1      43.441 -11.673   7.370  1.00  0.00    -0.192 N 
HETATM    6  N   UNL     1      41.838 -14.609   6.356  1.00  0.00    -0.128 NA
HETATM    7  C   UNL     1      42.926 -15.047   6.999  1.00  0.00     0.226 A 
HETATM    8  N   UNL     1      43.739 -14.069   7.519  1.00  0.00    -0.035 NA
HETATM    9  C   UNL     1      42.638 -10.616   6.949  1.00  0.00     0.037 A 
HETATM   10  C   UNL     1      43.066  -9.244   7.408  1.00  0.00     0.070 C 
HETATM   11  H   UNL     1      44.257 -11.448   7.935  1.00  0.00     0.184 HD
ENDROOT
BRANCH   7  12
HETATM   12  S   UNL     1      43.255 -16.750   7.116  1.00  0.00    -0.083 SA
BRANCH  12  13
HETATM   13  C   UNL     1      44.549 -16.918   5.860  1.00  0.00     0.121 C 
BRANCH  13  14
HETATM   14  C   UNL     1      43.987 -17.464   4.568  1.00  0.00    -0.047 A 
HETATM   15  C   UNL     1      42.971 -16.777   3.886  1.00  0.00     0.031 A 
HETATM   16  C   UNL     1      42.437 -17.301   2.709  1.00  0.00     0.034 A 
HETATM   17 CL   UNL     1      41.196 -16.445   1.880  1.00  0.00    -0.084 Cl
HETATM   18  C   UNL     1      42.900 -18.512   2.199  1.00  0.00     0.024 A 
HETATM   19  C   UNL     1      43.906 -19.205   2.872  1.00  0.00     0.002 A 
HETATM   20  C   UNL     1      44.446 -18.685   4.048  1.00  0.00     0.008 A 
ENDBRANCH  13  14
ENDBRANCH  12  13
ENDBRANCH   7  12
BRANCH   2  21
HETATM   21  C   UNL     1      41.003 -12.500   4.339  1.00  0.00    -0.028 A 
HETATM   22  C   UNL     1      42.118 -12.354   3.494  1.00  0.00     0.011 A 
HETATM   23  C   UNL     1      41.995 -12.558   2.117  1.00  0.00     0.024 A 
HETATM   24  C   UNL     1      40.760 -12.907   1.574  1.00  0.00     0.034 A 
HETATM   25 CL   UNL     1      40.613 -13.160  -0.121  1.00  0.00    -0.084 Cl
HETATM   26  C   UNL     1      39.646 -13.052   2.395  1.00  0.00     0.024 A 
HETATM   27  C   UNL     1      39.765 -12.847   3.771  1.00  0.00     0.011 A 
ENDBRANCH   2  21
BRANCH   1  28
HETATM   28  C   UNL     1      40.586  -9.842   5.726  1.00  0.00     0.293 C 
HETATM   29  O   UNL     1      40.911  -8.973   4.933  1.00  0.00    -0.259 OA
BRANCH  28  30
HETATM   30  O   UNL     1      39.393  -9.956   6.358  1.00  0.00    -0.318 OA
BRANCH  30  31
HETATM   31  C   UNL     1      39.362  -9.495   7.717  1.00  0.00     0.174 C 
HETATM   32  C   UNL     1      39.395  -7.979   7.770  1.00  0.00     0.034 C 
ENDBRANCH  30  31
ENDBRANCH  28  30
ENDBRANCH   1  28
TORSDOF 7
ENDMDL
MODEL 7
REMARK VINA RESULT:      -7.3      8.991     10.935
REMARK  7 active torsions:
REMARK  status: ('A' for Active; 'I' for Inactive)
REMARK    1  A    between atoms: C_2  and  O_3 
REMARK    2  A    between atoms: O_3  and  C_4 
REMARK    3  A    between atoms: C_4  and  C_5 
REMARK    4  A    between atoms: C_6  and  C_7 
REMARK    5  A    between atoms: C_18  and  S_19 
REMARK    6  A    between atoms: S_19  and  C_20 
REMARK    7  A    between atoms: C_20  and  C_21 
ROOT
HETATM    1  C   UNL     1      40.853  -8.938  11.327  1.00  0.00     0.070 A 
HETATM    2  C   UNL     1      41.046  -8.563   9.865  1.00  0.00     0.203 A 
HETATM    3  N   UNL     1      40.141  -9.324   8.996  1.00  0.00    -0.082 N 
HETATM    4  C   UNL     1      39.285 -10.295   9.437  1.00  0.00     0.726 A 
HETATM    5  N   UNL     1      39.235 -10.580  10.752  1.00  0.00    -0.192 N 
HETATM    6  N   UNL     1      40.021  -9.131   7.670  1.00  0.00    -0.128 NA
HETATM    7  C   UNL     1      39.118 -10.067   7.359  1.00  0.00     0.226 A 
HETATM    8  N   UNL     1      38.626 -10.789   8.420  1.00  0.00    -0.035 NA
HETATM    9  C   UNL     1      39.975  -9.897  11.713  1.00  0.00     0.037 A 
HETATM   10  C   UNL     1      39.682 -10.262  13.147  1.00  0.00     0.070 C 
HETATM   11  H   UNL     1      38.571 -11.279  11.078  1.00  0.00     0.184 HD
ENDROOT
BRANCH   7  12
HETATM   12  S   UNL     1      38.652 -10.327   5.704  1.00  0.00    -0.083 SA
BRANCH  12  13
HETATM   13  C   UNL     1      40.280 -10.508   4.934  1.00  0.00     0.121 C 
BRANCH  13  14
HETATM   14  C   UNL     1      41.009 -11.716   5.476  1.00  0.00    -0.047 A 
HETATM   15  C   UNL     1      40.331 -12.931   5.666  1.00  0.00     0.031 A 
HETATM   16  C   UNL     1      41.003 -14.034   6.193  1.00  0.00     0.034 A 
HETATM   17 CL   UNL     1      40.161 -15.518   6.416  1.00  0.00    -0.084 Cl
HETATM   18  C   UNL     1      42.349 -13.944   6.541  1.00  0.00     0.024 A 
HETATM   19  C   UNL     1      43.030 -12.741   6.360  1.00  0.00     0.002 A 
HETATM   20  C   UNL     1      42.365 -11.634   5.830  1.00  0.00     0.008 A 
ENDBRANCH  13  14
ENDBRANCH  12  13
ENDBRANCH   7  12
BRANCH   2  21
HETATM   21  C   UNL     1      42.489  -8.743   9.394  1.00  0.00    -0.028 A 
HETATM   22  C   UNL     1      43.285  -7.647   9.014  1.00  0.00     0.011 A 
HETATM   23  C   UNL     1      44.603  -7.841   8.591  1.00  0.00     0.024 A 
HETATM   24  C   UNL     1      45.134  -9.127   8.541  1.00  0.00     0.034 A 
HETATM   25 CL   UNL     1      46.757  -9.362   8.021  1.00  0.00    -0.084 Cl
HETATM   26  C   UNL     1      44.360 -10.224   8.909  1.00  0.00     0.024 A 
HETATM   27  C   UNL     1      43.043 -10.034   9.332  1.00  0.00     0.011 A 
ENDBRANCH   2  21
BRANCH   1  28
HETATM   28  C   UNL     1      41.680  -8.133  12.247  1.00  0.00     0.293 C 
HETATM   29  O   UNL     1      42.636  -8.593  12.851  1.00  0.00    -0.259 OA
BRANCH  28  30
HETATM   30  O   UNL     1      41.160  -6.889  12.381  1.00  0.00    -0.318 OA
BRANCH  30  31
HETATM   31  C   UNL     1      42.115  -5.827  12.522  1.00  0.00     0.174 C 
HETATM   32  C   UNL     1      42.170  -4.982  11.263  1.00  0.00     0.034 C 
ENDBRANCH  30  31
ENDBRANCH  28  30
ENDBRANCH   1  28
TORSDOF 7
ENDMDL
MODEL 8
REMARK VINA RESULT:      -7.3      3.695      8.696
REMARK  7 active torsions:
REMARK  status: ('A' for Active; 'I' for Inactive)
REMARK    1  A    between atoms: C_2  and  O_3 
REMARK    2  A    between atoms: O_3  and  C_4 
REMARK    3  A    between atoms: C_4  and  C_5 
REMARK    4  A    between atoms: C_6  and  C_7 
REMARK    5  A    between atoms: C_18  and  S_19 
REMARK    6  A    between atoms: S_19  and  C_20 
REMARK    7  A    between atoms: C_20  and  C_21 
ROOT
HETATM    1  C   UNL     1      41.419 -12.587   4.299  1.00  0.00     0.070 A 
HETATM    2  C   UNL     1      41.687 -12.941   2.843  1.00  0.00     0.203 A 
HETATM    3  N   UNL     1      40.547 -12.589   1.990  1.00  0.00    -0.082 N 
HETATM    4  C   UNL     1      39.368 -12.074   2.454  1.00  0.00     0.726 A 
HETATM    5  N   UNL     1      39.222 -11.848   3.773  1.00  0.00    -0.192 N 
HETATM    6  N   UNL     1      40.541 -12.697   0.649  1.00  0.00    -0.128 NA
HETATM    7  C   UNL     1      39.298 -12.289   0.369  1.00  0.00     0.226 A 
HETATM    8  N   UNL     1      38.554 -11.878   1.449  1.00  0.00    -0.035 NA
HETATM    9  C   UNL     1      40.237 -12.060   4.703  1.00  0.00     0.037 A 
HETATM   10  C   UNL     1      39.935 -11.618   6.114  1.00  0.00     0.070 C 
HETATM   11  H   UNL     1      38.356 -11.433   4.108  1.00  0.00     0.184 HD
ENDROOT
BRANCH   7  12
HETATM   12  S   UNL     1      38.707 -12.321  -1.266  1.00  0.00    -0.083 SA
BRANCH  12  13
HETATM   13  C   UNL     1      40.269 -12.227  -2.177  1.00  0.00     0.121 C 
BRANCH  13  14
HETATM   14  C   UNL     1      40.613 -10.797  -2.523  1.00  0.00    -0.047 A 
HETATM   15  C   UNL     1      41.518 -10.071  -1.733  1.00  0.00     0.031 A 
HETATM   16  C   UNL     1      41.810  -8.742  -2.042  1.00  0.00     0.034 A 
HETATM   17 CL   UNL     1      42.925  -7.865  -1.068  1.00  0.00    -0.084 Cl
HETATM   18  C   UNL     1      41.206  -8.119  -3.132  1.00  0.00     0.024 A 
HETATM   19  C   UNL     1      40.301  -8.830  -3.920  1.00  0.00     0.002 A 
HETATM   20  C   UNL     1      40.008 -10.161  -3.618  1.00  0.00     0.008 A 
ENDBRANCH  13  14
ENDBRANCH  12  13
ENDBRANCH   7  12
BRANCH   2  21
HETATM   21  C   UNL     1      42.044 -14.415   2.649  1.00  0.00    -0.028 A 
HETATM   22  C   UNL     1      43.233 -14.811   2.010  1.00  0.00     0.011 A 
HETATM   23  C   UNL     1      43.534 -16.166   1.850  1.00  0.00     0.024 A 
HETATM   24  C   UNL     1      42.652 -17.134   2.323  1.00  0.00     0.034 A 
HETATM   25 CL   UNL     1      43.027 -18.801   2.125  1.00  0.00    -0.084 Cl
HETATM   26  C   UNL     1      41.469 -16.761   2.954  1.00  0.00     0.024 A 
HETATM   27  C   UNL     1      41.164 -15.408   3.115  1.00  0.00     0.011 A 
ENDBRANCH   2  21
BRANCH   1  28
HETATM   28  C   UNL     1      42.574 -12.842   5.181  1.00  0.00     0.293 C 
HETATM   29  O   UNL     1      43.627 -12.234   5.084  1.00  0.00    -0.259 OA
BRANCH  28  30
HETATM   30  O   UNL     1      42.315 -13.887   6.004  1.00  0.00    -0.318 OA
BRANCH  30  31
HETATM   31  C   UNL     1      43.466 -14.548   6.551  1.00  0.00     0.174 C 
HETATM   32  C   UNL     1      43.725 -15.859   5.832  1.00  0.00     0.034 C 
ENDBRANCH  30  31
ENDBRANCH  28  30
ENDBRANCH   1  28
TORSDOF 7
ENDMDL
MODEL 9
REMARK VINA RESULT:      -7.2      5.437      8.371
REMARK  7 active torsions:
REMARK  status: ('A' for Active; 'I' for Inactive)
REMARK    1  A    between atoms: C_2  and  O_3 
REMARK    2  A    between atoms: O_3  and  C_4 
REMARK    3  A    between atoms: C_4  and  C_5 
REMARK    4  A    between atoms: C_6  and  C_7 
REMARK    5  A    between atoms: C_18  and  S_19 
REMARK    6  A    between atoms: S_19  and  C_20 
REMARK    7  A    between atoms: C_20  and  C_21 
ROOT
HETATM    1  C   UNL     1      40.581 -13.722   2.850  1.00  0.00     0.070 A 
HETATM    2  C   UNL     1      40.273 -13.592   4.334  1.00  0.00     0.203 A 
HETATM    3  N   UNL     1      40.261 -12.187   4.756  1.00  0.00    -0.082 N 
HETATM    4  C   UNL     1      40.558 -11.134   3.935  1.00  0.00     0.726 A 
HETATM    5  N   UNL     1      40.867 -11.372   2.646  1.00  0.00    -0.192 N 
HETATM    6  N   UNL     1      39.922 -11.767   5.988  1.00  0.00    -0.128 NA
HETATM    7  C   UNL     1      40.097 -10.448   5.862  1.00  0.00     0.226 A 
HETATM    8  N   UNL     1      40.467 -10.018   4.610  1.00  0.00    -0.035 NA
HETATM    9  C   UNL     1      40.850 -12.642   2.075  1.00  0.00     0.037 A 
HETATM   10  C   UNL     1      41.088 -12.694   0.586  1.00  0.00     0.070 C 
HETATM   11  H   UNL     1      41.053 -10.582   2.032  1.00  0.00     0.184 HD
ENDROOT
BRANCH   7  12
HETATM   12  S   UNL     1      39.883  -9.395   7.229  1.00  0.00    -0.083 SA
BRANCH  12  13
HETATM   13  C   UNL     1      41.462  -8.508   7.206  1.00  0.00     0.121 C 
BRANCH  13  14
HETATM   14  C   UNL     1      42.458  -9.143   8.148  1.00  0.00    -0.047 A 
HETATM   15  C   UNL     1      42.626  -8.644   9.449  1.00  0.00     0.031 A 
HETATM   16  C   UNL     1      43.567  -9.217  10.304  1.00  0.00     0.034 A 
HETATM   17 CL   UNL     1      43.760  -8.599  11.898  1.00  0.00    -0.084 Cl
HETATM   18  C   UNL     1      44.354 -10.286   9.878  1.00  0.00     0.024 A 
HETATM   19  C   UNL     1      44.198 -10.785   8.586  1.00  0.00     0.002 A 
HETATM   20  C   UNL     1      43.256 -10.219   7.726  1.00  0.00     0.008 A 
ENDBRANCH  13  14
ENDBRANCH  12  13
ENDBRANCH   7  12
BRANCH   2  21
HETATM   21  C   UNL     1      41.242 -14.388   5.210  1.00  0.00    -0.028 A 
HETATM   22  C   UNL     1      42.606 -14.054   5.295  1.00  0.00     0.011 A 
HETATM   23  C   UNL     1      43.468 -14.797   6.106  1.00  0.00     0.024 A 
HETATM   24  C   UNL     1      42.977 -15.877   6.835  1.00  0.00     0.034 A 
HETATM   25 CL   UNL     1      44.041 -16.788   7.833  1.00  0.00    -0.084 Cl
HETATM   26  C   UNL     1      41.632 -16.225   6.760  1.00  0.00     0.024 A 
HETATM   27  C   UNL     1      40.767 -15.485   5.949  1.00  0.00     0.011 A 
ENDBRANCH   2  21
BRANCH   1  28
HETATM   28  C   UNL     1      40.516 -15.113   2.362  1.00  0.00     0.293 C 
HETATM   29  O   UNL     1      39.467 -15.727   2.250  1.00  0.00    -0.259 OA
BRANCH  28  30
HETATM   30  O   UNL     1      41.765 -15.603   2.172  1.00  0.00    -0.318 OA
BRANCH  30  31
HETATM   31  C   UNL     1      41.957 -16.976   2.544  1.00  0.00     0.174 C 
HETATM   32  C   UNL     1      43.280 -17.158   3.264  1.00  0.00     0.034 C 
ENDBRANCH  30  31
ENDBRANCH  28  30
ENDBRANCH   1  28
TORSDOF 7
ENDMDL
MODEL 10
REMARK VINA RESULT:      -7.2      2.605      4.215
REMARK  7 active torsions:
REMARK  status: ('A' for Active; 'I' for Inactive)
REMARK    1  A    between atoms: C_2  and  O_3 
REMARK    2  A    between atoms: O_3  and  C_4 
REMARK    3  A    between atoms: C_4  and  C_5 
REMARK    4  A    between atoms: C_6  and  C_7 
REMARK    5  A    between atoms: C_18  and  S_19 
REMARK    6  A    between atoms: S_19  and  C_20 
REMARK    7  A    between atoms: C_20  and  C_21 
ROOT
HETATM    1  C   UNL     1      39.887  -9.510  -0.024  1.00  0.00     0.070 A 
HETATM    2  C   UNL     1      39.434 -10.866   0.498  1.00  0.00     0.203 A 
HETATM    3  N   UNL     1      40.438 -11.456   1.391  1.00  0.00    -0.082 N 
HETATM    4  C   UNL     1      41.654 -10.891   1.663  1.00  0.00     0.726 A 
HETATM    5  N   UNL     1      41.969  -9.708   1.103  1.00  0.00    -0.192 N 
HETATM    6  N   UNL     1      40.266 -12.601   2.075  1.00  0.00    -0.128 NA
HETATM    7  C   UNL     1      41.446 -12.705   2.695  1.00  0.00     0.226 A 
HETATM    8  N   UNL     1      42.318 -11.663   2.483  1.00  0.00    -0.035 NA
HETATM    9  C   UNL     1      41.097  -8.986   0.292  1.00  0.00     0.037 A 
HETATM   10  C   UNL     1      41.574  -7.619  -0.130  1.00  0.00     0.070 C 
HETATM   11  H   UNL     1      42.861  -9.276   1.336  1.00  0.00     0.184 HD
ENDROOT
BRANCH   7  12
HETATM   12  S   UNL     1      41.811 -14.097   3.669  1.00  0.00    -0.083 SA
BRANCH  12  13
HETATM   13  C   UNL     1      42.155 -15.317   2.376  1.00  0.00     0.121 C 
BRANCH  13  14
HETATM   14  C   UNL     1      42.867 -16.525   2.941  1.00  0.00    -0.047 A 
HETATM   15  C   UNL     1      42.937 -17.719   2.206  1.00  0.00     0.031 A 
HETATM   16  C   UNL     1      43.571 -18.838   2.745  1.00  0.00     0.034 A 
HETATM   17 CL   UNL     1      43.654 -20.294   1.832  1.00  0.00    -0.084 Cl
HETATM   18  C   UNL     1      44.137 -18.788   4.018  1.00  0.00     0.024 A 
HETATM   19  C   UNL     1      44.068 -17.608   4.757  1.00  0.00     0.002 A 
HETATM   20  C   UNL     1      43.438 -16.483   4.223  1.00  0.00     0.008 A 
ENDBRANCH  13  14
ENDBRANCH  12  13
ENDBRANCH   7  12
BRANCH   2  21
HETATM   21  C   UNL     1      39.098 -11.849  -0.624  1.00  0.00    -0.028 A 
HETATM   22  C   UNL     1      37.768 -12.133  -0.985  1.00  0.00     0.011 A 
HETATM   23  C   UNL     1      37.490 -13.033  -2.016  1.00  0.00     0.024 A 
HETATM   24  C   UNL     1      38.535 -13.658  -2.693  1.00  0.00     0.034 A 
HETATM   25 CL   UNL     1      38.189 -14.765  -3.963  1.00  0.00    -0.084 Cl
HETATM   26  C   UNL     1      39.856 -13.394  -2.346  1.00  0.00     0.024 A 
HETATM   27  C   UNL     1      40.138 -12.495  -1.315  1.00  0.00     0.011 A 
ENDBRANCH   2  21
BRANCH   1  28
HETATM   28  C   UNL     1      38.870  -8.840  -0.857  1.00  0.00     0.293 C 
HETATM   29  O   UNL     1      37.740  -8.604  -0.460  1.00  0.00    -0.259 OA
BRANCH  28  30
HETATM   30  O   UNL     1      39.346  -8.638  -2.110  1.00  0.00    -0.318 OA
BRANCH  30  31
HETATM   31  C   UNL     1      38.543  -9.171  -3.174  1.00  0.00     0.174 C 
HETATM   32  C   UNL     1      39.368 -10.078  -4.067  1.00  0.00     0.034 C 
ENDBRANCH  30  31
ENDBRANCH  28  30
ENDBRANCH   1  28
TORSDOF 7
ENDMDL
