MODEL 1
REMARK VINA RESULT:      -9.2      0.000      0.000
REMARK  10 active torsions:
REMARK  status: ('A' for Active; 'I' for Inactive)
REMARK    1  A    between atoms: C_4  and  C_5 
REMARK    2  A    between atoms: C_5  and  N_6 
REMARK    3  A    between atoms: C_7  and  S_8 
REMARK    4  A    between atoms: S_8  and  C_9 
REMARK    5  A    between atoms: C_9  and  C_10 
REMARK       I    between atoms: C_10  and  N_11 
REMARK    6  A    between atoms: N_11  and  C_12 
REMARK    7  A    between atoms: C_12  and  C_13 
REMARK       I    between atoms: C_13  and  N_14 
REMARK    8  A    between atoms: N_14  and  C_15 
REMARK    9  A    between atoms: C_26  and  C_27 
REMARK   10  A    between atoms: C_27  and  N_28 
ROOT
HETATM    1  N   UNL     1      41.692 -14.364   3.462  1.00  0.00    -0.306 N 
HETATM    2  C   UNL     1      42.204 -13.427   4.322  1.00  0.00     0.192 A 
HETATM    3  N   UNL     1      42.730 -12.441   3.635  1.00  0.00    -0.123 NA
HETATM    4  N   UNL     1      42.521 -12.695   2.307  1.00  0.00    -0.132 NA
HETATM    5  C   UNL     1      41.839 -13.818   2.200  1.00  0.00     0.157 A 
ENDROOT
BRANCH   2   6
HETATM    6  S   UNL     1      42.083 -13.526   6.039  1.00  0.00    -0.081 SA
BRANCH   6   7
HETATM    7  C   UNL     1      43.829 -13.538   6.532  1.00  0.00     0.185 C 
BRANCH   7   8
HETATM    8  C   UNL     1      44.286 -12.163   6.985  1.00  0.00     0.227 C 
HETATM    9  N   UNL     1      43.699 -11.718   8.151  1.00  0.00    -0.352 N 
HETATM   10  H   UNL     1      42.869 -12.174   8.507  1.00  0.00     0.162 HD
HETATM   11  O   UNL     1      45.132 -11.487   6.401  1.00  0.00    -0.273 OA
BRANCH   9  12
HETATM   12  C   UNL     1      44.137 -10.498   8.816  1.00  0.00     0.225 C 
BRANCH  12  13
HETATM   13  C   UNL     1      43.829 -10.484  10.319  1.00  0.00     0.239 C 
HETATM   14  N   UNL     1      42.916  -9.503  10.666  1.00  0.00    -0.326 N 
HETATM   15  H   UNL     1      42.512  -8.985   9.882  1.00  0.00     0.169 HD
HETATM   16  O   UNL     1      44.387 -11.265  11.083  1.00  0.00    -0.271 OA
BRANCH  14  17
HETATM   17  C   UNL     1      42.455  -9.161  11.947  1.00  0.00     0.035 A 
HETATM   18  C   UNL     1      41.315  -9.714  12.539  1.00  0.00     0.032 A 
HETATM   19  C   UNL     1      40.931  -9.327  13.826  1.00  0.00     0.044 A 
HETATM   20  C   UNL     1      41.683  -8.384  14.513  1.00  0.00     0.116 A 
HETATM   21  F   UNL     1      41.307  -8.004  15.741  1.00  0.00    -0.206 F 
HETATM   22  C   UNL     1      42.820  -7.826  13.945  1.00  0.00     0.044 A 
HETATM   23  C   UNL     1      43.209  -8.218  12.663  1.00  0.00     0.032 A 
ENDBRANCH  14  17
ENDBRANCH  12  13
ENDBRANCH   9  12
ENDBRANCH   7   8
ENDBRANCH   6   7
ENDBRANCH   2   6
BRANCH   1  24
HETATM   24  C   UNL     1      41.214 -15.699   3.791  1.00  0.00     0.171 C 
BRANCH  24  25
HETATM   25  C   UNL     1      42.298 -16.742   3.709  1.00  0.00    -0.040 A 
HETATM   26  C   UNL     1      43.085 -17.046   4.832  1.00  0.00     0.009 A 
HETATM   27  C   UNL     1      44.056 -18.047   4.768  1.00  0.00     0.001 A 
HETATM   28  C   UNL     1      44.243 -18.765   3.589  1.00  0.00     0.000 A 
HETATM   29  C   UNL     1      43.460 -18.486   2.474  1.00  0.00     0.001 A 
HETATM   30  C   UNL     1      42.495 -17.480   2.531  1.00  0.00     0.009 A 
ENDBRANCH  24  25
ENDBRANCH   1  24
BRANCH   5  31
HETATM   31  C   UNL     1      41.282 -14.383   0.939  1.00  0.00     0.315 C 
BRANCH  31  32
HETATM   32  N   UNL     1      40.421 -13.417   0.129  1.00  0.00    -0.064 N 
HETATM   33  H   UNL     1      41.072 -12.705  -0.232  1.00  0.00     0.280 HD
HETATM   34  C   UNL     1      39.766 -14.123  -1.034  1.00  0.00     0.235 C 
HETATM   35  C   UNL     1      39.024 -13.123  -1.909  1.00  0.00     0.028 C 
HETATM   36  C   UNL     1      38.018 -12.307  -1.108  1.00  0.00     0.003 C 
HETATM   37  C   UNL     1      38.684 -11.648   0.093  1.00  0.00     0.028 C 
HETATM   38  C   UNL     1      39.404 -12.669   0.968  1.00  0.00     0.235 C 
ENDBRANCH  31  32
ENDBRANCH   5  31
TORSDOF 10
ENDMDL
MODEL 2
REMARK VINA RESULT:      -9.2      1.825      2.488
REMARK  10 active torsions:
REMARK  status: ('A' for Active; 'I' for Inactive)
REMARK    1  A    between atoms: C_4  and  C_5 
REMARK    2  A    between atoms: C_5  and  N_6 
REMARK    3  A    between atoms: C_7  and  S_8 
REMARK    4  A    between atoms: S_8  and  C_9 
REMARK    5  A    between atoms: C_9  and  C_10 
REMARK       I    between atoms: C_10  and  N_11 
REMARK    6  A    between atoms: N_11  and  C_12 
REMARK    7  A    between atoms: C_12  and  C_13 
REMARK       I    between atoms: C_13  and  N_14 
REMARK    8  A    between atoms: N_14  and  C_15 
REMARK    9  A    between atoms: C_26  and  C_27 
REMARK   10  A    between atoms: C_27  and  N_28 
ROOT
HETATM    1  N   UNL     1      41.479 -14.274   3.083  1.00  0.00    -0.306 N 
HETATM    2  C   UNL     1      41.021 -13.738   4.258  1.00  0.00     0.192 A 
HETATM    3  N   UNL     1      39.790 -13.312   4.097  1.00  0.00    -0.123 NA
HETATM    4  N   UNL     1      39.404 -13.615   2.820  1.00  0.00    -0.132 NA
HETATM    5  C   UNL     1      40.394 -14.252   2.226  1.00  0.00     0.157 A 
ENDROOT
BRANCH   2   6
HETATM    6  S   UNL     1      41.925 -13.719   5.727  1.00  0.00    -0.081 SA
BRANCH   6   7
HETATM    7  C   UNL     1      42.812 -12.142   5.593  1.00  0.00     0.185 C 
BRANCH   7   8
HETATM    8  C   UNL     1      43.912 -12.034   6.635  1.00  0.00     0.227 C 
HETATM    9  N   UNL     1      44.925 -11.157   6.311  1.00  0.00    -0.352 N 
HETATM   10  H   UNL     1      45.024 -10.824   5.361  1.00  0.00     0.162 HD
HETATM   11  O   UNL     1      43.914 -12.643   7.703  1.00  0.00    -0.273 OA
BRANCH   9  12
HETATM   12  C   UNL     1      45.973 -10.808   7.261  1.00  0.00     0.225 C 
BRANCH  12  13
HETATM   13  C   UNL     1      45.623  -9.595   8.131  1.00  0.00     0.239 C 
HETATM   14  N   UNL     1      44.557  -9.838   8.979  1.00  0.00    -0.326 N 
HETATM   15  H   UNL     1      44.205 -10.799   8.975  1.00  0.00     0.169 HD
HETATM   16  O   UNL     1      46.241  -8.540   8.019  1.00  0.00    -0.271 OA
BRANCH  14  17
HETATM   17  C   UNL     1      43.927  -8.945   9.862  1.00  0.00     0.035 A 
HETATM   18  C   UNL     1      43.167  -7.847   9.448  1.00  0.00     0.032 A 
HETATM   19  C   UNL     1      42.563  -7.012  10.393  1.00  0.00     0.044 A 
HETATM   20  C   UNL     1      42.727  -7.274  11.746  1.00  0.00     0.116 A 
HETATM   21  F   UNL     1      42.158  -6.467  12.651  1.00  0.00    -0.206 F 
HETATM   22  C   UNL     1      43.475  -8.362  12.176  1.00  0.00     0.044 A 
HETATM   23  C   UNL     1      44.071  -9.200  11.234  1.00  0.00     0.032 A 
ENDBRANCH  14  17
ENDBRANCH  12  13
ENDBRANCH   9  12
ENDBRANCH   7   8
ENDBRANCH   6   7
ENDBRANCH   2   6
BRANCH   1  24
HETATM   24  C   UNL     1      42.843 -14.665   2.762  1.00  0.00     0.171 C 
BRANCH  24  25
HETATM   25  C   UNL     1      43.114 -16.120   3.045  1.00  0.00    -0.040 A 
HETATM   26  C   UNL     1      42.943 -17.089   2.043  1.00  0.00     0.009 A 
HETATM   27  C   UNL     1      43.241 -18.429   2.293  1.00  0.00     0.001 A 
HETATM   28  C   UNL     1      43.727 -18.816   3.540  1.00  0.00     0.000 A 
HETATM   29  C   UNL     1      43.917 -17.865   4.538  1.00  0.00     0.001 A 
HETATM   30  C   UNL     1      43.611 -16.526   4.294  1.00  0.00     0.009 A 
ENDBRANCH  24  25
ENDBRANCH   1  24
BRANCH   5  31
HETATM   31  C   UNL     1      40.339 -14.882   0.877  1.00  0.00     0.315 C 
BRANCH  31  32
HETATM   32  N   UNL     1      39.655 -14.039  -0.197  1.00  0.00    -0.064 N 
HETATM   33  H   UNL     1      38.764 -13.734   0.219  1.00  0.00     0.280 HD
HETATM   34  C   UNL     1      40.484 -12.824  -0.537  1.00  0.00     0.235 C 
HETATM   35  C   UNL     1      39.729 -11.924  -1.505  1.00  0.00     0.028 C 
HETATM   36  C   UNL     1      39.294 -12.676  -2.756  1.00  0.00     0.003 C 
HETATM   37  C   UNL     1      38.508 -13.930  -2.392  1.00  0.00     0.028 C 
HETATM   38  C   UNL     1      39.291 -14.828  -1.439  1.00  0.00     0.235 C 
ENDBRANCH  31  32
ENDBRANCH   5  31
TORSDOF 10
ENDMDL
MODEL 3
REMARK VINA RESULT:      -8.9      1.203      1.600
REMARK  10 active torsions:
REMARK  status: ('A' for Active; 'I' for Inactive)
REMARK    1  A    between atoms: C_4  and  C_5 
REMARK    2  A    between atoms: C_5  and  N_6 
REMARK    3  A    between atoms: C_7  and  S_8 
REMARK    4  A    between atoms: S_8  and  C_9 
REMARK    5  A    between atoms: C_9  and  C_10 
REMARK       I    between atoms: C_10  and  N_11 
REMARK    6  A    between atoms: N_11  and  C_12 
REMARK    7  A    between atoms: C_12  and  C_13 
REMARK       I    between atoms: C_13  and  N_14 
REMARK    8  A    between atoms: N_14  and  C_15 
REMARK    9  A    between atoms: C_26  and  C_27 
REMARK   10  A    between atoms: C_27  and  N_28 
ROOT
HETATM    1  N   UNL     1      41.540 -14.150   3.227  1.00  0.00    -0.306 N 
HETATM    2  C   UNL     1      41.184 -13.515   4.388  1.00  0.00     0.192 A 
HETATM    3  N   UNL     1      39.938 -13.112   4.305  1.00  0.00    -0.123 NA
HETATM    4  N   UNL     1      39.442 -13.528   3.100  1.00  0.00    -0.132 NA
HETATM    5  C   UNL     1      40.381 -14.209   2.475  1.00  0.00     0.157 A 
ENDROOT
BRANCH   2   6
HETATM    6  S   UNL     1      42.218 -13.363   5.760  1.00  0.00    -0.081 SA
BRANCH   6   7
HETATM    7  C   UNL     1      42.682 -11.611   5.678  1.00  0.00     0.185 C 
BRANCH   7   8
HETATM    8  C   UNL     1      43.819 -11.293   6.634  1.00  0.00     0.227 C 
HETATM    9  N   UNL     1      43.601 -10.198   7.442  1.00  0.00    -0.352 N 
HETATM   10  H   UNL     1      42.860  -9.545   7.224  1.00  0.00     0.162 HD
HETATM   11  O   UNL     1      44.851 -11.956   6.726  1.00  0.00    -0.273 OA
BRANCH   9  12
HETATM   12  C   UNL     1      44.510  -9.848   8.526  1.00  0.00     0.225 C 
BRANCH  12  13
HETATM   13  C   UNL     1      43.948 -10.171   9.916  1.00  0.00     0.239 C 
HETATM   14  N   UNL     1      43.173  -9.146  10.429  1.00  0.00    -0.326 N 
HETATM   15  H   UNL     1      43.011  -8.361   9.793  1.00  0.00     0.169 HD
HETATM   16  O   UNL     1      44.218 -11.232  10.472  1.00  0.00    -0.271 OA
BRANCH  14  17
HETATM   17  C   UNL     1      42.559  -9.069  11.690  1.00  0.00     0.035 A 
HETATM   18  C   UNL     1      41.380  -9.741  12.024  1.00  0.00     0.032 A 
HETATM   19  C   UNL     1      40.840  -9.621  13.308  1.00  0.00     0.044 A 
HETATM   20  C   UNL     1      41.478  -8.824  14.250  1.00  0.00     0.116 A 
HETATM   21  F   UNL     1      40.953  -8.698  15.475  1.00  0.00    -0.206 F 
HETATM   22  C   UNL     1      42.652  -8.152  13.938  1.00  0.00     0.044 A 
HETATM   23  C   UNL     1      43.195  -8.278  12.658  1.00  0.00     0.032 A 
ENDBRANCH  14  17
ENDBRANCH  12  13
ENDBRANCH   9  12
ENDBRANCH   7   8
ENDBRANCH   6   7
ENDBRANCH   2   6
BRANCH   1  24
HETATM   24  C   UNL     1      42.875 -14.560   2.816  1.00  0.00     0.171 C 
BRANCH  24  25
HETATM   25  C   UNL     1      43.151 -16.014   3.099  1.00  0.00    -0.040 A 
HETATM   26  C   UNL     1      43.076 -16.969   2.073  1.00  0.00     0.009 A 
HETATM   27  C   UNL     1      43.378 -18.308   2.325  1.00  0.00     0.001 A 
HETATM   28  C   UNL     1      43.774 -18.706   3.601  1.00  0.00     0.000 A 
HETATM   29  C   UNL     1      43.868 -17.767   4.623  1.00  0.00     0.001 A 
HETATM   30  C   UNL     1      43.557 -16.430   4.376  1.00  0.00     0.009 A 
ENDBRANCH  24  25
ENDBRANCH   1  24
BRANCH   5  31
HETATM   31  C   UNL     1      40.213 -14.954   1.195  1.00  0.00     0.315 C 
BRANCH  31  32
HETATM   32  N   UNL     1      40.600 -14.173  -0.058  1.00  0.00    -0.064 N 
HETATM   33  H   UNL     1      41.579 -14.428  -0.250  1.00  0.00     0.280 HD
HETATM   34  C   UNL     1      39.743 -14.579  -1.233  1.00  0.00     0.235 C 
HETATM   35  C   UNL     1      40.228 -13.895  -2.502  1.00  0.00     0.028 C 
HETATM   36  C   UNL     1      40.284 -12.381  -2.344  1.00  0.00     0.003 C 
HETATM   37  C   UNL     1      41.105 -11.991  -1.121  1.00  0.00     0.028 C 
HETATM   38  C   UNL     1      40.589 -12.670   0.143  1.00  0.00     0.235 C 
ENDBRANCH  31  32
ENDBRANCH   5  31
TORSDOF 10
ENDMDL
MODEL 4
REMARK VINA RESULT:      -8.9      4.391     10.670
REMARK  10 active torsions:
REMARK  status: ('A' for Active; 'I' for Inactive)
REMARK    1  A    between atoms: C_4  and  C_5 
REMARK    2  A    between atoms: C_5  and  N_6 
REMARK    3  A    between atoms: C_7  and  S_8 
REMARK    4  A    between atoms: S_8  and  C_9 
REMARK    5  A    between atoms: C_9  and  C_10 
REMARK       I    between atoms: C_10  and  N_11 
REMARK    6  A    between atoms: N_11  and  C_12 
REMARK    7  A    between atoms: C_12  and  C_13 
REMARK       I    between atoms: C_13  and  N_14 
REMARK    8  A    between atoms: N_14  and  C_15 
REMARK    9  A    between atoms: C_26  and  C_27 
REMARK   10  A    between atoms: C_27  and  N_28 
ROOT
HETATM    1  N   UNL     1      40.207  -9.337   7.696  1.00  0.00    -0.306 N 
HETATM    2  C   UNL     1      39.515 -10.406   7.188  1.00  0.00     0.192 A 
HETATM    3  N   UNL     1      38.716 -10.890   8.109  1.00  0.00    -0.123 NA
HETATM    4  N   UNL     1      38.834 -10.106   9.223  1.00  0.00    -0.132 NA
HETATM    5  C   UNL     1      39.682  -9.131   8.958  1.00  0.00     0.157 A 
ENDROOT
BRANCH   2   6
HETATM    6  S   UNL     1      39.643 -10.950   5.557  1.00  0.00    -0.081 SA
BRANCH   6   7
HETATM    7  C   UNL     1      39.824 -12.742   5.779  1.00  0.00     0.185 C 
BRANCH   7   8
HETATM    8  C   UNL     1      41.229 -13.205   5.434  1.00  0.00     0.227 C 
HETATM    9  N   UNL     1      41.615 -12.949   4.136  1.00  0.00    -0.352 N 
HETATM   10  H   UNL     1      40.924 -12.704   3.439  1.00  0.00     0.162 HD
HETATM   11  O   UNL     1      41.997 -13.740   6.233  1.00  0.00    -0.273 OA
BRANCH   9  12
HETATM   12  C   UNL     1      42.981 -13.176   3.680  1.00  0.00     0.225 C 
BRANCH  12  13
HETATM   13  C   UNL     1      43.168 -14.526   2.976  1.00  0.00     0.239 C 
HETATM   14  N   UNL     1      43.131 -15.594   3.854  1.00  0.00    -0.326 N 
HETATM   15  H   UNL     1      42.905 -15.356   4.823  1.00  0.00     0.169 HD
HETATM   16  O   UNL     1      43.355 -14.582   1.764  1.00  0.00    -0.271 OA
BRANCH  14  17
HETATM   17  C   UNL     1      43.330 -16.956   3.574  1.00  0.00     0.035 A 
HETATM   18  C   UNL     1      42.823 -17.600   2.441  1.00  0.00     0.032 A 
HETATM   19  C   UNL     1      43.077 -18.958   2.230  1.00  0.00     0.044 A 
HETATM   20  C   UNL     1      43.832 -19.668   3.154  1.00  0.00     0.116 A 
HETATM   21  F   UNL     1      44.064 -20.972   2.958  1.00  0.00    -0.206 F 
HETATM   22  C   UNL     1      44.347 -19.045   4.283  1.00  0.00     0.044 A 
HETATM   23  C   UNL     1      44.100 -17.687   4.490  1.00  0.00     0.032 A 
ENDBRANCH  14  17
ENDBRANCH  12  13
ENDBRANCH   9  12
ENDBRANCH   7   8
ENDBRANCH   6   7
ENDBRANCH   2   6
BRANCH   1  24
HETATM   24  C   UNL     1      41.337  -8.647   7.092  1.00  0.00     0.171 C 
BRANCH  24  25
HETATM   25  C   UNL     1      42.660  -9.084   7.665  1.00  0.00    -0.040 A 
HETATM   26  C   UNL     1      43.521  -8.152   8.268  1.00  0.00     0.009 A 
HETATM   27  C   UNL     1      44.725  -8.566   8.842  1.00  0.00     0.001 A 
HETATM   28  C   UNL     1      45.075  -9.914   8.835  1.00  0.00     0.000 A 
HETATM   29  C   UNL     1      44.224 -10.850   8.255  1.00  0.00     0.001 A 
HETATM   30  C   UNL     1      43.025 -10.439   7.673  1.00  0.00     0.009 A 
ENDBRANCH  24  25
ENDBRANCH   1  24
BRANCH   5  31
HETATM   31  C   UNL     1      39.990  -7.977   9.849  1.00  0.00     0.315 C 
BRANCH  31  32
HETATM   32  N   UNL     1      41.265  -8.127  10.675  1.00  0.00    -0.064 N 
HETATM   33  H   UNL     1      42.038  -7.919  10.028  1.00  0.00     0.280 HD
HETATM   34  C   UNL     1      41.291  -7.135  11.812  1.00  0.00     0.235 C 
HETATM   35  C   UNL     1      42.624  -7.202  12.542  1.00  0.00     0.028 C 
HETATM   36  C   UNL     1      42.936  -8.614  13.022  1.00  0.00     0.003 C 
HETATM   37  C   UNL     1      42.850  -9.611  11.873  1.00  0.00     0.028 C 
HETATM   38  C   UNL     1      41.498  -9.542  11.169  1.00  0.00     0.235 C 
ENDBRANCH  31  32
ENDBRANCH   5  31
TORSDOF 10
ENDMDL
MODEL 5
REMARK VINA RESULT:      -8.9      4.184     10.558
REMARK  10 active torsions:
REMARK  status: ('A' for Active; 'I' for Inactive)
REMARK    1  A    between atoms: C_4  and  C_5 
REMARK    2  A    between atoms: C_5  and  N_6 
REMARK    3  A    between atoms: C_7  and  S_8 
REMARK    4  A    between atoms: S_8  and  C_9 
REMARK    5  A    between atoms: C_9  and  C_10 
REMARK       I    between atoms: C_10  and  N_11 
REMARK    6  A    between atoms: N_11  and  C_12 
REMARK    7  A    between atoms: C_12  and  C_13 
REMARK       I    between atoms: C_13  and  N_14 
REMARK    8  A    between atoms: N_14  and  C_15 
REMARK    9  A    between atoms: C_26  and  C_27 
REMARK   10  A    between atoms: C_27  and  N_28 
ROOT
HETATM    1  N   UNL     1      42.339  -8.953  10.411  1.00  0.00    -0.306 N 
HETATM    2  C   UNL     1      41.416  -8.127   9.825  1.00  0.00     0.192 A 
HETATM    3  N   UNL     1      41.996  -7.411   8.891  1.00  0.00    -0.123 NA
HETATM    4  N   UNL     1      43.305  -7.801   8.815  1.00  0.00    -0.132 NA
HETATM    5  C   UNL     1      43.501  -8.774   9.683  1.00  0.00     0.157 A 
ENDROOT
BRANCH   2   6
HETATM    6  S   UNL     1      39.738  -8.117  10.226  1.00  0.00    -0.081 SA
BRANCH   6   7
HETATM    7  C   UNL     1      39.194  -9.719   9.571  1.00  0.00     0.185 C 
BRANCH   7   8
HETATM    8  C   UNL     1      39.326  -9.773   8.058  1.00  0.00     0.227 C 
HETATM    9  N   UNL     1      39.903 -10.928   7.574  1.00  0.00    -0.352 N 
HETATM   10  H   UNL     1      40.404 -11.546   8.199  1.00  0.00     0.162 HD
HETATM   11  O   UNL     1      38.934  -8.890   7.298  1.00  0.00    -0.273 OA
BRANCH   9  12
HETATM   12  C   UNL     1      39.960 -11.219   6.148  1.00  0.00     0.225 C 
BRANCH  12  13
HETATM   13  C   UNL     1      40.151 -12.711   5.842  1.00  0.00     0.239 C 
HETATM   14  N   UNL     1      40.971 -12.929   4.749  1.00  0.00    -0.326 N 
HETATM   15  H   UNL     1      41.400 -12.090   4.350  1.00  0.00     0.169 HD
HETATM   16  O   UNL     1      39.587 -13.568   6.514  1.00  0.00    -0.271 OA
BRANCH  14  17
HETATM   17  C   UNL     1      41.311 -14.152   4.148  1.00  0.00     0.035 A 
HETATM   18  C   UNL     1      42.463 -14.880   4.461  1.00  0.00     0.032 A 
HETATM   19  C   UNL     1      42.721 -16.098   3.826  1.00  0.00     0.044 A 
HETATM   20  C   UNL     1      41.831 -16.580   2.875  1.00  0.00     0.116 A 
HETATM   21  F   UNL     1      42.085 -17.740   2.257  1.00  0.00    -0.206 F 
HETATM   22  C   UNL     1      40.680 -15.873   2.554  1.00  0.00     0.044 A 
HETATM   23  C   UNL     1      40.417 -14.661   3.194  1.00  0.00     0.032 A 
ENDBRANCH  14  17
ENDBRANCH  12  13
ENDBRANCH   9  12
ENDBRANCH   7   8
ENDBRANCH   6   7
ENDBRANCH   2   6
BRANCH   1  24
HETATM   24  C   UNL     1      42.173  -9.751  11.617  1.00  0.00     0.171 C 
BRANCH  24  25
HETATM   25  C   UNL     1      42.271  -8.929  12.877  1.00  0.00    -0.040 A 
HETATM   26  C   UNL     1      43.227  -7.908  12.992  1.00  0.00     0.009 A 
HETATM   27  C   UNL     1      43.285  -7.116  14.140  1.00  0.00     0.001 A 
HETATM   28  C   UNL     1      42.380  -7.324  15.178  1.00  0.00     0.000 A 
HETATM   29  C   UNL     1      41.417  -8.322  15.071  1.00  0.00     0.001 A 
HETATM   30  C   UNL     1      41.362  -9.121  13.929  1.00  0.00     0.009 A 
ENDBRANCH  24  25
ENDBRANCH   1  24
BRANCH   5  31
HETATM   31  C   UNL     1      44.748  -9.576   9.826  1.00  0.00     0.315 C 
BRANCH  31  32
HETATM   32  N   UNL     1      44.989 -10.592   8.712  1.00  0.00    -0.064 N 
HETATM   33  H   UNL     1      45.499 -11.369   9.154  1.00  0.00     0.280 HD
HETATM   34  C   UNL     1      43.681 -11.108   8.162  1.00  0.00     0.235 C 
HETATM   35  C   UNL     1      43.934 -12.216   7.151  1.00  0.00     0.028 C 
HETATM   36  C   UNL     1      44.873 -11.765   6.039  1.00  0.00     0.003 C 
HETATM   37  C   UNL     1      46.164 -11.195   6.614  1.00  0.00     0.028 C 
HETATM   38  C   UNL     1      45.888 -10.071   7.608  1.00  0.00     0.235 C 
ENDBRANCH  31  32
ENDBRANCH   5  31
TORSDOF 10
ENDMDL
MODEL 6
REMARK VINA RESULT:      -8.8      4.738     10.719
REMARK  10 active torsions:
REMARK  status: ('A' for Active; 'I' for Inactive)
REMARK    1  A    between atoms: C_4  and  C_5 
REMARK    2  A    between atoms: C_5  and  N_6 
REMARK    3  A    between atoms: C_7  and  S_8 
REMARK    4  A    between atoms: S_8  and  C_9 
REMARK    5  A    between atoms: C_9  and  C_10 
REMARK       I    between atoms: C_10  and  N_11 
REMARK    6  A    between atoms: N_11  and  C_12 
REMARK    7  A    between atoms: C_12  and  C_13 
REMARK       I    between atoms: C_13  and  N_14 
REMARK    8  A    between atoms: N_14  and  C_15 
REMARK    9  A    between atoms: C_26  and  C_27 
REMARK   10  A    between atoms: C_27  and  N_28 
ROOT
HETATM    1  N   UNL     1      40.702  -8.763   8.324  1.00  0.00    -0.306 N 
HETATM    2  C   UNL     1      40.663  -9.721   7.344  1.00  0.00     0.192 A 
HETATM    3  N   UNL     1      39.614 -10.489   7.521  1.00  0.00    -0.123 NA
HETATM    4  N   UNL     1      38.916 -10.008   8.595  1.00  0.00    -0.132 NA
HETATM    5  C   UNL     1      39.532  -8.931   9.042  1.00  0.00     0.157 A 
ENDROOT
BRANCH   2   6
HETATM    6  S   UNL     1      41.794  -9.819   6.046  1.00  0.00    -0.081 SA
BRANCH   6   7
HETATM    7  C   UNL     1      41.570 -11.532   5.491  1.00  0.00     0.185 C 
BRANCH   7   8
HETATM    8  C   UNL     1      42.677 -12.432   6.012  1.00  0.00     0.227 C 
HETATM    9  N   UNL     1      42.240 -13.515   6.746  1.00  0.00    -0.352 N 
HETATM   10  H   UNL     1      41.290 -13.542   7.094  1.00  0.00     0.162 HD
HETATM   11  O   UNL     1      43.874 -12.256   5.792  1.00  0.00    -0.273 OA
BRANCH   9  12
HETATM   12  C   UNL     1      43.148 -14.567   7.182  1.00  0.00     0.225 C 
BRANCH  12  13
HETATM   13  C   UNL     1      42.890 -15.914   6.495  1.00  0.00     0.239 C 
HETATM   14  N   UNL     1      43.684 -16.103   5.378  1.00  0.00    -0.326 N 
HETATM   15  H   UNL     1      44.382 -15.374   5.210  1.00  0.00     0.169 HD
HETATM   16  O   UNL     1      42.036 -16.685   6.923  1.00  0.00    -0.271 OA
BRANCH  14  17
HETATM   17  C   UNL     1      43.673 -17.180   4.476  1.00  0.00     0.035 A 
HETATM   18  C   UNL     1      44.136 -18.461   4.788  1.00  0.00     0.032 A 
HETATM   19  C   UNL     1      44.078 -19.483   3.835  1.00  0.00     0.044 A 
HETATM   20  C   UNL     1      43.562 -19.217   2.574  1.00  0.00     0.116 A 
HETATM   21  F   UNL     1      43.518 -20.193   1.657  1.00  0.00    -0.206 F 
HETATM   22  C   UNL     1      43.093 -17.952   2.247  1.00  0.00     0.044 A 
HETATM   23  C   UNL     1      43.144 -16.934   3.201  1.00  0.00     0.032 A 
ENDBRANCH  14  17
ENDBRANCH  12  13
ENDBRANCH   9  12
ENDBRANCH   7   8
ENDBRANCH   6   7
ENDBRANCH   2   6
BRANCH   1  24
HETATM   24  C   UNL     1      41.794  -7.851   8.626  1.00  0.00     0.171 C 
BRANCH  24  25
HETATM   25  C   UNL     1      43.022  -8.561   9.135  1.00  0.00    -0.040 A 
HETATM   26  C   UNL     1      44.289  -8.271   8.603  1.00  0.00     0.009 A 
HETATM   27  C   UNL     1      45.431  -8.894   9.108  1.00  0.00     0.001 A 
HETATM   28  C   UNL     1      45.324  -9.800  10.161  1.00  0.00     0.000 A 
HETATM   29  C   UNL     1      44.077 -10.085  10.709  1.00  0.00     0.001 A 
HETATM   30  C   UNL     1      42.933  -9.471  10.200  1.00  0.00     0.009 A 
ENDBRANCH  24  25
ENDBRANCH   1  24
BRANCH   5  31
HETATM   31  C   UNL     1      39.031  -8.021  10.110  1.00  0.00     0.315 C 
BRANCH  31  32
HETATM   32  N   UNL     1      39.433  -8.416  11.529  1.00  0.00    -0.064 N 
HETATM   33  H   UNL     1      38.602  -8.235  12.111  1.00  0.00     0.280 HD
HETATM   34  C   UNL     1      39.779  -9.883  11.603  1.00  0.00     0.235 C 
HETATM   35  C   UNL     1      40.044 -10.292  13.044  1.00  0.00     0.028 C 
HETATM   36  C   UNL     1      41.119  -9.428  13.689  1.00  0.00     0.003 C 
HETATM   37  C   UNL     1      40.782  -7.948  13.556  1.00  0.00     0.028 C 
HETATM   38  C   UNL     1      40.542  -7.555  12.102  1.00  0.00     0.235 C 
ENDBRANCH  31  32
ENDBRANCH   5  31
TORSDOF 10
ENDMDL
MODEL 7
REMARK VINA RESULT:      -8.6      4.851      7.614
REMARK  10 active torsions:
REMARK  status: ('A' for Active; 'I' for Inactive)
REMARK    1  A    between atoms: C_4  and  C_5 
REMARK    2  A    between atoms: C_5  and  N_6 
REMARK    3  A    between atoms: C_7  and  S_8 
REMARK    4  A    between atoms: S_8  and  C_9 
REMARK    5  A    between atoms: C_9  and  C_10 
REMARK       I    between atoms: C_10  and  N_11 
REMARK    6  A    between atoms: N_11  and  C_12 
REMARK    7  A    between atoms: C_12  and  C_13 
REMARK       I    between atoms: C_13  and  N_14 
REMARK    8  A    between atoms: N_14  and  C_15 
REMARK    9  A    between atoms: C_26  and  C_27 
REMARK   10  A    between atoms: C_27  and  N_28 
ROOT
HETATM    1  N   UNL     1      41.453 -10.855   3.269  1.00  0.00    -0.306 N 
HETATM    2  C   UNL     1      40.999 -10.370   4.469  1.00  0.00     0.192 A 
HETATM    3  N   UNL     1      40.393  -9.223   4.278  1.00  0.00    -0.123 NA
HETATM    4  N   UNL     1      40.394  -8.964   2.935  1.00  0.00    -0.132 NA
HETATM    5  C   UNL     1      40.974  -9.974   2.317  1.00  0.00     0.157 A 
ENDROOT
BRANCH   2   6
HETATM    6  S   UNL     1      41.149 -11.211   5.967  1.00  0.00    -0.081 SA
BRANCH   6   7
HETATM    7  C   UNL     1      42.914 -10.998   6.333  1.00  0.00     0.185 C 
BRANCH   7   8
HETATM    8  C   UNL     1      43.513 -12.263   6.924  1.00  0.00     0.227 C 
HETATM    9  N   UNL     1      42.746 -13.396   6.754  1.00  0.00    -0.352 N 
HETATM   10  H   UNL     1      41.776 -13.315   6.481  1.00  0.00     0.162 HD
HETATM   11  O   UNL     1      44.605 -12.312   7.488  1.00  0.00    -0.273 OA
BRANCH   9  12
HETATM   12  C   UNL     1      43.239 -14.719   7.111  1.00  0.00     0.225 C 
BRANCH  12  13
HETATM   13  C   UNL     1      42.780 -15.818   6.144  1.00  0.00     0.239 C 
HETATM   14  N   UNL     1      43.835 -16.557   5.638  1.00  0.00    -0.326 N 
HETATM   15  H   UNL     1      44.753 -16.334   6.031  1.00  0.00     0.169 HD
HETATM   16  O   UNL     1      41.592 -15.957   5.867  1.00  0.00    -0.271 OA
BRANCH  14  17
HETATM   17  C   UNL     1      43.795 -17.589   4.686  1.00  0.00     0.035 A 
HETATM   18  C   UNL     1      44.091 -18.925   4.973  1.00  0.00     0.032 A 
HETATM   19  C   UNL     1      44.014 -19.895   3.969  1.00  0.00     0.044 A 
HETATM   20  C   UNL     1      43.649 -19.524   2.682  1.00  0.00     0.116 A 
HETATM   21  F   UNL     1      43.589 -20.451   1.718  1.00  0.00    -0.206 F 
HETATM   22  C   UNL     1      43.348 -18.203   2.379  1.00  0.00     0.044 A 
HETATM   23  C   UNL     1      43.416 -17.236   3.383  1.00  0.00     0.032 A 
ENDBRANCH  14  17
ENDBRANCH  12  13
ENDBRANCH   9  12
ENDBRANCH   7   8
ENDBRANCH   6   7
ENDBRANCH   2   6
BRANCH   1  24
HETATM   24  C   UNL     1      42.352 -11.979   3.052  1.00  0.00     0.171 C 
BRANCH  24  25
HETATM   25  C   UNL     1      41.635 -13.212   2.567  1.00  0.00    -0.040 A 
HETATM   26  C   UNL     1      40.319 -13.482   2.975  1.00  0.00     0.009 A 
HETATM   27  C   UNL     1      39.639 -14.599   2.486  1.00  0.00     0.001 A 
HETATM   28  C   UNL     1      40.259 -15.450   1.574  1.00  0.00     0.000 A 
HETATM   29  C   UNL     1      41.557 -15.186   1.148  1.00  0.00     0.001 A 
HETATM   30  C   UNL     1      42.242 -14.075   1.642  1.00  0.00     0.009 A 
ENDBRANCH  24  25
ENDBRANCH   1  24
BRANCH   5  31
HETATM   31  C   UNL     1      41.059 -10.160   0.841  1.00  0.00     0.315 C 
BRANCH  31  32
HETATM   32  N   UNL     1      40.087 -11.188   0.267  1.00  0.00    -0.064 N 
HETATM   33  H   UNL     1      39.903 -11.851   1.034  1.00  0.00     0.280 HD
HETATM   34  C   UNL     1      38.789 -10.533  -0.142  1.00  0.00     0.235 C 
HETATM   35  C   UNL     1      37.782 -11.585  -0.583  1.00  0.00     0.028 C 
HETATM   36  C   UNL     1      38.338 -12.472  -1.689  1.00  0.00     0.003 C 
HETATM   37  C   UNL     1      39.674 -13.079  -1.282  1.00  0.00     0.028 C 
HETATM   38  C   UNL     1      40.676 -12.007  -0.865  1.00  0.00     0.235 C 
ENDBRANCH  31  32
ENDBRANCH   5  31
TORSDOF 10
ENDMDL
MODEL 8
REMARK VINA RESULT:      -8.5      4.585     11.299
REMARK  10 active torsions:
REMARK  status: ('A' for Active; 'I' for Inactive)
REMARK    1  A    between atoms: C_4  and  C_5 
REMARK    2  A    between atoms: C_5  and  N_6 
REMARK    3  A    between atoms: C_7  and  S_8 
REMARK    4  A    between atoms: S_8  and  C_9 
REMARK    5  A    between atoms: C_9  and  C_10 
REMARK       I    between atoms: C_10  and  N_11 
REMARK    6  A    between atoms: N_11  and  C_12 
REMARK    7  A    between atoms: C_12  and  C_13 
REMARK       I    between atoms: C_13  and  N_14 
REMARK    8  A    between atoms: N_14  and  C_15 
REMARK    9  A    between atoms: C_26  and  C_27 
REMARK   10  A    between atoms: C_27  and  N_28 
ROOT
HETATM    1  N   UNL     1      43.228  -8.740   9.288  1.00  0.00    -0.306 N 
HETATM    2  C   UNL     1      44.479  -9.145   8.902  1.00  0.00     0.192 A 
HETATM    3  N   UNL     1      45.155  -8.116   8.450  1.00  0.00    -0.123 NA
HETATM    4  N   UNL     1      44.370  -7.004   8.586  1.00  0.00    -0.132 NA
HETATM    5  C   UNL     1      43.234  -7.364   9.150  1.00  0.00     0.157 A 
ENDROOT
BRANCH   2   6
HETATM    6  S   UNL     1      45.067 -10.757   9.075  1.00  0.00    -0.081 SA
BRANCH   6   7
HETATM    7  C   UNL     1      45.229 -11.278   7.345  1.00  0.00     0.185 C 
BRANCH   7   8
HETATM    8  C   UNL     1      43.876 -11.605   6.735  1.00  0.00     0.227 C 
HETATM    9  N   UNL     1      43.491 -12.922   6.864  1.00  0.00    -0.352 N 
HETATM   10  H   UNL     1      44.170 -13.627   7.121  1.00  0.00     0.162 HD
HETATM   11  O   UNL     1      43.146 -10.779   6.190  1.00  0.00    -0.273 OA
BRANCH   9  12
HETATM   12  C   UNL     1      42.160 -13.376   6.484  1.00  0.00     0.225 C 
BRANCH  12  13
HETATM   13  C   UNL     1      42.133 -14.825   5.983  1.00  0.00     0.239 C 
HETATM   14  N   UNL     1      43.214 -15.129   5.174  1.00  0.00    -0.326 N 
HETATM   15  H   UNL     1      43.916 -14.390   5.087  1.00  0.00     0.169 HD
HETATM   16  O   UNL     1      41.210 -15.577   6.281  1.00  0.00    -0.271 OA
BRANCH  14  17
HETATM   17  C   UNL     1      43.479 -16.328   4.493  1.00  0.00     0.035 A 
HETATM   18  C   UNL     1      44.206 -17.390   5.039  1.00  0.00     0.032 A 
HETATM   19  C   UNL     1      44.415 -18.556   4.298  1.00  0.00     0.044 A 
HETATM   20  C   UNL     1      43.902 -18.654   3.012  1.00  0.00     0.116 A 
HETATM   21  F   UNL     1      44.114 -19.767   2.297  1.00  0.00    -0.206 F 
HETATM   22  C   UNL     1      43.174 -17.613   2.453  1.00  0.00     0.044 A 
HETATM   23  C   UNL     1      42.958 -16.451   3.196  1.00  0.00     0.032 A 
ENDBRANCH  14  17
ENDBRANCH  12  13
ENDBRANCH   9  12
ENDBRANCH   7   8
ENDBRANCH   6   7
ENDBRANCH   2   6
BRANCH   1  24
HETATM   24  C   UNL     1      42.096  -9.582   9.645  1.00  0.00     0.171 C 
BRANCH  24  25
HETATM   25  C   UNL     1      41.738  -9.487  11.106  1.00  0.00    -0.040 A 
HETATM   26  C   UNL     1      42.741  -9.446  12.087  1.00  0.00     0.009 A 
HETATM   27  C   UNL     1      42.410  -9.309  13.436  1.00  0.00     0.001 A 
HETATM   28  C   UNL     1      41.075  -9.197  13.820  1.00  0.00     0.000 A 
HETATM   29  C   UNL     1      40.071  -9.221  12.857  1.00  0.00     0.001 A 
HETATM   30  C   UNL     1      40.399  -9.366  11.508  1.00  0.00     0.009 A 
ENDBRANCH  24  25
ENDBRANCH   1  24
BRANCH   5  31
HETATM   31  C   UNL     1      42.155  -6.441   9.604  1.00  0.00     0.315 C 
BRANCH  31  32
HETATM   32  N   UNL     1      42.520  -5.569  10.803  1.00  0.00    -0.064 N 
HETATM   33  H   UNL     1      43.488  -5.824  11.044  1.00  0.00     0.280 HD
HETATM   34  C   UNL     1      42.469  -4.105  10.440  1.00  0.00     0.235 C 
HETATM   35  C   UNL     1      42.965  -3.255  11.601  1.00  0.00     0.028 C 
HETATM   36  C   UNL     1      42.196  -3.544  12.884  1.00  0.00     0.003 C 
HETATM   37  C   UNL     1      42.210  -5.034  13.204  1.00  0.00     0.028 C 
HETATM   38  C   UNL     1      41.688  -5.865  12.036  1.00  0.00     0.235 C 
ENDBRANCH  31  32
ENDBRANCH   5  31
TORSDOF 10
ENDMDL
MODEL 9
REMARK VINA RESULT:      -8.5      4.189      9.588
REMARK  10 active torsions:
REMARK  status: ('A' for Active; 'I' for Inactive)
REMARK    1  A    between atoms: C_4  and  C_5 
REMARK    2  A    between atoms: C_5  and  N_6 
REMARK    3  A    between atoms: C_7  and  S_8 
REMARK    4  A    between atoms: S_8  and  C_9 
REMARK    5  A    between atoms: C_9  and  C_10 
REMARK       I    between atoms: C_10  and  N_11 
REMARK    6  A    between atoms: N_11  and  C_12 
REMARK    7  A    between atoms: C_12  and  C_13 
REMARK       I    between atoms: C_13  and  N_14 
REMARK    8  A    between atoms: N_14  and  C_15 
REMARK    9  A    between atoms: C_26  and  C_27 
REMARK   10  A    between atoms: C_27  and  N_28 
ROOT
HETATM    1  N   UNL     1      41.193 -11.387   5.719  1.00  0.00    -0.306 N 
HETATM    2  C   UNL     1      39.863 -11.252   5.414  1.00  0.00     0.192 A 
HETATM    3  N   UNL     1      39.307 -10.398   6.239  1.00  0.00    -0.123 NA
HETATM    4  N   UNL     1      40.284  -9.917   7.068  1.00  0.00    -0.132 NA
HETATM    5  C   UNL     1      41.433 -10.460   6.716  1.00  0.00     0.157 A 
ENDROOT
BRANCH   2   6
HETATM    6  S   UNL     1      39.094 -12.040   4.087  1.00  0.00    -0.081 SA
BRANCH   6   7
HETATM    7  C   UNL     1      39.818 -11.169   2.670  1.00  0.00     0.185 C 
BRANCH   7   8
HETATM    8  C   UNL     1      40.168 -12.131   1.548  1.00  0.00     0.227 C 
HETATM    9  N   UNL     1      41.167 -13.031   1.854  1.00  0.00    -0.352 N 
HETATM   10  H   UNL     1      41.758 -12.879   2.661  1.00  0.00     0.162 HD
HETATM   11  O   UNL     1      39.606 -12.152   0.454  1.00  0.00    -0.273 OA
BRANCH   9  12
HETATM   12  C   UNL     1      41.516 -14.127   0.959  1.00  0.00     0.225 C 
BRANCH  12  13
HETATM   13  C   UNL     1      41.580 -15.488   1.664  1.00  0.00     0.239 C 
HETATM   14  N   UNL     1      42.834 -15.760   2.181  1.00  0.00    -0.326 N 
HETATM   15  H   UNL     1      43.515 -15.001   2.102  1.00  0.00     0.169 HD
HETATM   16  O   UNL     1      40.598 -16.222   1.705  1.00  0.00    -0.271 OA
BRANCH  14  17
HETATM   17  C   UNL     1      43.272 -16.928   2.827  1.00  0.00     0.035 A 
HETATM   18  C   UNL     1      43.306 -18.187   2.222  1.00  0.00     0.032 A 
HETATM   19  C   UNL     1      43.769 -19.299   2.932  1.00  0.00     0.044 A 
HETATM   20  C   UNL     1      44.188 -19.149   4.247  1.00  0.00     0.116 A 
HETATM   21  F   UNL     1      44.619 -20.216   4.931  1.00  0.00    -0.206 F 
HETATM   22  C   UNL     1      44.166 -17.906   4.864  1.00  0.00     0.044 A 
HETATM   23  C   UNL     1      43.712 -16.794   4.153  1.00  0.00     0.032 A 
ENDBRANCH  14  17
ENDBRANCH  12  13
ENDBRANCH   9  12
ENDBRANCH   7   8
ENDBRANCH   6   7
ENDBRANCH   2   6
BRANCH   1  24
HETATM   24  C   UNL     1      42.124 -12.377   5.198  1.00  0.00     0.171 C 
BRANCH  24  25
HETATM   25  C   UNL     1      42.142 -13.644   6.013  1.00  0.00    -0.040 A 
HETATM   26  C   UNL     1      41.080 -14.559   5.937  1.00  0.00     0.009 A 
HETATM   27  C   UNL     1      41.120 -15.756   6.655  1.00  0.00     0.001 A 
HETATM   28  C   UNL     1      42.227 -16.059   7.445  1.00  0.00     0.000 A 
HETATM   29  C   UNL     1      43.294 -15.168   7.518  1.00  0.00     0.001 A 
HETATM   30  C   UNL     1      43.252 -13.968   6.808  1.00  0.00     0.009 A 
ENDBRANCH  24  25
ENDBRANCH   1  24
BRANCH   5  31
HETATM   31  C   UNL     1      42.770 -10.104   7.269  1.00  0.00     0.315 C 
BRANCH  31  32
HETATM   32  N   UNL     1      42.812  -9.930   8.785  1.00  0.00    -0.064 N 
HETATM   33  H   UNL     1      41.974 -10.410   9.140  1.00  0.00     0.280 HD
HETATM   34  C   UNL     1      44.042 -10.582   9.369  1.00  0.00     0.235 C 
HETATM   35  C   UNL     1      44.001 -10.520  10.889  1.00  0.00     0.028 C 
HETATM   36  C   UNL     1      43.829  -9.093  11.393  1.00  0.00     0.003 C 
HETATM   37  C   UNL     1      42.617  -8.431  10.750  1.00  0.00     0.028 C 
HETATM   38  C   UNL     1      42.688  -8.485   9.227  1.00  0.00     0.235 C 
ENDBRANCH  31  32
ENDBRANCH   5  31
TORSDOF 10
ENDMDL
MODEL 10
REMARK VINA RESULT:      -8.5      1.496      4.691
REMARK  10 active torsions:
REMARK  status: ('A' for Active; 'I' for Inactive)
REMARK    1  A    between atoms: C_4  and  C_5 
REMARK    2  A    between atoms: C_5  and  N_6 
REMARK    3  A    between atoms: C_7  and  S_8 
REMARK    4  A    between atoms: S_8  and  C_9 
REMARK    5  A    between atoms: C_9  and  C_10 
REMARK       I    between atoms: C_10  and  N_11 
REMARK    6  A    between atoms: N_11  and  C_12 
REMARK    7  A    between atoms: C_12  and  C_13 
REMARK       I    between atoms: C_13  and  N_14 
REMARK    8  A    between atoms: N_14  and  C_15 
REMARK    9  A    between atoms: C_26  and  C_27 
REMARK   10  A    between atoms: C_27  and  N_28 
ROOT
HETATM    1  N   UNL     1      41.691 -13.544   4.081  1.00  0.00    -0.306 N 
HETATM    2  C   UNL     1      41.572 -12.594   5.062  1.00  0.00     0.192 A 
HETATM    3  N   UNL     1      40.784 -13.040   6.012  1.00  0.00    -0.123 NA
HETATM    4  N   UNL     1      40.417 -14.317   5.689  1.00  0.00    -0.132 NA
HETATM    5  C   UNL     1      41.012 -14.649   4.561  1.00  0.00     0.157 A 
ENDROOT
BRANCH   2   6
HETATM    6  S   UNL     1      42.411 -11.088   5.054  1.00  0.00    -0.081 SA
BRANCH   6   7
HETATM    7  C   UNL     1      41.576 -10.193   6.393  1.00  0.00     0.185 C 
BRANCH   7   8
HETATM    8  C   UNL     1      42.565  -9.718   7.443  1.00  0.00     0.227 C 
HETATM    9  N   UNL     1      43.241 -10.728   8.094  1.00  0.00    -0.352 N 
HETATM   10  H   UNL     1      42.910 -11.682   8.032  1.00  0.00     0.162 HD
HETATM   11  O   UNL     1      42.790  -8.536   7.697  1.00  0.00    -0.273 OA
BRANCH   9  12
HETATM   12  C   UNL     1      44.339 -10.453   9.011  1.00  0.00     0.225 C 
BRANCH  12  13
HETATM   13  C   UNL     1      43.915 -10.470  10.486  1.00  0.00     0.239 C 
HETATM   14  N   UNL     1      43.085  -9.412  10.813  1.00  0.00    -0.326 N 
HETATM   15  H   UNL     1      42.801  -8.820  10.029  1.00  0.00     0.169 HD
HETATM   16  O   UNL     1      44.325 -11.340  11.248  1.00  0.00    -0.271 OA
BRANCH  14  17
HETATM   17  C   UNL     1      42.561  -9.077  12.073  1.00  0.00     0.035 A 
HETATM   18  C   UNL     1      41.417  -9.663  12.622  1.00  0.00     0.032 A 
HETATM   19  C   UNL     1      40.969  -9.282  13.889  1.00  0.00     0.044 A 
HETATM   20  C   UNL     1      41.662  -8.311  14.600  1.00  0.00     0.116 A 
HETATM   21  F   UNL     1      41.224  -7.936  15.809  1.00  0.00    -0.206 F 
HETATM   22  C   UNL     1      42.802  -7.720  14.073  1.00  0.00     0.044 A 
HETATM   23  C   UNL     1      43.255  -8.107  12.811  1.00  0.00     0.032 A 
ENDBRANCH  14  17
ENDBRANCH  12  13
ENDBRANCH   9  12
ENDBRANCH   7   8
ENDBRANCH   6   7
ENDBRANCH   2   6
BRANCH   1  24
HETATM   24  C   UNL     1      42.290 -13.385   2.764  1.00  0.00     0.171 C 
BRANCH  24  25
HETATM   25  C   UNL     1      41.264 -13.294   1.664  1.00  0.00    -0.040 A 
HETATM   26  C   UNL     1      40.527 -12.115   1.470  1.00  0.00     0.009 A 
HETATM   27  C   UNL     1      39.611 -12.015   0.420  1.00  0.00     0.001 A 
HETATM   28  C   UNL     1      39.433 -13.084  -0.455  1.00  0.00     0.000 A 
HETATM   29  C   UNL     1      40.169 -14.253  -0.284  1.00  0.00     0.001 A 
HETATM   30  C   UNL     1      41.077 -14.358   0.770  1.00  0.00     0.009 A 
ENDBRANCH  24  25
ENDBRANCH   1  24
BRANCH   5  31
HETATM   31  C   UNL     1      40.994 -15.999   3.929  1.00  0.00     0.315 C 
BRANCH  31  32
HETATM   32  N   UNL     1      42.359 -16.674   3.823  1.00  0.00    -0.064 N 
HETATM   33  H   UNL     1      43.008 -15.937   3.513  1.00  0.00     0.280 HD
HETATM   34  C   UNL     1      42.808 -17.196   5.166  1.00  0.00     0.235 C 
HETATM   35  C   UNL     1      44.225 -17.744   5.073  1.00  0.00     0.028 C 
HETATM   36  C   UNL     1      44.353 -18.804   3.987  1.00  0.00     0.003 C 
HETATM   37  C   UNL     1      43.842 -18.279   2.651  1.00  0.00     0.028 C 
HETATM   38  C   UNL     1      42.413 -17.755   2.761  1.00  0.00     0.235 C 
ENDBRANCH  31  32
ENDBRANCH   5  31
TORSDOF 10
ENDMDL
