MODEL 1
REMARK VINA RESULT:      -9.7      0.000      0.000
REMARK  6 active torsions:
REMARK  status: ('A' for Active; 'I' for Inactive)
REMARK    1  A    between atoms: C_2  and  O_3 
REMARK    2  A    between atoms: C_2  and  C_4 
REMARK    3  A    between atoms: C_6  and  N_7 
REMARK       I    between atoms: N_7  and  C_8 
REMARK    4  A    between atoms: C_8  and  C_9 
REMARK    5  A    between atoms: C_12  and  C_13 
REMARK    6  A    between atoms: C_18  and  C_19 
ROOT
HETATM    1  C   UNL     1      42.368 -13.584   3.599  1.00  0.00     0.096 C 
HETATM    2  C   UNL     1      42.781 -14.846   3.984  1.00  0.00     0.138 C 
HETATM    3  N   UNL     1      43.106 -14.744   5.319  1.00  0.00    -0.240 N 
HETATM    4  C   UNL     1      43.625 -15.834   6.127  1.00  0.00     0.221 C 
HETATM    5  C   UNL     1      43.405 -17.182   5.420  1.00  0.00     0.068 C 
HETATM    6  C   UNL     1      43.757 -17.074   3.932  1.00  0.00     0.143 C 
HETATM    7  N   UNL     1      42.917 -16.028   3.318  1.00  0.00    -0.363 N 
HETATM    8  N   UNL     1      43.103 -13.481   5.770  1.00  0.00    -0.181 NA
HETATM    9  C   UNL     1      42.623 -12.783   4.738  1.00  0.00     0.160 C 
HETATM   10  H   UNL     1      43.090 -15.979   2.310  1.00  0.00     0.162 HD
ENDROOT
BRANCH   1  11
HETATM   11  C   UNL     1      41.833 -13.126   2.327  1.00  0.00     0.261 C 
HETATM   12  N   UNL     1      40.670 -13.774   1.954  1.00  0.00    -0.323 N 
HETATM   13  H   UNL     1      40.289 -14.411   2.646  1.00  0.00     0.169 HD
HETATM   14  O   UNL     1      42.384 -12.219   1.714  1.00  0.00    -0.267 OA
BRANCH  12  15
HETATM   15  C   UNL     1      39.903 -13.571   0.790  1.00  0.00     0.035 A 
HETATM   16  C   UNL     1      39.829 -14.487  -0.263  1.00  0.00     0.039 A 
HETATM   17  C   UNL     1      39.051 -14.218  -1.405  1.00  0.00    -0.028 A 
HETATM   18  C   UNL     1      38.352 -13.006  -1.480  1.00  0.00     0.010 A 
HETATM   19  C   UNL     1      38.409 -12.093  -0.429  1.00  0.00     0.003 A 
HETATM   20  C   UNL     1      39.179 -12.376   0.701  1.00  0.00     0.029 A 
BRANCH  17  21
HETATM   21  C   UNL     1      39.017 -15.218  -2.542  1.00  0.00     0.147 C 
HETATM   22  C   UNL     1      38.238 -14.695  -3.740  1.00  0.00     0.044 C 
BRANCH  21  23
HETATM   23  O   UNL     1      38.427 -16.443  -2.108  1.00  0.00    -0.391 OA
HETATM   24  H   UNL     1      38.929 -17.159  -2.535  1.00  0.00     0.210 HD
ENDBRANCH  21  23
ENDBRANCH  17  21
ENDBRANCH  12  15
ENDBRANCH   1  11
BRANCH   4  25
HETATM   25  C   UNL     1      42.985 -15.870   7.498  1.00  0.00     0.409 C 
HETATM   26  F   UNL     1      43.177 -14.747   8.217  1.00  0.00    -0.169 F 
HETATM   27  F   UNL     1      41.656 -16.118   7.438  1.00  0.00    -0.169 F 
HETATM   28  F   UNL     1      43.533 -16.881   8.226  1.00  0.00    -0.169 F 
ENDBRANCH   4  25
BRANCH   6  29
HETATM   29  C   UNL     1      43.611 -18.410   3.276  1.00  0.00     0.075 A 
HETATM   30  O   UNL     1      44.064 -19.485   3.984  1.00  0.00    -0.325 OA
HETATM   31  C   UNL     1      43.826 -20.588   3.229  1.00  0.00     0.142 A 
HETATM   32  C   UNL     1      43.224 -20.238   2.043  1.00  0.00     0.027 A 
HETATM   33  C   UNL     1      43.083 -18.830   2.072  1.00  0.00     0.037 A 
ENDBRANCH   6  29
TORSDOF 6
ENDMDL
MODEL 2
REMARK VINA RESULT:      -8.9      4.454      8.052
REMARK  6 active torsions:
REMARK  status: ('A' for Active; 'I' for Inactive)
REMARK    1  A    between atoms: C_2  and  O_3 
REMARK    2  A    between atoms: C_2  and  C_4 
REMARK    3  A    between atoms: C_6  and  N_7 
REMARK       I    between atoms: N_7  and  C_8 
REMARK    4  A    between atoms: C_8  and  C_9 
REMARK    5  A    between atoms: C_12  and  C_13 
REMARK    6  A    between atoms: C_18  and  C_19 
ROOT
HETATM    1  C   UNL     1      42.228 -12.967   4.993  1.00  0.00     0.096 C 
HETATM    2  C   UNL     1      42.072 -14.093   4.205  1.00  0.00     0.138 C 
HETATM    3  N   UNL     1      41.086 -13.781   3.296  1.00  0.00    -0.240 N 
HETATM    4  C   UNL     1      40.574 -14.694   2.289  1.00  0.00     0.221 C 
HETATM    5  C   UNL     1      41.521 -15.895   2.119  1.00  0.00     0.068 C 
HETATM    6  C   UNL     1      41.984 -16.415   3.484  1.00  0.00     0.143 C 
HETATM    7  N   UNL     1      42.665 -15.321   4.205  1.00  0.00    -0.363 N 
HETATM    8  N   UNL     1      40.475 -12.615   3.554  1.00  0.00    -0.181 NA
HETATM    9  C   UNL     1      41.190 -12.107   4.561  1.00  0.00     0.160 C 
HETATM   10  H   UNL     1      43.038 -15.660   5.096  1.00  0.00     0.162 HD
ENDROOT
BRANCH   1  11
HETATM   11  C   UNL     1      43.183 -12.698   6.057  1.00  0.00     0.261 C 
HETATM   12  N   UNL     1      43.283 -11.357   6.378  1.00  0.00    -0.323 N 
HETATM   13  H   UNL     1      42.622 -10.748   5.907  1.00  0.00     0.169 HD
HETATM   14  O   UNL     1      43.777 -13.619   6.603  1.00  0.00    -0.267 OA
BRANCH  12  15
HETATM   15  C   UNL     1      44.106 -10.761   7.353  1.00  0.00     0.035 A 
HETATM   16  C   UNL     1      43.649 -10.333   8.603  1.00  0.00     0.039 A 
HETATM   17  C   UNL     1      44.522  -9.734   9.530  1.00  0.00    -0.028 A 
HETATM   18  C   UNL     1      45.868  -9.561   9.179  1.00  0.00     0.010 A 
HETATM   19  C   UNL     1      46.336  -9.996   7.941  1.00  0.00     0.003 A 
HETATM   20  C   UNL     1      45.459 -10.596   7.034  1.00  0.00     0.029 A 
BRANCH  17  21
HETATM   21  C   UNL     1      43.989  -9.254  10.863  1.00  0.00     0.147 C 
HETATM   22  C   UNL     1      43.272 -10.360  11.623  1.00  0.00     0.044 C 
BRANCH  21  23
HETATM   23  O   UNL     1      43.087  -8.164  10.674  1.00  0.00    -0.391 OA
HETATM   24  H   UNL     1      42.386  -8.484  10.079  1.00  0.00     0.210 HD
ENDBRANCH  21  23
ENDBRANCH  17  21
ENDBRANCH  12  15
ENDBRANCH   1  11
BRANCH   4  25
HETATM   25  C   UNL     1      40.381 -14.008   0.955  1.00  0.00     0.409 C 
HETATM   26  F   UNL     1      39.255 -13.271   0.882  1.00  0.00    -0.169 F 
HETATM   27  F   UNL     1      41.430 -13.220   0.626  1.00  0.00    -0.169 F 
HETATM   28  F   UNL     1      40.280 -14.946  -0.027  1.00  0.00    -0.169 F 
ENDBRANCH   4  25
BRANCH   6  29
HETATM   29  C   UNL     1      42.842 -17.625   3.303  1.00  0.00     0.075 A 
HETATM   30  O   UNL     1      43.656 -17.952   4.349  1.00  0.00    -0.325 OA
HETATM   31  C   UNL     1      44.330 -19.076   3.993  1.00  0.00     0.142 A 
HETATM   32  C   UNL     1      43.960 -19.479   2.731  1.00  0.00     0.027 A 
HETATM   33  C   UNL     1      42.998 -18.543   2.283  1.00  0.00     0.037 A 
ENDBRANCH   6  29
TORSDOF 6
ENDMDL
MODEL 3
REMARK VINA RESULT:      -8.7      2.509      4.453
REMARK  6 active torsions:
REMARK  status: ('A' for Active; 'I' for Inactive)
REMARK    1  A    between atoms: C_2  and  O_3 
REMARK    2  A    between atoms: C_2  and  C_4 
REMARK    3  A    between atoms: C_6  and  N_7 
REMARK       I    between atoms: N_7  and  C_8 
REMARK    4  A    between atoms: C_8  and  C_9 
REMARK    5  A    between atoms: C_12  and  C_13 
REMARK    6  A    between atoms: C_18  and  C_19 
ROOT
HETATM    1  C   UNL     1      41.648 -14.543   3.578  1.00  0.00     0.096 C 
HETATM    2  C   UNL     1      42.393 -14.318   4.720  1.00  0.00     0.138 C 
HETATM    3  N   UNL     1      42.401 -15.513   5.405  1.00  0.00    -0.240 N 
HETATM    4  C   UNL     1      43.045 -15.723   6.690  1.00  0.00     0.221 C 
HETATM    5  C   UNL     1      44.023 -14.576   6.997  1.00  0.00     0.068 C 
HETATM    6  C   UNL     1      43.394 -13.223   6.648  1.00  0.00     0.143 C 
HETATM    7  N   UNL     1      43.031 -13.220   5.218  1.00  0.00    -0.363 N 
HETATM    8  N   UNL     1      41.572 -16.429   4.883  1.00  0.00    -0.181 NA
HETATM    9  C   UNL     1      41.142 -15.853   3.757  1.00  0.00     0.160 C 
HETATM   10  H   UNL     1      42.664 -12.304   4.946  1.00  0.00     0.162 HD
ENDROOT
BRANCH   1  11
HETATM   11  C   UNL     1      41.377 -13.663   2.453  1.00  0.00     0.261 C 
HETATM   12  N   UNL     1      40.146 -13.887   1.864  1.00  0.00    -0.323 N 
HETATM   13  H   UNL     1      39.555 -14.561   2.339  1.00  0.00     0.169 HD
HETATM   14  O   UNL     1      42.184 -12.798   2.135  1.00  0.00    -0.267 OA
BRANCH  12  15
HETATM   15  C   UNL     1      39.580 -13.215   0.763  1.00  0.00     0.035 A 
HETATM   16  C   UNL     1      39.674 -13.665  -0.557  1.00  0.00     0.039 A 
HETATM   17  C   UNL     1      39.095 -12.940  -1.615  1.00  0.00    -0.028 A 
HETATM   18  C   UNL     1      38.423 -11.744  -1.329  1.00  0.00     0.010 A 
HETATM   19  C   UNL     1      38.312 -11.294  -0.015  1.00  0.00     0.003 A 
HETATM   20  C   UNL     1      38.886 -12.028   1.025  1.00  0.00     0.029 A 
BRANCH  17  21
HETATM   21  C   UNL     1      39.241 -13.440  -3.037  1.00  0.00     0.147 C 
HETATM   22  C   UNL     1      38.423 -14.698  -3.287  1.00  0.00     0.044 C 
BRANCH  21  23
HETATM   23  O   UNL     1      40.611 -13.715  -3.328  1.00  0.00    -0.391 OA
HETATM   24  H   UNL     1      40.935 -14.295  -2.617  1.00  0.00     0.210 HD
ENDBRANCH  21  23
ENDBRANCH  17  21
ENDBRANCH  12  15
ENDBRANCH   1  11
BRANCH   4  25
HETATM   25  C   UNL     1      43.781 -17.044   6.740  1.00  0.00     0.409 C 
HETATM   26  F   UNL     1      42.971 -18.112   6.882  1.00  0.00    -0.169 F 
HETATM   27  F   UNL     1      44.559 -17.240   5.651  1.00  0.00    -0.169 F 
HETATM   28  F   UNL     1      44.613 -17.058   7.817  1.00  0.00    -0.169 F 
ENDBRANCH   4  25
BRANCH   6  29
HETATM   29  C   UNL     1      44.327 -12.117   7.022  1.00  0.00     0.075 A 
HETATM   30  O   UNL     1      44.222 -11.640   8.296  1.00  0.00    -0.325 OA
HETATM   31  C   UNL     1      45.156 -10.664   8.435  1.00  0.00     0.142 A 
HETATM   32  C   UNL     1      45.863 -10.506   7.266  1.00  0.00     0.027 A 
HETATM   33  C   UNL     1      45.330 -11.444   6.352  1.00  0.00     0.037 A 
ENDBRANCH   6  29
TORSDOF 6
ENDMDL
MODEL 4
REMARK VINA RESULT:      -8.7      1.673      2.257
REMARK  6 active torsions:
REMARK  status: ('A' for Active; 'I' for Inactive)
REMARK    1  A    between atoms: C_2  and  O_3 
REMARK    2  A    between atoms: C_2  and  C_4 
REMARK    3  A    between atoms: C_6  and  N_7 
REMARK       I    between atoms: N_7  and  C_8 
REMARK    4  A    between atoms: C_8  and  C_9 
REMARK    5  A    between atoms: C_12  and  C_13 
REMARK    6  A    between atoms: C_18  and  C_19 
ROOT
HETATM    1  C   UNL     1      41.086 -13.894   3.600  1.00  0.00     0.096 C 
HETATM    2  C   UNL     1      41.855 -15.004   3.899  1.00  0.00     0.138 C 
HETATM    3  N   UNL     1      42.397 -14.761   5.141  1.00  0.00    -0.240 N 
HETATM    4  C   UNL     1      43.307 -15.657   5.833  1.00  0.00     0.221 C 
HETATM    5  C   UNL     1      43.283 -17.054   5.188  1.00  0.00     0.068 C 
HETATM    6  C   UNL     1      43.304 -16.943   3.660  1.00  0.00     0.143 C 
HETATM    7  N   UNL     1      42.136 -16.154   3.222  1.00  0.00    -0.363 N 
HETATM    8  N   UNL     1      42.181 -13.512   5.580  1.00  0.00    -0.181 NA
HETATM    9  C   UNL     1      41.358 -12.999   4.662  1.00  0.00     0.160 C 
HETATM   10  H   UNL     1      42.094 -16.117   2.200  1.00  0.00     0.162 HD
ENDROOT
BRANCH   1  11
HETATM   11  C   UNL     1      40.222 -13.638   2.458  1.00  0.00     0.261 C 
HETATM   12  N   UNL     1      40.872 -13.740   1.243  1.00  0.00    -0.323 N 
HETATM   13  H   UNL     1      41.832 -14.067   1.292  1.00  0.00     0.169 HD
HETATM   14  O   UNL     1      39.031 -13.402   2.624  1.00  0.00    -0.267 OA
BRANCH  12  15
HETATM   15  C   UNL     1      40.332 -13.555  -0.045  1.00  0.00     0.035 A 
HETATM   16  C   UNL     1      40.286 -12.321  -0.700  1.00  0.00     0.039 A 
HETATM   17  C   UNL     1      39.722 -12.202  -1.983  1.00  0.00    -0.028 A 
HETATM   18  C   UNL     1      39.192 -13.343  -2.601  1.00  0.00     0.010 A 
HETATM   19  C   UNL     1      39.246 -14.580  -1.961  1.00  0.00     0.003 A 
HETATM   20  C   UNL     1      39.815 -14.685  -0.690  1.00  0.00     0.029 A 
BRANCH  17  21
HETATM   21  C   UNL     1      39.660 -10.845  -2.653  1.00  0.00     0.147 C 
HETATM   22  C   UNL     1      39.387  -9.728  -1.657  1.00  0.00     0.044 C 
BRANCH  21  23
HETATM   23  O   UNL     1      38.642 -10.831  -3.653  1.00  0.00    -0.391 OA
HETATM   24  H   UNL     1      38.487  -9.897  -3.879  1.00  0.00     0.210 HD
ENDBRANCH  21  23
ENDBRANCH  17  21
ENDBRANCH  12  15
ENDBRANCH   1  11
BRANCH   4  25
HETATM   25  C   UNL     1      42.972 -15.772   7.304  1.00  0.00     0.409 C 
HETATM   26  F   UNL     1      41.681 -16.074   7.545  1.00  0.00    -0.169 F 
HETATM   27  F   UNL     1      43.749 -16.680   7.938  1.00  0.00    -0.169 F 
HETATM   28  F   UNL     1      43.199 -14.577   7.915  1.00  0.00    -0.169 F 
ENDBRANCH   4  25
BRANCH   6  29
HETATM   29  C   UNL     1      43.356 -18.307   3.051  1.00  0.00     0.075 A 
HETATM   30  O   UNL     1      44.034 -19.259   3.756  1.00  0.00    -0.325 OA
HETATM   31  C   UNL     1      43.949 -20.414   3.048  1.00  0.00     0.142 A 
HETATM   32  C   UNL     1      43.224 -20.220   1.896  1.00  0.00     0.027 A 
HETATM   33  C   UNL     1      42.839 -18.859   1.896  1.00  0.00     0.037 A 
ENDBRANCH   6  29
TORSDOF 6
ENDMDL
MODEL 5
REMARK VINA RESULT:      -8.6      4.549      8.064
REMARK  6 active torsions:
REMARK  status: ('A' for Active; 'I' for Inactive)
REMARK    1  A    between atoms: C_2  and  O_3 
REMARK    2  A    between atoms: C_2  and  C_4 
REMARK    3  A    between atoms: C_6  and  N_7 
REMARK       I    between atoms: N_7  and  C_8 
REMARK    4  A    between atoms: C_8  and  C_9 
REMARK    5  A    between atoms: C_12  and  C_13 
REMARK    6  A    between atoms: C_18  and  C_19 
ROOT
HETATM    1  C   UNL     1      42.291 -13.788   5.619  1.00  0.00     0.096 C 
HETATM    2  C   UNL     1      42.422 -12.538   6.196  1.00  0.00     0.138 C 
HETATM    3  N   UNL     1      41.387 -11.782   5.691  1.00  0.00    -0.240 N 
HETATM    4  C   UNL     1      41.159 -10.382   6.004  1.00  0.00     0.221 C 
HETATM    5  C   UNL     1      41.974  -9.967   7.242  1.00  0.00     0.068 C 
HETATM    6  C   UNL     1      43.397 -10.531   7.166  1.00  0.00     0.143 C 
HETATM    7  N   UNL     1      43.322 -12.002   7.069  1.00  0.00    -0.363 N 
HETATM    8  N   UNL     1      40.714 -12.393   4.705  1.00  0.00    -0.181 NA
HETATM    9  C   UNL     1      41.240 -13.621   4.686  1.00  0.00     0.160 C 
HETATM   10  H   UNL     1      44.262 -12.408   7.078  1.00  0.00     0.162 HD
ENDROOT
BRANCH   1  11
HETATM   11  C   UNL     1      43.053 -15.005   5.848  1.00  0.00     0.261 C 
HETATM   12  N   UNL     1      42.507 -16.119   5.239  1.00  0.00    -0.323 N 
HETATM   13  H   UNL     1      41.708 -15.937   4.641  1.00  0.00     0.169 HD
HETATM   14  O   UNL     1      44.095 -14.971   6.492  1.00  0.00    -0.267 OA
BRANCH  12  15
HETATM   15  C   UNL     1      42.991 -17.441   5.261  1.00  0.00     0.035 A 
HETATM   16  C   UNL     1      43.332 -18.166   4.115  1.00  0.00     0.039 A 
HETATM   17  C   UNL     1      43.799 -19.489   4.205  1.00  0.00    -0.028 A 
HETATM   18  C   UNL     1      43.912 -20.084   5.469  1.00  0.00     0.010 A 
HETATM   19  C   UNL     1      43.588 -19.366   6.618  1.00  0.00     0.003 A 
HETATM   20  C   UNL     1      43.132 -18.051   6.514  1.00  0.00     0.029 A 
BRANCH  17  21
HETATM   21  C   UNL     1      44.131 -20.256   2.942  1.00  0.00     0.147 C 
HETATM   22  C   UNL     1      43.115 -20.006   1.838  1.00  0.00     0.044 C 
BRANCH  21  23
HETATM   23  O   UNL     1      44.185 -21.657   3.211  1.00  0.00    -0.391 OA
HETATM   24  H   UNL     1      44.817 -21.775   3.941  1.00  0.00     0.210 HD
ENDBRANCH  21  23
ENDBRANCH  17  21
ENDBRANCH  12  15
ENDBRANCH   1  11
BRANCH   4  25
HETATM   25  C   UNL     1      39.694 -10.090   6.241  1.00  0.00     0.409 C 
HETATM   26  F   UNL     1      38.991  -9.890   5.108  1.00  0.00    -0.169 F 
HETATM   27  F   UNL     1      39.085 -11.065   6.955  1.00  0.00    -0.169 F 
HETATM   28  F   UNL     1      39.571  -8.946   6.967  1.00  0.00    -0.169 F 
ENDBRANCH   4  25
BRANCH   6  29
HETATM   29  C   UNL     1      44.195 -10.057   8.337  1.00  0.00     0.075 A 
HETATM   30  O   UNL     1      44.262 -10.903   9.406  1.00  0.00    -0.325 OA
HETATM   31  C   UNL     1      45.037 -10.299  10.343  1.00  0.00     0.142 A 
HETATM   32  C   UNL     1      45.472  -9.075   9.892  1.00  0.00     0.027 A 
HETATM   33  C   UNL     1      44.929  -8.917   8.595  1.00  0.00     0.037 A 
ENDBRANCH   6  29
TORSDOF 6
ENDMDL
MODEL 6
REMARK VINA RESULT:      -8.5      4.738      9.145
REMARK  6 active torsions:
REMARK  status: ('A' for Active; 'I' for Inactive)
REMARK    1  A    between atoms: C_2  and  O_3 
REMARK    2  A    between atoms: C_2  and  C_4 
REMARK    3  A    between atoms: C_6  and  N_7 
REMARK       I    between atoms: N_7  and  C_8 
REMARK    4  A    between atoms: C_8  and  C_9 
REMARK    5  A    between atoms: C_12  and  C_13 
REMARK    6  A    between atoms: C_18  and  C_19 
ROOT
HETATM    1  C   UNL     1      40.479 -13.936  -0.091  1.00  0.00     0.096 C 
HETATM    2  C   UNL     1      40.392 -12.796  -0.868  1.00  0.00     0.138 C 
HETATM    3  N   UNL     1      39.292 -12.976  -1.677  1.00  0.00    -0.240 N 
HETATM    4  C   UNL     1      38.846 -12.030  -2.685  1.00  0.00     0.221 C 
HETATM    5  C   UNL     1      39.514 -10.661  -2.473  1.00  0.00     0.068 C 
HETATM    6  C   UNL     1      41.006 -10.830  -2.163  1.00  0.00     0.143 C 
HETATM    7  N   UNL     1      41.150 -11.666  -0.955  1.00  0.00    -0.363 N 
HETATM    8  N   UNL     1      38.777 -14.212  -1.605  1.00  0.00    -0.181 NA
HETATM    9  C   UNL     1      39.475 -14.783  -0.619  1.00  0.00     0.160 C 
HETATM   10  H   UNL     1      42.136 -11.743  -0.692  1.00  0.00     0.162 HD
ENDROOT
BRANCH   1  11
HETATM   11  C   UNL     1      41.393 -14.259   0.993  1.00  0.00     0.261 C 
HETATM   12  N   UNL     1      41.245 -15.547   1.472  1.00  0.00    -0.323 N 
HETATM   13  H   UNL     1      40.592 -16.128   0.957  1.00  0.00     0.169 HD
HETATM   14  O   UNL     1      42.221 -13.438   1.369  1.00  0.00    -0.267 OA
BRANCH  12  15
HETATM   15  C   UNL     1      41.966 -16.172   2.509  1.00  0.00     0.035 A 
HETATM   16  C   UNL     1      42.720 -17.337   2.340  1.00  0.00     0.039 A 
HETATM   17  C   UNL     1      43.409 -17.919   3.420  1.00  0.00    -0.028 A 
HETATM   18  C   UNL     1      43.322 -17.317   4.682  1.00  0.00     0.010 A 
HETATM   19  C   UNL     1      42.584 -16.149   4.858  1.00  0.00     0.003 A 
HETATM   20  C   UNL     1      41.912 -15.578   3.775  1.00  0.00     0.029 A 
BRANCH  17  21
HETATM   21  C   UNL     1      44.193 -19.198   3.209  1.00  0.00     0.147 C 
HETATM   22  C   UNL     1      43.558 -20.089   2.152  1.00  0.00     0.044 C 
BRANCH  21  23
HETATM   23  O   UNL     1      44.288 -19.928   4.432  1.00  0.00    -0.391 OA
HETATM   24  H   UNL     1      44.092 -19.299   5.147  1.00  0.00     0.210 HD
ENDBRANCH  21  23
ENDBRANCH  17  21
ENDBRANCH  12  15
ENDBRANCH   1  11
BRANCH   4  25
HETATM   25  C   UNL     1      37.342 -11.868  -2.677  1.00  0.00     0.409 C 
HETATM   26  F   UNL     1      36.907 -10.807  -3.385  1.00  0.00    -0.169 F 
HETATM   27  F   UNL     1      36.704 -12.973  -3.125  1.00  0.00    -0.169 F 
HETATM   28  F   UNL     1      36.915 -11.668  -1.400  1.00  0.00    -0.169 F 
ENDBRANCH   4  25
BRANCH   6  29
HETATM   29  C   UNL     1      41.654  -9.489  -2.034  1.00  0.00     0.075 A 
HETATM   30  O   UNL     1      42.448  -9.304  -0.940  1.00  0.00    -0.325 OA
HETATM   31  C   UNL     1      42.946  -8.044  -1.019  1.00  0.00     0.142 A 
HETATM   32  C   UNL     1      42.484  -7.414  -2.150  1.00  0.00     0.027 A 
HETATM   33  C   UNL     1      41.649  -8.347  -2.809  1.00  0.00     0.037 A 
ENDBRANCH   6  29
TORSDOF 6
ENDMDL
MODEL 7
REMARK VINA RESULT:      -8.4      4.395      8.049
REMARK  6 active torsions:
REMARK  status: ('A' for Active; 'I' for Inactive)
REMARK    1  A    between atoms: C_2  and  O_3 
REMARK    2  A    between atoms: C_2  and  C_4 
REMARK    3  A    between atoms: C_6  and  N_7 
REMARK       I    between atoms: N_7  and  C_8 
REMARK    4  A    between atoms: C_8  and  C_9 
REMARK    5  A    between atoms: C_12  and  C_13 
REMARK    6  A    between atoms: C_18  and  C_19 
ROOT
HETATM    1  C   UNL     1      41.846 -13.089   5.270  1.00  0.00     0.096 C 
HETATM    2  C   UNL     1      42.002 -11.995   6.100  1.00  0.00     0.138 C 
HETATM    3  N   UNL     1      40.933 -11.168   5.836  1.00  0.00    -0.240 N 
HETATM    4  C   UNL     1      40.714  -9.877   6.465  1.00  0.00     0.221 C 
HETATM    5  C   UNL     1      41.599  -9.729   7.715  1.00  0.00     0.068 C 
HETATM    6  C   UNL     1      43.019 -10.232   7.434  1.00  0.00     0.143 C 
HETATM    7  N   UNL     1      42.949 -11.646   7.018  1.00  0.00    -0.363 N 
HETATM    8  N   UNL     1      40.207 -11.560   4.779  1.00  0.00    -0.181 NA
HETATM    9  C   UNL     1      40.740 -12.742   4.458  1.00  0.00     0.160 C 
HETATM   10  H   UNL     1      43.891 -12.025   6.883  1.00  0.00     0.162 HD
ENDROOT
BRANCH   1  11
HETATM   11  C   UNL     1      42.631 -14.311   5.179  1.00  0.00     0.261 C 
HETATM   12  N   UNL     1      42.221 -15.152   4.162  1.00  0.00    -0.323 N 
HETATM   13  H   UNL     1      41.498 -14.779   3.556  1.00  0.00     0.169 HD
HETATM   14  O   UNL     1      43.577 -14.496   5.934  1.00  0.00    -0.267 OA
BRANCH  12  15
HETATM   15  C   UNL     1      42.761 -16.403   3.805  1.00  0.00     0.035 A 
HETATM   16  C   UNL     1      43.143 -17.380   4.730  1.00  0.00     0.039 A 
HETATM   17  C   UNL     1      43.688 -18.606   4.307  1.00  0.00    -0.028 A 
HETATM   18  C   UNL     1      43.854 -18.837   2.935  1.00  0.00     0.010 A 
HETATM   19  C   UNL     1      43.465 -17.876   2.005  1.00  0.00     0.003 A 
HETATM   20  C   UNL     1      42.919 -16.666   2.439  1.00  0.00     0.029 A 
BRANCH  17  21
HETATM   21  C   UNL     1      44.119 -19.631   5.336  1.00  0.00     0.147 C 
HETATM   22  C   UNL     1      43.950 -21.056   4.829  1.00  0.00     0.044 C 
BRANCH  21  23
HETATM   23  O   UNL     1      43.363 -19.476   6.537  1.00  0.00    -0.391 OA
HETATM   24  H   UNL     1      42.448 -19.725   6.323  1.00  0.00     0.210 HD
ENDBRANCH  21  23
ENDBRANCH  17  21
ENDBRANCH  12  15
ENDBRANCH   1  11
BRANCH   4  25
HETATM   25  C   UNL     1      39.264  -9.675   6.843  1.00  0.00     0.409 C 
HETATM   26  F   UNL     1      38.661 -10.790   7.299  1.00  0.00    -0.169 F 
HETATM   27  F   UNL     1      39.105  -8.696   7.764  1.00  0.00    -0.169 F 
HETATM   28  F   UNL     1      38.558  -9.289   5.745  1.00  0.00    -0.169 F 
ENDBRANCH   4  25
BRANCH   6  29
HETATM   29  C   UNL     1      43.883 -10.012   8.633  1.00  0.00     0.075 A 
HETATM   30  O   UNL     1      43.261  -9.529   9.748  1.00  0.00    -0.325 OA
HETATM   31  C   UNL     1      44.206  -9.418  10.715  1.00  0.00     0.142 A 
HETATM   32  C   UNL     1      45.431  -9.824  10.240  1.00  0.00     0.027 A 
HETATM   33  C   UNL     1      45.224 -10.209   8.894  1.00  0.00     0.037 A 
ENDBRANCH   6  29
TORSDOF 6
ENDMDL
MODEL 8
REMARK VINA RESULT:      -8.3      4.197      7.898
REMARK  6 active torsions:
REMARK  status: ('A' for Active; 'I' for Inactive)
REMARK    1  A    between atoms: C_2  and  O_3 
REMARK    2  A    between atoms: C_2  and  C_4 
REMARK    3  A    between atoms: C_6  and  N_7 
REMARK       I    between atoms: N_7  and  C_8 
REMARK    4  A    between atoms: C_8  and  C_9 
REMARK    5  A    between atoms: C_12  and  C_13 
REMARK    6  A    between atoms: C_18  and  C_19 
ROOT
HETATM    1  C   UNL     1      43.557 -12.158   6.087  1.00  0.00     0.096 C 
HETATM    2  C   UNL     1      42.943 -11.057   6.654  1.00  0.00     0.138 C 
HETATM    3  N   UNL     1      43.761 -10.664   7.691  1.00  0.00    -0.240 N 
HETATM    4  C   UNL     1      43.480  -9.556   8.588  1.00  0.00     0.221 C 
HETATM    5  C   UNL     1      42.375  -8.658   8.007  1.00  0.00     0.068 C 
HETATM    6  C   UNL     1      41.236  -9.507   7.432  1.00  0.00     0.143 C 
HETATM    7  N   UNL     1      41.783 -10.392   6.385  1.00  0.00    -0.363 N 
HETATM    8  N   UNL     1      44.751 -11.531   7.944  1.00  0.00    -0.181 NA
HETATM    9  C   UNL     1      44.648 -12.419   6.950  1.00  0.00     0.160 C 
HETATM   10  H   UNL     1      41.031 -10.927   5.942  1.00  0.00     0.162 HD
ENDROOT
BRANCH   1  11
HETATM   11  C   UNL     1      43.186 -12.931   4.912  1.00  0.00     0.261 C 
HETATM   12  N   UNL     1      43.063 -14.285   5.161  1.00  0.00    -0.323 N 
HETATM   13  H   UNL     1      43.154 -14.556   6.135  1.00  0.00     0.169 HD
HETATM   14  O   UNL     1      42.974 -12.369   3.844  1.00  0.00    -0.267 OA
BRANCH  12  15
HETATM   15  C   UNL     1      42.720 -15.303   4.251  1.00  0.00     0.035 A 
HETATM   16  C   UNL     1      43.501 -16.441   4.024  1.00  0.00     0.039 A 
HETATM   17  C   UNL     1      43.107 -17.418   3.091  1.00  0.00    -0.028 A 
HETATM   18  C   UNL     1      41.916 -17.231   2.377  1.00  0.00     0.010 A 
HETATM   19  C   UNL     1      41.125 -16.107   2.605  1.00  0.00     0.003 A 
HETATM   20  C   UNL     1      41.524 -15.150   3.539  1.00  0.00     0.029 A 
BRANCH  17  21
HETATM   21  C   UNL     1      43.990 -18.624   2.847  1.00  0.00     0.147 C 
HETATM   22  C   UNL     1      43.241 -19.749   2.150  1.00  0.00     0.044 C 
BRANCH  21  23
HETATM   23  O   UNL     1      44.513 -19.113   4.082  1.00  0.00    -0.391 OA
HETATM   24  H   UNL     1      44.446 -18.383   4.721  1.00  0.00     0.210 HD
ENDBRANCH  21  23
ENDBRANCH  17  21
ENDBRANCH  12  15
ENDBRANCH   1  11
BRANCH   4  25
HETATM   25  C   UNL     1      44.716  -8.727   8.860  1.00  0.00     0.409 C 
HETATM   26  F   UNL     1      45.372  -9.083   9.983  1.00  0.00    -0.169 F 
HETATM   27  F   UNL     1      45.590  -8.754   7.828  1.00  0.00    -0.169 F 
HETATM   28  F   UNL     1      44.360  -7.424   9.029  1.00  0.00    -0.169 F 
ENDBRANCH   4  25
BRANCH   6  29
HETATM   29  C   UNL     1      40.138  -8.620   6.939  1.00  0.00     0.075 A 
HETATM   30  O   UNL     1      39.486  -9.032   5.814  1.00  0.00    -0.325 OA
HETATM   31  C   UNL     1      38.528  -8.107   5.548  1.00  0.00     0.142 A 
HETATM   32  C   UNL     1      38.554  -7.104   6.488  1.00  0.00     0.027 A 
HETATM   33  C   UNL     1      39.594  -7.434   7.389  1.00  0.00     0.037 A 
ENDBRANCH   6  29
TORSDOF 6
ENDMDL
MODEL 9
REMARK VINA RESULT:      -8.1      4.358      9.116
REMARK  6 active torsions:
REMARK  status: ('A' for Active; 'I' for Inactive)
REMARK    1  A    between atoms: C_2  and  O_3 
REMARK    2  A    between atoms: C_2  and  C_4 
REMARK    3  A    between atoms: C_6  and  N_7 
REMARK       I    between atoms: N_7  and  C_8 
REMARK    4  A    between atoms: C_8  and  C_9 
REMARK    5  A    between atoms: C_12  and  C_13 
REMARK    6  A    between atoms: C_18  and  C_19 
ROOT
HETATM    1  C   UNL     1      42.447 -12.928   4.448  1.00  0.00     0.096 C 
HETATM    2  C   UNL     1      41.986 -12.821   3.149  1.00  0.00     0.138 C 
HETATM    3  N   UNL     1      41.775 -14.112   2.718  1.00  0.00    -0.240 N 
HETATM    4  C   UNL     1      41.318 -14.472   1.387  1.00  0.00     0.221 C 
HETATM    5  C   UNL     1      40.745 -13.242   0.662  1.00  0.00     0.068 C 
HETATM    6  C   UNL     1      41.645 -12.021   0.877  1.00  0.00     0.143 C 
HETATM    7  N   UNL     1      41.755 -11.759   2.325  1.00  0.00    -0.363 N 
HETATM    8  N   UNL     1      42.232 -15.038   3.573  1.00  0.00    -0.181 NA
HETATM    9  C   UNL     1      42.608 -14.322   4.636  1.00  0.00     0.160 C 
HETATM   10  H   UNL     1      42.302 -10.910   2.493  1.00  0.00     0.162 HD
ENDROOT
BRANCH   1  11
HETATM   11  C   UNL     1      42.753 -11.888   5.418  1.00  0.00     0.261 C 
HETATM   12  N   UNL     1      43.762 -12.237   6.297  1.00  0.00    -0.323 N 
HETATM   13  H   UNL     1      44.220 -13.121   6.102  1.00  0.00     0.169 HD
HETATM   14  O   UNL     1      42.167 -10.814   5.379  1.00  0.00    -0.267 OA
BRANCH  12  15
HETATM   15  C   UNL     1      44.297 -11.467   7.348  1.00  0.00     0.035 A 
HETATM   16  C   UNL     1      43.686 -11.324   8.598  1.00  0.00     0.039 A 
HETATM   17  C   UNL     1      44.267 -10.530   9.604  1.00  0.00    -0.028 A 
HETATM   18  C   UNL     1      45.473  -9.869   9.333  1.00  0.00     0.010 A 
HETATM   19  C   UNL     1      46.095 -10.015   8.095  1.00  0.00     0.003 A 
HETATM   20  C   UNL     1      45.511 -10.812   7.109  1.00  0.00     0.029 A 
BRANCH  17  21
HETATM   21  C   UNL     1      43.565 -10.372  10.936  1.00  0.00     0.147 C 
HETATM   22  C   UNL     1      43.934  -9.067  11.626  1.00  0.00     0.044 C 
BRANCH  21  23
HETATM   23  O   UNL     1      43.891 -11.460  11.801  1.00  0.00    -0.391 OA
HETATM   24  H   UNL     1      43.876 -11.108  12.707  1.00  0.00     0.210 HD
ENDBRANCH  21  23
ENDBRANCH  17  21
ENDBRANCH  12  15
ENDBRANCH   1  11
BRANCH   4  25
HETATM   25  C   UNL     1      40.276 -15.568   1.428  1.00  0.00     0.409 C 
HETATM   26  F   UNL     1      39.386 -15.434   2.431  1.00  0.00    -0.169 F 
HETATM   27  F   UNL     1      39.596 -15.673   0.264  1.00  0.00    -0.169 F 
HETATM   28  F   UNL     1      40.888 -16.768   1.626  1.00  0.00    -0.169 F 
ENDBRANCH   4  25
BRANCH   6  29
HETATM   29  C   UNL     1      41.114 -10.856   0.106  1.00  0.00     0.075 A 
HETATM   30  O   UNL     1      41.992  -9.839  -0.136  1.00  0.00    -0.325 OA
HETATM   31  C   UNL     1      41.325  -8.899  -0.854  1.00  0.00     0.142 A 
HETATM   32  C   UNL     1      40.028  -9.297  -1.079  1.00  0.00     0.027 A 
HETATM   33  C   UNL     1      39.890 -10.562  -0.460  1.00  0.00     0.037 A 
ENDBRANCH   6  29
TORSDOF 6
ENDMDL
MODEL 10
REMARK VINA RESULT:      -8.1      3.081      5.256
REMARK  6 active torsions:
REMARK  status: ('A' for Active; 'I' for Inactive)
REMARK    1  A    between atoms: C_2  and  O_3 
REMARK    2  A    between atoms: C_2  and  C_4 
REMARK    3  A    between atoms: C_6  and  N_7 
REMARK       I    between atoms: N_7  and  C_8 
REMARK    4  A    between atoms: C_8  and  C_9 
REMARK    5  A    between atoms: C_12  and  C_13 
REMARK    6  A    between atoms: C_18  and  C_19 
ROOT
HETATM    1  C   UNL     1      41.066 -14.175   3.447  1.00  0.00     0.096 C 
HETATM    2  C   UNL     1      41.972 -14.115   4.491  1.00  0.00     0.138 C 
HETATM    3  N   UNL     1      42.099 -15.406   4.952  1.00  0.00    -0.240 N 
HETATM    4  C   UNL     1      42.931 -15.802   6.075  1.00  0.00     0.221 C 
HETATM    5  C   UNL     1      43.927 -14.685   6.429  1.00  0.00     0.068 C 
HETATM    6  C   UNL     1      43.233 -13.318   6.412  1.00  0.00     0.143 C 
HETATM    7  N   UNL     1      42.660 -13.091   5.072  1.00  0.00    -0.363 N 
HETATM    8  N   UNL     1      41.215 -16.255   4.407  1.00  0.00    -0.181 NA
HETATM    9  C   UNL     1      40.613 -15.516   3.470  1.00  0.00     0.160 C 
HETATM   10  H   UNL     1      42.243 -12.158   5.016  1.00  0.00     0.162 HD
ENDROOT
BRANCH   1  11
HETATM   11  C   UNL     1      40.617 -13.130   2.541  1.00  0.00     0.261 C 
HETATM   12  N   UNL     1      41.270 -13.142   1.323  1.00  0.00    -0.323 N 
HETATM   13  H   UNL     1      41.904 -13.921   1.178  1.00  0.00     0.169 HD
HETATM   14  O   UNL     1      39.713 -12.372   2.870  1.00  0.00    -0.267 OA
BRANCH  12  15
HETATM   15  C   UNL     1      41.076 -12.274   0.230  1.00  0.00     0.035 A 
HETATM   16  C   UNL     1      41.412 -10.917   0.243  1.00  0.00     0.039 A 
HETATM   17  C   UNL     1      41.181 -10.101  -0.879  1.00  0.00    -0.028 A 
HETATM   18  C   UNL     1      40.597 -10.667  -2.020  1.00  0.00     0.010 A 
HETATM   19  C   UNL     1      40.271 -12.021  -2.048  1.00  0.00     0.003 A 
HETATM   20  C   UNL     1      40.512 -12.821  -0.929  1.00  0.00     0.029 A 
BRANCH  17  21
HETATM   21  C   UNL     1      41.529  -8.628  -0.821  1.00  0.00     0.147 C 
HETATM   22  C   UNL     1      41.192  -7.910  -2.120  1.00  0.00     0.044 C 
BRANCH  21  23
HETATM   23  O   UNL     1      42.919  -8.457  -0.547  1.00  0.00    -0.391 OA
HETATM   24  H   UNL     1      42.988  -8.211   0.392  1.00  0.00     0.210 HD
ENDBRANCH  21  23
ENDBRANCH  17  21
ENDBRANCH  12  15
ENDBRANCH   1  11
BRANCH   4  25
HETATM   25  C   UNL     1      43.686 -17.082   5.790  1.00  0.00     0.409 C 
HETATM   26  F   UNL     1      43.044 -18.194   6.201  1.00  0.00    -0.169 F 
HETATM   27  F   UNL     1      43.985 -17.222   4.478  1.00  0.00    -0.169 F 
HETATM   28  F   UNL     1      44.873 -17.066   6.457  1.00  0.00    -0.169 F 
ENDBRANCH   4  25
BRANCH   6  29
HETATM   29  C   UNL     1      44.196 -12.254   6.831  1.00  0.00     0.075 A 
HETATM   30  O   UNL     1      44.075 -11.798   8.111  1.00  0.00    -0.325 OA
HETATM   31  C   UNL     1      45.039 -10.859   8.292  1.00  0.00     0.142 A 
HETATM   32  C   UNL     1      45.781 -10.705   7.145  1.00  0.00     0.027 A 
HETATM   33  C   UNL     1      45.238 -11.606   6.199  1.00  0.00     0.037 A 
ENDBRANCH   6  29
TORSDOF 6
ENDMDL
