MODEL 1
REMARK VINA RESULT:      -8.3      0.000      0.000
REMARK  3 active torsions:
REMARK  status: ('A' for Active; 'I' for Inactive)
REMARK    1  A    between atoms: C_2  and  N_3 
REMARK       I    between atoms: N_3  and  C_4 
REMARK    2  A    between atoms: C_4  and  C_5 
REMARK    3  A    between atoms: C_5  and  C_6 
ROOT
HETATM    1  C   UNL     1      41.684 -14.833   5.643  1.00  0.00     0.286 C 
HETATM    2  N   UNL     1      43.129 -14.345   5.666  1.00  0.00    -0.056 N 
HETATM    3  H   UNL     1      43.423 -14.419   6.664  1.00  0.00     0.278 HD
HETATM    4  H   UNL     1      43.747 -14.976   5.141  1.00  0.00     0.278 HD
HETATM    5  C   UNL     1      43.319 -12.916   5.244  1.00  0.00     0.209 C 
HETATM    6  C   UNL     1      42.390 -12.007   6.087  1.00  0.00     0.115 C 
HETATM    7  N   UNL     1      41.009 -12.488   6.127  1.00  0.00    -0.353 N 
HETATM    8  C   UNL     1      40.686 -13.821   6.240  1.00  0.00     0.249 C 
HETATM    9  O   UNL     1      39.601 -14.156   6.704  1.00  0.00    -0.271 OA
HETATM   10  C   UNL     1      43.096 -12.778   3.737  1.00  0.00     0.035 C 
HETATM   11  C   UNL     1      43.195 -11.318   3.301  1.00  0.00     0.002 C 
HETATM   12  C   UNL     1      42.231 -10.434   4.089  1.00  0.00     0.002 C 
HETATM   13  C   UNL     1      42.454 -10.557   5.596  1.00  0.00     0.027 C 
HETATM   14  H   UNL     1      40.317 -11.890   6.577  1.00  0.00     0.163 HD
ENDROOT
BRANCH   1  15
HETATM   15  C   UNL     1      41.561 -16.213   6.308  1.00  0.00     0.146 C 
BRANCH  15  16
HETATM   16  C   UNL     1      42.813 -16.549   7.076  1.00  0.00     0.224 C 
HETATM   17  N   UNL     1      43.665 -17.534   6.694  1.00  0.00    -0.327 N 
HETATM   18  H   UNL     1      44.385 -17.695   7.393  1.00  0.00     0.169 HD
HETATM   19  O   UNL     1      43.091 -15.866   8.073  1.00  0.00    -0.273 OA
BRANCH  17  20
HETATM   20  C   UNL     1      43.766 -18.348   5.547  1.00  0.00     0.034 A 
HETATM   21  C   UNL     1      43.840 -19.742   5.544  1.00  0.00     0.031 A 
HETATM   22  C   UNL     1      43.900 -20.450   4.334  1.00  0.00     0.026 A 
HETATM   23  C   UNL     1      43.879 -19.770   3.121  1.00  0.00     0.034 A 
HETATM   24  C   UNL     1      43.798 -18.384   3.105  1.00  0.00     0.026 A 
HETATM   25 CL   UNL     1      43.941 -20.648   1.646  1.00  0.00    -0.084 Cl
HETATM   26  C   UNL     1      43.737 -17.680   4.313  1.00  0.00     0.031 A 
ENDBRANCH  17  20
ENDBRANCH  15  16
ENDBRANCH   1  15
TORSDOF 3
ENDMDL
MODEL 2
REMARK VINA RESULT:      -8.0      4.266      4.971
REMARK  3 active torsions:
REMARK  status: ('A' for Active; 'I' for Inactive)
REMARK    1  A    between atoms: C_2  and  N_3 
REMARK       I    between atoms: N_3  and  C_4 
REMARK    2  A    between atoms: C_4  and  C_5 
REMARK    3  A    between atoms: C_5  and  C_6 
ROOT
HETATM    1  C   UNL     1      40.010 -14.413   2.046  1.00  0.00     0.286 C 
HETATM    2  N   UNL     1      40.992 -14.468   0.879  1.00  0.00    -0.056 N 
HETATM    3  H   UNL     1      41.774 -13.836   1.155  1.00  0.00     0.278 HD
HETATM    4  H   UNL     1      41.403 -15.403   0.779  1.00  0.00     0.278 HD
HETATM    5  C   UNL     1      40.444 -13.967  -0.428  1.00  0.00     0.209 C 
HETATM    6  C   UNL     1      39.865 -12.545  -0.227  1.00  0.00     0.115 C 
HETATM    7  N   UNL     1      38.966 -12.454   0.922  1.00  0.00    -0.353 N 
HETATM    8  C   UNL     1      39.213 -13.095   2.115  1.00  0.00     0.249 C 
HETATM    9  O   UNL     1      38.722 -12.672   3.156  1.00  0.00    -0.271 OA
HETATM   10  C   UNL     1      39.426 -14.962  -0.988  1.00  0.00     0.035 C 
HETATM   11  C   UNL     1      38.792 -14.431  -2.271  1.00  0.00     0.002 C 
HETATM   12  C   UNL     1      38.165 -13.055  -2.055  1.00  0.00     0.002 C 
HETATM   13  C   UNL     1      39.178 -12.051  -1.505  1.00  0.00     0.027 C 
HETATM   14  H   UNL     1      38.467 -11.576   1.060  1.00  0.00     0.163 HD
ENDROOT
BRANCH   1  15
HETATM   15  C   UNL     1      40.721 -14.717   3.374  1.00  0.00     0.146 C 
BRANCH  15  16
HETATM   16  C   UNL     1      42.158 -14.264   3.327  1.00  0.00     0.224 C 
HETATM   17  N   UNL     1      43.201 -15.131   3.374  1.00  0.00    -0.327 N 
HETATM   18  H   UNL     1      44.088 -14.641   3.450  1.00  0.00     0.169 HD
HETATM   19  O   UNL     1      42.387 -13.053   3.197  1.00  0.00    -0.273 OA
BRANCH  17  20
HETATM   20  C   UNL     1      43.307 -16.536   3.321  1.00  0.00     0.034 A 
HETATM   21  C   UNL     1      42.965 -17.337   2.230  1.00  0.00     0.031 A 
HETATM   22  C   UNL     1      43.151 -18.726   2.280  1.00  0.00     0.026 A 
HETATM   23  C   UNL     1      43.684 -19.323   3.417  1.00  0.00     0.034 A 
HETATM   24  C   UNL     1      44.037 -18.542   4.509  1.00  0.00     0.026 A 
HETATM   25 CL   UNL     1      43.917 -21.025   3.462  1.00  0.00    -0.084 Cl
HETATM   26  C   UNL     1      43.853 -17.156   4.457  1.00  0.00     0.031 A 
ENDBRANCH  17  20
ENDBRANCH  15  16
ENDBRANCH   1  15
TORSDOF 3
ENDMDL
MODEL 3
REMARK VINA RESULT:      -7.7      2.233      3.047
REMARK  3 active torsions:
REMARK  status: ('A' for Active; 'I' for Inactive)
REMARK    1  A    between atoms: C_2  and  N_3 
REMARK       I    between atoms: N_3  and  C_4 
REMARK    2  A    between atoms: C_4  and  C_5 
REMARK    3  A    between atoms: C_5  and  C_6 
ROOT
HETATM    1  C   UNL     1      41.104 -14.365   4.276  1.00  0.00     0.286 C 
HETATM    2  N   UNL     1      42.388 -13.753   3.725  1.00  0.00    -0.056 N 
HETATM    3  H   UNL     1      43.041 -14.558   3.606  1.00  0.00     0.278 HD
HETATM    4  H   UNL     1      42.245 -13.363   2.786  1.00  0.00     0.278 HD
HETATM    5  C   UNL     1      43.055 -12.761   4.635  1.00  0.00     0.209 C 
HETATM    6  C   UNL     1      43.275 -13.410   6.024  1.00  0.00     0.115 C 
HETATM    7  N   UNL     1      42.072 -14.055   6.548  1.00  0.00    -0.353 N 
HETATM    8  C   UNL     1      41.211 -14.782   5.757  1.00  0.00     0.249 C 
HETATM    9  O   UNL     1      40.496 -15.645   6.255  1.00  0.00    -0.271 OA
HETATM   10  C   UNL     1      42.238 -11.468   4.694  1.00  0.00     0.035 C 
HETATM   11  C   UNL     1      42.849 -10.480   5.683  1.00  0.00     0.002 C 
HETATM   12  C   UNL     1      43.006 -11.101   7.069  1.00  0.00     0.002 C 
HETATM   13  C   UNL     1      43.831 -12.387   7.022  1.00  0.00     0.027 C 
HETATM   14  H   UNL     1      42.109 -14.416   7.500  1.00  0.00     0.163 HD
ENDROOT
BRANCH   1  15
HETATM   15  C   UNL     1      40.628 -15.528   3.392  1.00  0.00     0.146 C 
BRANCH  15  16
HETATM   16  C   UNL     1      41.445 -15.607   2.129  1.00  0.00     0.224 C 
HETATM   17  N   UNL     1      42.531 -16.414   2.007  1.00  0.00    -0.327 N 
HETATM   18  H   UNL     1      43.022 -16.247   1.133  1.00  0.00     0.169 HD
HETATM   19  O   UNL     1      41.080 -14.938   1.151  1.00  0.00    -0.273 OA
BRANCH  17  20
HETATM   20  C   UNL     1      43.094 -17.422   2.815  1.00  0.00     0.034 A 
HETATM   21  C   UNL     1      43.588 -17.246   4.109  1.00  0.00     0.031 A 
HETATM   22  C   UNL     1      44.093 -18.336   4.834  1.00  0.00     0.026 A 
HETATM   23  C   UNL     1      44.100 -19.609   4.274  1.00  0.00     0.034 A 
HETATM   24  C   UNL     1      43.605 -19.804   2.992  1.00  0.00     0.026 A 
HETATM   25 CL   UNL     1      44.709 -20.938   5.175  1.00  0.00    -0.084 Cl
HETATM   26  C   UNL     1      43.101 -18.716   2.271  1.00  0.00     0.031 A 
ENDBRANCH  17  20
ENDBRANCH  15  16
ENDBRANCH   1  15
TORSDOF 3
ENDMDL
MODEL 4
REMARK VINA RESULT:      -7.7      4.929      6.059
REMARK  3 active torsions:
REMARK  status: ('A' for Active; 'I' for Inactive)
REMARK    1  A    between atoms: C_2  and  N_3 
REMARK       I    between atoms: N_3  and  C_4 
REMARK    2  A    between atoms: C_4  and  C_5 
REMARK    3  A    between atoms: C_5  and  C_6 
ROOT
HETATM    1  C   UNL     1      39.948 -12.870   1.490  1.00  0.00     0.286 C 
HETATM    2  N   UNL     1      40.896 -12.876   0.295  1.00  0.00    -0.056 N 
HETATM    3  H   UNL     1      41.341 -11.933   0.299  1.00  0.00     0.278 HD
HETATM    4  H   UNL     1      41.659 -13.551   0.425  1.00  0.00     0.278 HD
HETATM    5  C   UNL     1      40.227 -13.055  -1.039  1.00  0.00     0.209 C 
HETATM    6  C   UNL     1      39.109 -11.995  -1.195  1.00  0.00     0.115 C 
HETATM    7  N   UNL     1      38.221 -11.930  -0.034  1.00  0.00    -0.353 N 
HETATM    8  C   UNL     1      38.678 -12.027   1.261  1.00  0.00     0.249 C 
HETATM    9  O   UNL     1      38.028 -11.545   2.182  1.00  0.00    -0.271 OA
HETATM   10  C   UNL     1      39.724 -14.492  -1.187  1.00  0.00     0.035 C 
HETATM   11  C   UNL     1      38.963 -14.672  -2.497  1.00  0.00     0.002 C 
HETATM   12  C   UNL     1      37.819 -13.668  -2.620  1.00  0.00     0.002 C 
HETATM   13  C   UNL     1      38.314 -12.228  -2.484  1.00  0.00     0.027 C 
HETATM   14  H   UNL     1      37.402 -11.329  -0.103  1.00  0.00     0.163 HD
ENDROOT
BRANCH   1  15
HETATM   15  C   UNL     1      40.685 -12.449   2.771  1.00  0.00     0.146 C 
BRANCH  15  16
HETATM   16  C   UNL     1      42.117 -12.088   2.470  1.00  0.00     0.224 C 
HETATM   17  N   UNL     1      43.133 -12.984   2.561  1.00  0.00    -0.327 N 
HETATM   18  H   UNL     1      44.036 -12.535   2.437  1.00  0.00     0.169 HD
HETATM   19  O   UNL     1      42.363 -10.936   2.083  1.00  0.00    -0.273 OA
BRANCH  17  20
HETATM   20  C   UNL     1      43.191 -14.377   2.768  1.00  0.00     0.034 A 
HETATM   21  C   UNL     1      43.068 -15.022   4.000  1.00  0.00     0.031 A 
HETATM   22  C   UNL     1      43.104 -16.422   4.079  1.00  0.00     0.026 A 
HETATM   23  C   UNL     1      43.258 -17.186   2.927  1.00  0.00     0.034 A 
HETATM   24  C   UNL     1      43.375 -16.562   1.693  1.00  0.00     0.026 A 
HETATM   25 CL   UNL     1      43.290 -18.901   3.035  1.00  0.00    -0.084 Cl
HETATM   26  C   UNL     1      43.337 -15.166   1.616  1.00  0.00     0.031 A 
ENDBRANCH  17  20
ENDBRANCH  15  16
ENDBRANCH   1  15
TORSDOF 3
ENDMDL
MODEL 5
REMARK VINA RESULT:      -7.6      4.323      5.207
REMARK  3 active torsions:
REMARK  status: ('A' for Active; 'I' for Inactive)
REMARK    1  A    between atoms: C_2  and  N_3 
REMARK       I    between atoms: N_3  and  C_4 
REMARK    2  A    between atoms: C_4  and  C_5 
REMARK    3  A    between atoms: C_5  and  C_6 
ROOT
HETATM    1  C   UNL     1      40.620 -13.686   1.596  1.00  0.00     0.286 C 
HETATM    2  N   UNL     1      40.075 -12.295   1.288  1.00  0.00    -0.056 N 
HETATM    3  H   UNL     1      39.142 -12.262   1.752  1.00  0.00     0.278 HD
HETATM    4  H   UNL     1      40.641 -11.563   1.734  1.00  0.00     0.278 HD
HETATM    5  C   UNL     1      39.864 -12.011  -0.173  1.00  0.00     0.209 C 
HETATM    6  C   UNL     1      38.982 -13.125  -0.787  1.00  0.00     0.115 C 
HETATM    7  N   UNL     1      39.451 -14.470  -0.456  1.00  0.00    -0.353 N 
HETATM    8  C   UNL     1      39.933 -14.806   0.789  1.00  0.00     0.249 C 
HETATM    9  O   UNL     1      39.900 -15.971   1.169  1.00  0.00    -0.271 OA
HETATM   10  C   UNL     1      41.213 -11.848  -0.877  1.00  0.00     0.035 C 
HETATM   11  C   UNL     1      41.023 -11.647  -2.378  1.00  0.00     0.002 C 
HETATM   12  C   UNL     1      40.207 -12.781  -2.995  1.00  0.00     0.002 C 
HETATM   13  C   UNL     1      38.854 -12.944  -2.304  1.00  0.00     0.027 C 
HETATM   14  H   UNL     1      38.983 -15.255  -0.906  1.00  0.00     0.163 HD
ENDROOT
BRANCH   1  15
HETATM   15  C   UNL     1      40.579 -13.968   3.106  1.00  0.00     0.146 C 
BRANCH  15  16
HETATM   16  C   UNL     1      41.852 -13.510   3.770  1.00  0.00     0.224 C 
HETATM   17  N   UNL     1      42.868 -14.359   4.069  1.00  0.00    -0.327 N 
HETATM   18  H   UNL     1      43.589 -13.897   4.616  1.00  0.00     0.169 HD
HETATM   19  O   UNL     1      41.986 -12.302   4.011  1.00  0.00    -0.273 OA
BRANCH  17  20
HETATM   20  C   UNL     1      43.133 -15.711   3.768  1.00  0.00     0.034 A 
HETATM   21  C   UNL     1      43.296 -16.735   4.703  1.00  0.00     0.031 A 
HETATM   22  C   UNL     1      43.519 -18.055   4.283  1.00  0.00     0.026 A 
HETATM   23  C   UNL     1      43.574 -18.360   2.928  1.00  0.00     0.034 A 
HETATM   24  C   UNL     1      43.406 -17.356   1.984  1.00  0.00     0.026 A 
HETATM   25 CL   UNL     1      43.836 -19.982   2.425  1.00  0.00    -0.084 Cl
HETATM   26  C   UNL     1      43.183 -16.041   2.404  1.00  0.00     0.031 A 
ENDBRANCH  17  20
ENDBRANCH  15  16
ENDBRANCH   1  15
TORSDOF 3
ENDMDL
MODEL 6
REMARK VINA RESULT:      -7.5     14.609     17.166
REMARK  3 active torsions:
REMARK  status: ('A' for Active; 'I' for Inactive)
REMARK    1  A    between atoms: C_2  and  N_3 
REMARK       I    between atoms: N_3  and  C_4 
REMARK    2  A    between atoms: C_4  and  C_5 
REMARK    3  A    between atoms: C_5  and  C_6 
ROOT
HETATM    1  C   UNL     1      48.528 -29.789   1.243  1.00  0.00     0.286 C 
HETATM    2  N   UNL     1      50.049 -29.682   1.197  1.00  0.00    -0.056 N 
HETATM    3  H   UNL     1      50.313 -29.989   0.236  1.00  0.00     0.278 HD
HETATM    4  H   UNL     1      50.359 -28.706   1.278  1.00  0.00     0.278 HD
HETATM    5  C   UNL     1      50.772 -30.569   2.171  1.00  0.00     0.209 C 
HETATM    6  C   UNL     1      50.291 -32.029   1.985  1.00  0.00     0.115 C 
HETATM    7  N   UNL     1      48.834 -32.150   1.966  1.00  0.00    -0.353 N 
HETATM    8  C   UNL     1      48.018 -31.242   1.330  1.00  0.00     0.249 C 
HETATM    9  O   UNL     1      46.899 -31.574   0.954  1.00  0.00    -0.271 OA
HETATM   10  C   UNL     1      50.587 -30.048   3.597  1.00  0.00     0.035 C 
HETATM   11  C   UNL     1      51.239 -30.985   4.610  1.00  0.00     0.002 C 
HETATM   12  C   UNL     1      50.715 -32.412   4.467  1.00  0.00     0.002 C 
HETATM   13  C   UNL     1      50.906 -32.946   3.048  1.00  0.00     0.027 C 
HETATM   14  H   UNL     1      48.441 -33.090   1.949  1.00  0.00     0.163 HD
ENDROOT
BRANCH   1  15
HETATM   15  C   UNL     1      47.890 -29.033   0.067  1.00  0.00     0.146 C 
BRANCH  15  16
HETATM   16  C   UNL     1      46.715 -28.213   0.533  1.00  0.00     0.224 C 
HETATM   17  N   UNL     1      45.646 -27.948  -0.260  1.00  0.00    -0.327 N 
HETATM   18  H   UNL     1      45.012 -27.287   0.180  1.00  0.00     0.169 HD
HETATM   19  O   UNL     1      46.714 -27.802   1.703  1.00  0.00    -0.273 OA
BRANCH  17  20
HETATM   20  C   UNL     1      45.233 -28.405  -1.528  1.00  0.00     0.034 A 
HETATM   21  C   UNL     1      45.568 -27.820  -2.751  1.00  0.00     0.031 A 
HETATM   22  C   UNL     1      45.129 -28.387  -3.957  1.00  0.00     0.026 A 
HETATM   23  C   UNL     1      44.357 -29.544  -3.948  1.00  0.00     0.034 A 
HETATM   24  C   UNL     1      44.021 -30.143  -2.742  1.00  0.00     0.026 A 
HETATM   25 CL   UNL     1      43.834 -30.236  -5.431  1.00  0.00    -0.084 Cl
HETATM   26  C   UNL     1      44.462 -29.577  -1.540  1.00  0.00     0.031 A 
ENDBRANCH  17  20
ENDBRANCH  15  16
ENDBRANCH   1  15
TORSDOF 3
ENDMDL
MODEL 7
REMARK VINA RESULT:      -7.5      2.659      4.048
REMARK  3 active torsions:
REMARK  status: ('A' for Active; 'I' for Inactive)
REMARK    1  A    between atoms: C_2  and  N_3 
REMARK       I    between atoms: N_3  and  C_4 
REMARK    2  A    between atoms: C_4  and  C_5 
REMARK    3  A    between atoms: C_5  and  C_6 
ROOT
HETATM    1  C   UNL     1      42.268 -11.478   5.508  1.00  0.00     0.286 C 
HETATM    2  N   UNL     1      42.833 -12.384   6.597  1.00  0.00    -0.056 N 
HETATM    3  H   UNL     1      42.018 -12.618   7.203  1.00  0.00     0.278 HD
HETATM    4  H   UNL     1      43.165 -13.276   6.209  1.00  0.00     0.278 HD
HETATM    5  C   UNL     1      43.876 -11.745   7.470  1.00  0.00     0.209 C 
HETATM    6  C   UNL     1      43.315 -10.424   8.051  1.00  0.00     0.115 C 
HETATM    7  N   UNL     1      42.715  -9.563   7.033  1.00  0.00    -0.353 N 
HETATM    8  C   UNL     1      41.946 -10.053   6.001  1.00  0.00     0.249 C 
HETATM    9  O   UNL     1      41.122  -9.332   5.450  1.00  0.00    -0.271 OA
HETATM   10  C   UNL     1      45.176 -11.557   6.685  1.00  0.00     0.035 C 
HETATM   11  C   UNL     1      46.221 -10.827   7.525  1.00  0.00     0.002 C 
HETATM   12  C   UNL     1      45.687  -9.494   8.045  1.00  0.00     0.002 C 
HETATM   13  C   UNL     1      44.394  -9.673   8.840  1.00  0.00     0.027 C 
HETATM   14  H   UNL     1      42.414  -8.634   7.321  1.00  0.00     0.163 HD
ENDROOT
BRANCH   1  15
HETATM   15  C   UNL     1      41.055 -12.131   4.827  1.00  0.00     0.146 C 
BRANCH  15  16
HETATM   16  C   UNL     1      40.325 -13.033   5.788  1.00  0.00     0.224 C 
HETATM   17  N   UNL     1      40.285 -14.382   5.641  1.00  0.00    -0.327 N 
HETATM   18  H   UNL     1      39.652 -14.811   6.311  1.00  0.00     0.169 HD
HETATM   19  O   UNL     1      39.777 -12.519   6.774  1.00  0.00    -0.273 OA
BRANCH  17  20
HETATM   20  C   UNL     1      40.938 -15.291   4.783  1.00  0.00     0.034 A 
HETATM   21  C   UNL     1      40.587 -15.555   3.458  1.00  0.00     0.031 A 
HETATM   22  C   UNL     1      41.337 -16.455   2.687  1.00  0.00     0.026 A 
HETATM   23  C   UNL     1      42.446 -17.093   3.233  1.00  0.00     0.034 A 
HETATM   24  C   UNL     1      42.814 -16.837   4.547  1.00  0.00     0.026 A 
HETATM   25 CL   UNL     1      43.364 -18.185   2.277  1.00  0.00    -0.084 Cl
HETATM   26  C   UNL     1      42.066 -15.937   5.314  1.00  0.00     0.031 A 
ENDBRANCH  17  20
ENDBRANCH  15  16
ENDBRANCH   1  15
TORSDOF 3
ENDMDL
MODEL 8
REMARK VINA RESULT:      -7.5      2.573      6.315
REMARK  3 active torsions:
REMARK  status: ('A' for Active; 'I' for Inactive)
REMARK    1  A    between atoms: C_2  and  N_3 
REMARK       I    between atoms: N_3  and  C_4 
REMARK    2  A    between atoms: C_4  and  C_5 
REMARK    3  A    between atoms: C_5  and  C_6 
ROOT
HETATM    1  C   UNL     1      42.063 -16.750   5.919  1.00  0.00     0.286 C 
HETATM    2  N   UNL     1      43.548 -17.034   6.127  1.00  0.00    -0.056 N 
HETATM    3  H   UNL     1      44.029 -16.137   5.898  1.00  0.00     0.278 HD
HETATM    4  H   UNL     1      43.759 -17.226   7.113  1.00  0.00     0.278 HD
HETATM    5  C   UNL     1      44.118 -18.095   5.228  1.00  0.00     0.209 C 
HETATM    6  C   UNL     1      43.799 -17.741   3.755  1.00  0.00     0.115 C 
HETATM    7  N   UNL     1      42.391 -17.408   3.541  1.00  0.00    -0.353 N 
HETATM    8  C   UNL     1      41.659 -16.658   4.433  1.00  0.00     0.249 C 
HETATM    9  O   UNL     1      40.672 -16.037   4.054  1.00  0.00    -0.271 OA
HETATM   10  C   UNL     1      43.600 -19.473   5.646  1.00  0.00     0.035 C 
HETATM   11  C   UNL     1      44.097 -20.555   4.691  1.00  0.00     0.002 C 
HETATM   12  C   UNL     1      43.725 -20.236   3.245  1.00  0.00     0.002 C 
HETATM   13  C   UNL     1      44.248 -18.866   2.815  1.00  0.00     0.027 C 
HETATM   14  H   UNL     1      42.084 -17.263   2.581  1.00  0.00     0.163 HD
ENDROOT
BRANCH   1  15
HETATM   15  C   UNL     1      41.629 -15.503   6.704  1.00  0.00     0.146 C 
BRANCH  15  16
HETATM   16  C   UNL     1      42.829 -14.762   7.235  1.00  0.00     0.224 C 
HETATM   17  N   UNL     1      43.433 -13.759   6.548  1.00  0.00    -0.327 N 
HETATM   18  H   UNL     1      44.291 -13.460   7.005  1.00  0.00     0.169 HD
HETATM   19  O   UNL     1      43.249 -15.057   8.364  1.00  0.00    -0.273 OA
BRANCH  17  20
HETATM   20  C   UNL     1      43.115 -13.051   5.372  1.00  0.00     0.034 A 
HETATM   21  C   UNL     1      43.240 -13.540   4.070  1.00  0.00     0.031 A 
HETATM   22  C   UNL     1      42.856 -12.754   2.973  1.00  0.00     0.026 A 
HETATM   23  C   UNL     1      42.338 -11.479   3.170  1.00  0.00     0.034 A 
HETATM   24  C   UNL     1      42.200 -10.979   4.458  1.00  0.00     0.026 A 
HETATM   25 CL   UNL     1      41.860 -10.530   1.820  1.00  0.00    -0.084 Cl
HETATM   26  C   UNL     1      42.583 -11.764   5.551  1.00  0.00     0.031 A 
ENDBRANCH  17  20
ENDBRANCH  15  16
ENDBRANCH   1  15
TORSDOF 3
ENDMDL
MODEL 9
REMARK VINA RESULT:      -7.4      2.856      3.342
REMARK  3 active torsions:
REMARK  status: ('A' for Active; 'I' for Inactive)
REMARK    1  A    between atoms: C_2  and  N_3 
REMARK       I    between atoms: N_3  and  C_4 
REMARK    2  A    between atoms: C_4  and  C_5 
REMARK    3  A    between atoms: C_5  and  C_6 
ROOT
HETATM    1  C   UNL     1      40.974 -14.005   3.461  1.00  0.00     0.286 C 
HETATM    2  N   UNL     1      40.728 -12.549   3.844  1.00  0.00    -0.056 N 
HETATM    3  H   UNL     1      39.925 -12.576   4.508  1.00  0.00     0.278 HD
HETATM    4  H   UNL     1      41.519 -12.161   4.371  1.00  0.00     0.278 HD
HETATM    5  C   UNL     1      40.339 -11.654   2.701  1.00  0.00     0.209 C 
HETATM    6  C   UNL     1      39.125 -12.268   1.962  1.00  0.00     0.115 C 
HETATM    7  N   UNL     1      39.314 -13.682   1.635  1.00  0.00    -0.353 N 
HETATM    8  C   UNL     1      39.912 -14.573   2.497  1.00  0.00     0.249 C 
HETATM    9  O   UNL     1      39.671 -15.772   2.410  1.00  0.00    -0.271 OA
HETATM   10  C   UNL     1      41.544 -11.410   1.789  1.00  0.00     0.035 C 
HETATM   11  C   UNL     1      41.149 -10.577   0.574  1.00  0.00     0.002 C 
HETATM   12  C   UNL     1      39.993 -11.218  -0.191  1.00  0.00     0.002 C 
HETATM   13  C   UNL     1      38.781 -11.455   0.709  1.00  0.00     0.027 C 
HETATM   14  H   UNL     1      38.602 -14.129   1.060  1.00  0.00     0.163 HD
ENDROOT
BRANCH   1  15
HETATM   15  C   UNL     1      41.131 -14.882   4.713  1.00  0.00     0.146 C 
BRANCH  15  16
HETATM   16  C   UNL     1      42.507 -14.724   5.305  1.00  0.00     0.224 C 
HETATM   17  N   UNL     1      43.476 -15.665   5.169  1.00  0.00    -0.327 N 
HETATM   18  H   UNL     1      44.293 -15.442   5.731  1.00  0.00     0.169 HD
HETATM   19  O   UNL     1      42.771 -13.671   5.904  1.00  0.00    -0.273 OA
BRANCH  17  20
HETATM   20  C   UNL     1      43.588 -16.850   4.412  1.00  0.00     0.034 A 
HETATM   21  C   UNL     1      44.001 -18.090   4.901  1.00  0.00     0.031 A 
HETATM   22  C   UNL     1      44.037 -19.212   4.059  1.00  0.00     0.026 A 
HETATM   23  C   UNL     1      43.654 -19.102   2.727  1.00  0.00     0.034 A 
HETATM   24  C   UNL     1      43.233 -17.878   2.226  1.00  0.00     0.026 A 
HETATM   25 CL   UNL     1      43.691 -20.485   1.708  1.00  0.00    -0.084 Cl
HETATM   26  C   UNL     1      43.196 -16.761   3.067  1.00  0.00     0.031 A 
ENDBRANCH  17  20
ENDBRANCH  15  16
ENDBRANCH   1  15
TORSDOF 3
ENDMDL
MODEL 10
REMARK VINA RESULT:      -7.4      4.296      7.412
REMARK  3 active torsions:
REMARK  status: ('A' for Active; 'I' for Inactive)
REMARK    1  A    between atoms: C_2  and  N_3 
REMARK       I    between atoms: N_3  and  C_4 
REMARK    2  A    between atoms: C_4  and  C_5 
REMARK    3  A    between atoms: C_5  and  C_6 
ROOT
HETATM    1  C   UNL     1      42.353 -14.746   1.891  1.00  0.00     0.286 C 
HETATM    2  N   UNL     1      41.524 -16.019   2.026  1.00  0.00    -0.056 N 
HETATM    3  H   UNL     1      40.609 -15.705   2.416  1.00  0.00     0.278 HD
HETATM    4  H   UNL     1      41.315 -16.431   1.109  1.00  0.00     0.278 HD
HETATM    5  C   UNL     1      42.090 -17.043   2.970  1.00  0.00     0.209 C 
HETATM    6  C   UNL     1      42.356 -16.379   4.343  1.00  0.00     0.115 C 
HETATM    7  N   UNL     1      43.100 -15.125   4.234  1.00  0.00    -0.353 N 
HETATM    8  C   UNL     1      42.865 -14.202   3.240  1.00  0.00     0.249 C 
HETATM    9  O   UNL     1      43.158 -13.024   3.410  1.00  0.00    -0.271 OA
HETATM   10  C   UNL     1      43.335 -17.690   2.359  1.00  0.00     0.035 C 
HETATM   11  C   UNL     1      43.977 -18.669   3.338  1.00  0.00     0.002 C 
HETATM   12  C   UNL     1      44.298 -17.995   4.670  1.00  0.00     0.002 C 
HETATM   13  C   UNL     1      43.058 -17.355   5.294  1.00  0.00     0.027 C 
HETATM   14  H   UNL     1      43.401 -14.680   5.100  1.00  0.00     0.163 HD
ENDROOT
BRANCH   1  15
HETATM   15  C   UNL     1      41.586 -13.675   1.100  1.00  0.00     0.146 C 
BRANCH  15  16
HETATM   16  C   UNL     1      40.140 -14.064   0.938  1.00  0.00     0.224 C 
HETATM   17  N   UNL     1      39.164 -13.620   1.770  1.00  0.00    -0.327 N 
HETATM   18  H   UNL     1      38.276 -14.078   1.580  1.00  0.00     0.169 HD
HETATM   19  O   UNL     1      39.831 -14.785  -0.022  1.00  0.00    -0.273 OA
BRANCH  17  20
HETATM   20  C   UNL     1      39.123 -12.665   2.806  1.00  0.00     0.034 A 
HETATM   21  C   UNL     1      39.534 -12.877   4.124  1.00  0.00     0.031 A 
HETATM   22  C   UNL     1      39.482 -11.836   5.063  1.00  0.00     0.026 A 
HETATM   23  C   UNL     1      39.025 -10.576   4.690  1.00  0.00     0.034 A 
HETATM   24  C   UNL     1      38.619 -10.346   3.382  1.00  0.00     0.026 A 
HETATM   25 CL   UNL     1      38.977  -9.306   5.845  1.00  0.00    -0.084 Cl
HETATM   26  C   UNL     1      38.673 -11.385   2.447  1.00  0.00     0.031 A 
ENDBRANCH  17  20
ENDBRANCH  15  16
ENDBRANCH   1  15
TORSDOF 3
ENDMDL
