MODEL 1
REMARK VINA RESULT:      -8.7      0.000      0.000
REMARK  6 active torsions:
REMARK  status: ('A' for Active; 'I' for Inactive)
REMARK    1  A    between atoms: O_2  and  C_3 
REMARK    2  A    between atoms: C_6  and  C_7 
REMARK    3  A    between atoms: C_12  and  C_13 
REMARK       I    between atoms: C_13  and  N_14 
REMARK    4  A    between atoms: N_14  and  C_15 
REMARK    5  A    between atoms: C_17  and  O_18 
REMARK    6  A    between atoms: C_24  and  C_25 
ROOT
HETATM    1  C   UNL     1      42.022 -14.558   3.520  1.00  0.00     0.118 C 
HETATM    2  N   UNL     1      43.096 -13.646   3.910  1.00  0.00    -0.366 N 
HETATM    3  C   UNL     1      42.947 -12.722   4.880  1.00  0.00     0.123 A 
HETATM    4  N   UNL     1      41.719 -12.434   5.402  1.00  0.00    -0.240 N 
HETATM    5  N   UNL     1      41.751 -11.603   6.459  1.00  0.00    -0.165 NA
HETATM    6  C   UNL     1      43.062 -11.271   6.551  1.00  0.00     0.148 A 
HETATM    7  C   UNL     1      43.836 -11.930   5.555  1.00  0.00     0.089 A 
HETATM    8  C   UNL     1      40.503 -13.090   4.964  1.00  0.00     0.221 C 
HETATM    9  C   UNL     1      40.843 -14.520   4.518  1.00  0.00     0.066 C 
HETATM   10  H   UNL     1      44.013 -13.857   3.515  1.00  0.00     0.161 HD
ENDROOT
BRANCH   6  11
HETATM   11  C   UNL     1      43.574 -10.377   7.606  1.00  0.00     0.276 C 
HETATM   12  N   UNL     1      42.601 -10.073   8.538  1.00  0.00    -0.322 N 
HETATM   13  H   UNL     1      41.696 -10.483   8.323  1.00  0.00     0.169 HD
HETATM   14  O   UNL     1      44.741 -10.000   7.613  1.00  0.00    -0.266 OA
BRANCH  12  15
HETATM   15  C   UNL     1      42.728  -9.321   9.718  1.00  0.00     0.037 A 
HETATM   16  C   UNL     1      42.513  -7.942   9.787  1.00  0.00     0.066 A 
HETATM   17  C   UNL     1      42.679  -7.275  11.000  1.00  0.00     0.067 A 
HETATM   18  C   UNL     1      43.055  -7.959  12.149  1.00  0.00     0.036 A 
HETATM   19  C   UNL     1      43.270  -9.333  12.089  1.00  0.00     0.005 A 
HETATM   20  C   UNL     1      43.107 -10.011  10.878  1.00  0.00     0.029 A 
BRANCH  17  21
HETATM   21  O   UNL     1      42.481  -5.928  11.100  1.00  0.00    -0.361 OA
HETATM   22  H   UNL     1      41.670  -5.776  11.615  1.00  0.00     0.217 HD
ENDBRANCH  17  21
ENDBRANCH  12  15
ENDBRANCH   6  11
BRANCH   8  23
HETATM   23  C   UNL     1      39.837 -12.280   3.875  1.00  0.00     0.409 C 
HETATM   24  F   UNL     1      40.722 -11.549   3.164  1.00  0.00    -0.169 F 
HETATM   25  F   UNL     1      39.122 -13.024   3.007  1.00  0.00    -0.169 F 
HETATM   26  F   UNL     1      38.968 -11.396   4.433  1.00  0.00    -0.169 F 
ENDBRANCH   8  23
BRANCH   1  27
HETATM   27  C   UNL     1      42.592 -15.962   3.412  1.00  0.00    -0.035 A 
HETATM   28  C   UNL     1      43.424 -16.484   4.420  1.00  0.00     0.012 A 
HETATM   29  C   UNL     1      43.938 -17.781   4.333  1.00  0.00     0.037 A 
HETATM   30  C   UNL     1      43.632 -18.581   3.234  1.00  0.00     0.068 A 
HETATM   31  C   UNL     1      42.827 -18.063   2.217  1.00  0.00     0.037 A 
HETATM   32  C   UNL     1      42.306 -16.767   2.303  1.00  0.00     0.012 A 
BRANCH  30  33
HETATM   33  O   UNL     1      44.065 -19.862   3.032  1.00  0.00    -0.356 OA
HETATM   34  C   UNL     1      43.660 -20.487   1.819  1.00  0.00     0.210 C 
ENDBRANCH  30  33
ENDBRANCH   1  27
TORSDOF 6
ENDMDL
MODEL 2
REMARK VINA RESULT:      -8.7      2.776      9.792
REMARK  6 active torsions:
REMARK  status: ('A' for Active; 'I' for Inactive)
REMARK    1  A    between atoms: O_2  and  C_3 
REMARK    2  A    between atoms: C_6  and  C_7 
REMARK    3  A    between atoms: C_12  and  C_13 
REMARK       I    between atoms: C_13  and  N_14 
REMARK    4  A    between atoms: N_14  and  C_15 
REMARK    5  A    between atoms: C_17  and  O_18 
REMARK    6  A    between atoms: C_24  and  C_25 
ROOT
HETATM    1  C   UNL     1      42.895 -10.254   7.538  1.00  0.00     0.118 C 
HETATM    2  N   UNL     1      42.078 -11.049   6.623  1.00  0.00    -0.366 N 
HETATM    3  C   UNL     1      42.421 -12.295   6.239  1.00  0.00     0.123 A 
HETATM    4  N   UNL     1      43.660 -12.802   6.505  1.00  0.00    -0.240 N 
HETATM    5  N   UNL     1      43.802 -14.102   6.192  1.00  0.00    -0.165 NA
HETATM    6  C   UNL     1      42.618 -14.410   5.609  1.00  0.00     0.148 A 
HETATM    7  C   UNL     1      41.741 -13.289   5.591  1.00  0.00     0.089 A 
HETATM    8  C   UNL     1      44.683 -12.055   7.211  1.00  0.00     0.221 C 
HETATM    9  C   UNL     1      44.004 -11.099   8.204  1.00  0.00     0.066 C 
HETATM   10  H   UNL     1      41.154 -10.667   6.418  1.00  0.00     0.161 HD
ENDROOT
BRANCH   6  11
HETATM   11  C   UNL     1      42.312 -15.766   5.119  1.00  0.00     0.276 C 
HETATM   12  N   UNL     1      43.438 -16.402   4.633  1.00  0.00    -0.322 N 
HETATM   13  H   UNL     1      44.272 -15.821   4.663  1.00  0.00     0.169 HD
HETATM   14  O   UNL     1      41.178 -16.228   5.181  1.00  0.00    -0.266 OA
BRANCH  12  15
HETATM   15  C   UNL     1      43.560 -17.719   4.158  1.00  0.00     0.037 A 
HETATM   16  C   UNL     1      44.030 -18.783   4.932  1.00  0.00     0.066 A 
HETATM   17  C   UNL     1      44.135 -20.055   4.370  1.00  0.00     0.067 A 
HETATM   18  C   UNL     1      43.777 -20.287   3.048  1.00  0.00     0.036 A 
HETATM   19  C   UNL     1      43.307 -19.232   2.271  1.00  0.00     0.005 A 
HETATM   20  C   UNL     1      43.199 -17.953   2.824  1.00  0.00     0.029 A 
BRANCH  17  21
HETATM   21  O   UNL     1      44.593 -21.114   5.098  1.00  0.00    -0.361 OA
HETATM   22  H   UNL     1      45.544 -20.987   5.258  1.00  0.00     0.217 HD
ENDBRANCH  17  21
ENDBRANCH  12  15
ENDBRANCH   6  11
BRANCH   8  23
HETATM   23  C   UNL     1      45.578 -11.338   6.227  1.00  0.00     0.409 C 
HETATM   24  F   UNL     1      46.777 -11.944   6.087  1.00  0.00    -0.169 F 
HETATM   25  F   UNL     1      45.035 -11.205   4.999  1.00  0.00    -0.169 F 
HETATM   26  F   UNL     1      45.833 -10.080   6.676  1.00  0.00    -0.169 F 
ENDBRANCH   8  23
BRANCH   1  27
HETATM   27  C   UNL     1      41.988  -9.633   8.586  1.00  0.00    -0.035 A 
HETATM   28  C   UNL     1      40.640  -9.348   8.299  1.00  0.00     0.012 A 
HETATM   29  C   UNL     1      39.797  -8.792   9.264  1.00  0.00     0.037 A 
HETATM   30  C   UNL     1      40.287  -8.506  10.538  1.00  0.00     0.068 A 
HETATM   31  C   UNL     1      41.629  -8.763  10.825  1.00  0.00     0.037 A 
HETATM   32  C   UNL     1      42.475  -9.325   9.862  1.00  0.00     0.012 A 
BRANCH  30  33
HETATM   33  O   UNL     1      39.568  -7.969  11.569  1.00  0.00    -0.356 OA
HETATM   34  C   UNL     1      39.448  -8.763  12.744  1.00  0.00     0.210 C 
ENDBRANCH  30  33
ENDBRANCH   1  27
TORSDOF 6
ENDMDL
MODEL 3
REMARK VINA RESULT:      -8.7      1.507      2.056
REMARK  6 active torsions:
REMARK  status: ('A' for Active; 'I' for Inactive)
REMARK    1  A    between atoms: O_2  and  C_3 
REMARK    2  A    between atoms: C_6  and  C_7 
REMARK    3  A    between atoms: C_12  and  C_13 
REMARK       I    between atoms: C_13  and  N_14 
REMARK    4  A    between atoms: N_14  and  C_15 
REMARK    5  A    between atoms: C_17  and  O_18 
REMARK    6  A    between atoms: C_24  and  C_25 
ROOT
HETATM    1  C   UNL     1      42.148 -15.425   2.819  1.00  0.00     0.118 C 
HETATM    2  N   UNL     1      43.067 -14.409   3.331  1.00  0.00    -0.366 N 
HETATM    3  C   UNL     1      42.650 -13.352   4.055  1.00  0.00     0.123 A 
HETATM    4  N   UNL     1      41.324 -13.048   4.166  1.00  0.00    -0.240 N 
HETATM    5  N   UNL     1      41.057 -12.059   5.038  1.00  0.00    -0.165 NA
HETATM    6  C   UNL     1      42.289 -11.651   5.428  1.00  0.00     0.148 A 
HETATM    7  C   UNL     1      43.312 -12.419   4.806  1.00  0.00     0.089 A 
HETATM    8  C   UNL     1      40.281 -13.826   3.528  1.00  0.00     0.221 C 
HETATM    9  C   UNL     1      40.738 -15.289   3.436  1.00  0.00     0.066 C 
HETATM   10  H   UNL     1      44.059 -14.633   3.242  1.00  0.00     0.161 HD
ENDROOT
BRANCH   6  11
HETATM   11  C   UNL     1      42.484 -10.576   6.419  1.00  0.00     0.276 C 
HETATM   12  N   UNL     1      43.038 -11.052   7.590  1.00  0.00    -0.322 N 
HETATM   13  H   UNL     1      43.185 -12.058   7.586  1.00  0.00     0.169 HD
HETATM   14  O   UNL     1      42.189  -9.412   6.166  1.00  0.00    -0.266 OA
BRANCH  12  15
HETATM   15  C   UNL     1      43.439 -10.326   8.725  1.00  0.00     0.037 A 
HETATM   16  C   UNL     1      42.566  -9.570   9.511  1.00  0.00     0.066 A 
HETATM   17  C   UNL     1      43.058  -8.866  10.610  1.00  0.00     0.067 A 
HETATM   18  C   UNL     1      44.405  -8.903  10.941  1.00  0.00     0.036 A 
HETATM   19  C   UNL     1      45.282  -9.655  10.163  1.00  0.00     0.005 A 
HETATM   20  C   UNL     1      44.800 -10.363   9.059  1.00  0.00     0.029 A 
BRANCH  17  21
HETATM   21  O   UNL     1      42.231  -8.116  11.396  1.00  0.00    -0.361 OA
HETATM   22  H   UNL     1      42.126  -7.242  10.983  1.00  0.00     0.217 HD
ENDBRANCH  17  21
ENDBRANCH  12  15
ENDBRANCH   6  11
BRANCH   8  23
HETATM   23  C   UNL     1      39.939 -13.234   2.180  1.00  0.00     0.409 C 
HETATM   24  F   UNL     1      39.753 -14.181   1.235  1.00  0.00    -0.169 F 
HETATM   25  F   UNL     1      38.846 -12.444   2.196  1.00  0.00    -0.169 F 
HETATM   26  F   UNL     1      40.970 -12.459   1.749  1.00  0.00    -0.169 F 
ENDBRANCH   8  23
BRANCH   1  27
HETATM   27  C   UNL     1      42.733 -16.798   3.107  1.00  0.00    -0.035 A 
HETATM   28  C   UNL     1      42.691 -17.818   2.139  1.00  0.00     0.012 A 
HETATM   29  C   UNL     1      43.240 -19.078   2.393  1.00  0.00     0.037 A 
HETATM   30  C   UNL     1      43.840 -19.343   3.622  1.00  0.00     0.068 A 
HETATM   31  C   UNL     1      43.865 -18.344   4.598  1.00  0.00     0.037 A 
HETATM   32  C   UNL     1      43.321 -17.080   4.345  1.00  0.00     0.012 A 
BRANCH  30  33
HETATM   33  O   UNL     1      44.417 -20.527   3.992  1.00  0.00    -0.356 OA
HETATM   34  C   UNL     1      44.250 -20.919   5.350  1.00  0.00     0.210 C 
ENDBRANCH  30  33
ENDBRANCH   1  27
TORSDOF 6
ENDMDL
MODEL 4
REMARK VINA RESULT:      -8.6      5.869      8.777
REMARK  6 active torsions:
REMARK  status: ('A' for Active; 'I' for Inactive)
REMARK    1  A    between atoms: O_2  and  C_3 
REMARK    2  A    between atoms: C_6  and  C_7 
REMARK    3  A    between atoms: C_12  and  C_13 
REMARK       I    between atoms: C_13  and  N_14 
REMARK    4  A    between atoms: N_14  and  C_15 
REMARK    5  A    between atoms: C_17  and  O_18 
REMARK    6  A    between atoms: C_24  and  C_25 
ROOT
HETATM    1  C   UNL     1      40.967 -15.377   3.150  1.00  0.00     0.118 C 
HETATM    2  N   UNL     1      40.465 -15.535   1.786  1.00  0.00    -0.366 N 
HETATM    3  C   UNL     1      40.359 -14.501   0.927  1.00  0.00     0.123 A 
HETATM    4  N   UNL     1      40.505 -13.211   1.350  1.00  0.00    -0.240 N 
HETATM    5  N   UNL     1      40.520 -12.305   0.356  1.00  0.00    -0.165 NA
HETATM    6  C   UNL     1      40.274 -13.053  -0.748  1.00  0.00     0.148 A 
HETATM    7  C   UNL     1      40.135 -14.431  -0.421  1.00  0.00     0.089 A 
HETATM    8  C   UNL     1      40.783 -12.860   2.728  1.00  0.00     0.221 C 
HETATM    9  C   UNL     1      41.604 -13.987   3.372  1.00  0.00     0.066 C 
HETATM   10  H   UNL     1      40.349 -16.499   1.472  1.00  0.00     0.161 HD
ENDROOT
BRANCH   6  11
HETATM   11  C   UNL     1      40.222 -12.466  -2.099  1.00  0.00     0.276 C 
HETATM   12  N   UNL     1      39.890 -11.125  -2.064  1.00  0.00    -0.322 N 
HETATM   13  H   UNL     1      39.704 -10.782  -1.125  1.00  0.00     0.169 HD
HETATM   14  O   UNL     1      40.475 -13.133  -3.096  1.00  0.00    -0.266 OA
BRANCH  12  15
HETATM   15  C   UNL     1      39.818 -10.215  -3.132  1.00  0.00     0.037 A 
HETATM   16  C   UNL     1      40.918  -9.511  -3.627  1.00  0.00     0.066 A 
HETATM   17  C   UNL     1      40.749  -8.613  -4.680  1.00  0.00     0.067 A 
HETATM   18  C   UNL     1      39.501  -8.405  -5.252  1.00  0.00     0.036 A 
HETATM   19  C   UNL     1      38.400  -9.104  -4.765  1.00  0.00     0.005 A 
HETATM   20  C   UNL     1      38.558 -10.005  -3.709  1.00  0.00     0.029 A 
BRANCH  17  21
HETATM   21  O   UNL     1      41.804  -7.908  -5.184  1.00  0.00    -0.361 OA
HETATM   22  H   UNL     1      42.567  -8.506  -5.254  1.00  0.00     0.217 HD
ENDBRANCH  17  21
ENDBRANCH  12  15
ENDBRANCH   6  11
BRANCH   8  23
HETATM   23  C   UNL     1      39.493 -12.581   3.465  1.00  0.00     0.409 C 
HETATM   24  F   UNL     1      38.415 -13.082   2.822  1.00  0.00    -0.169 F 
HETATM   25  F   UNL     1      39.478 -13.053   4.728  1.00  0.00    -0.169 F 
HETATM   26  F   UNL     1      39.299 -11.238   3.551  1.00  0.00    -0.169 F 
ENDBRANCH   8  23
BRANCH   1  27
HETATM   27  C   UNL     1      41.972 -16.482   3.428  1.00  0.00    -0.035 A 
HETATM   28  C   UNL     1      42.430 -17.320   2.396  1.00  0.00     0.012 A 
HETATM   29  C   UNL     1      43.366 -18.327   2.643  1.00  0.00     0.037 A 
HETATM   30  C   UNL     1      43.861 -18.519   3.932  1.00  0.00     0.068 A 
HETATM   31  C   UNL     1      43.394 -17.707   4.968  1.00  0.00     0.037 A 
HETATM   32  C   UNL     1      42.461 -16.694   4.723  1.00  0.00     0.012 A 
BRANCH  30  33
HETATM   33  O   UNL     1      44.780 -19.461   4.305  1.00  0.00    -0.356 OA
HETATM   34  C   UNL     1      44.302 -20.533   5.108  1.00  0.00     0.210 C 
ENDBRANCH  30  33
ENDBRANCH   1  27
TORSDOF 6
ENDMDL
MODEL 5
REMARK VINA RESULT:      -8.5      3.979      5.566
REMARK  6 active torsions:
REMARK  status: ('A' for Active; 'I' for Inactive)
REMARK    1  A    between atoms: O_2  and  C_3 
REMARK    2  A    between atoms: C_6  and  C_7 
REMARK    3  A    between atoms: C_12  and  C_13 
REMARK       I    between atoms: C_13  and  N_14 
REMARK    4  A    between atoms: N_14  and  C_15 
REMARK    5  A    between atoms: C_17  and  O_18 
REMARK    6  A    between atoms: C_24  and  C_25 
ROOT
HETATM    1  C   UNL     1      40.805 -15.330   1.759  1.00  0.00     0.118 C 
HETATM    2  N   UNL     1      40.534 -14.788   3.089  1.00  0.00    -0.366 N 
HETATM    3  C   UNL     1      41.498 -14.625   4.017  1.00  0.00     0.123 A 
HETATM    4  N   UNL     1      42.742 -15.161   3.848  1.00  0.00    -0.240 N 
HETATM    5  N   UNL     1      43.634 -14.789   4.784  1.00  0.00    -0.165 NA
HETATM    6  C   UNL     1      42.888 -14.054   5.645  1.00  0.00     0.148 A 
HETATM    7  C   UNL     1      41.537 -13.959   5.212  1.00  0.00     0.089 A 
HETATM    8  C   UNL     1      43.116 -15.930   2.677  1.00  0.00     0.221 C 
HETATM    9  C   UNL     1      42.320 -15.415   1.469  1.00  0.00     0.066 C 
HETATM   10  H   UNL     1      39.602 -14.394   3.219  1.00  0.00     0.161 HD
ENDROOT
BRANCH   6  11
HETATM   11  C   UNL     1      43.471 -13.413   6.838  1.00  0.00     0.276 C 
HETATM   12  N   UNL     1      43.967 -12.155   6.554  1.00  0.00    -0.322 N 
HETATM   13  H   UNL     1      43.880 -11.901   5.573  1.00  0.00     0.169 HD
HETATM   14  O   UNL     1      43.466 -13.970   7.931  1.00  0.00    -0.266 OA
BRANCH  12  15
HETATM   15  C   UNL     1      44.521 -11.215   7.439  1.00  0.00     0.037 A 
HETATM   16  C   UNL     1      43.872 -10.753   8.587  1.00  0.00     0.066 A 
HETATM   17  C   UNL     1      44.493  -9.803   9.398  1.00  0.00     0.067 A 
HETATM   18  C   UNL     1      45.752  -9.307   9.087  1.00  0.00     0.036 A 
HETATM   19  C   UNL     1      46.405  -9.763   7.946  1.00  0.00     0.005 A 
HETATM   20  C   UNL     1      45.792 -10.714   7.125  1.00  0.00     0.029 A 
BRANCH  17  21
HETATM   21  O   UNL     1      43.884  -9.329  10.524  1.00  0.00    -0.361 OA
HETATM   22  H   UNL     1      44.477  -8.683  10.944  1.00  0.00     0.217 HD
ENDBRANCH  17  21
ENDBRANCH  12  15
ENDBRANCH   6  11
BRANCH   8  23
HETATM   23  C   UNL     1      42.905 -17.404   2.933  1.00  0.00     0.409 C 
HETATM   24  F   UNL     1      44.035 -18.124   2.756  1.00  0.00    -0.169 F 
HETATM   25  F   UNL     1      42.428 -17.677   4.164  1.00  0.00    -0.169 F 
HETATM   26  F   UNL     1      41.996 -17.894   2.048  1.00  0.00    -0.169 F 
ENDBRANCH   8  23
BRANCH   1  27
HETATM   27  C   UNL     1      40.107 -14.459   0.728  1.00  0.00    -0.035 A 
HETATM   28  C   UNL     1      39.767 -14.969  -0.539  1.00  0.00     0.012 A 
HETATM   29  C   UNL     1      39.112 -14.177  -1.485  1.00  0.00     0.037 A 
HETATM   30  C   UNL     1      38.786 -12.856  -1.184  1.00  0.00     0.068 A 
HETATM   31  C   UNL     1      39.142 -12.333   0.061  1.00  0.00     0.037 A 
HETATM   32  C   UNL     1      39.793 -13.125   1.013  1.00  0.00     0.012 A 
BRANCH  30  33
HETATM   33  O   UNL     1      38.143 -11.981  -2.016  1.00  0.00    -0.356 OA
HETATM   34  C   UNL     1      38.948 -11.310  -2.979  1.00  0.00     0.210 C 
ENDBRANCH  30  33
ENDBRANCH   1  27
TORSDOF 6
ENDMDL
MODEL 6
REMARK VINA RESULT:      -8.4      2.704      3.249
REMARK  6 active torsions:
REMARK  status: ('A' for Active; 'I' for Inactive)
REMARK    1  A    between atoms: O_2  and  C_3 
REMARK    2  A    between atoms: C_6  and  C_7 
REMARK    3  A    between atoms: C_12  and  C_13 
REMARK       I    between atoms: C_13  and  N_14 
REMARK    4  A    between atoms: N_14  and  C_15 
REMARK    5  A    between atoms: C_17  and  O_18 
REMARK    6  A    between atoms: C_24  and  C_25 
ROOT
HETATM    1  C   UNL     1      42.096 -15.142   2.915  1.00  0.00     0.118 C 
HETATM    2  N   UNL     1      42.349 -14.131   3.940  1.00  0.00    -0.366 N 
HETATM    3  C   UNL     1      41.379 -13.332   4.427  1.00  0.00     0.123 A 
HETATM    4  N   UNL     1      40.150 -13.269   3.836  1.00  0.00    -0.240 N 
HETATM    5  N   UNL     1      39.246 -12.545   4.521  1.00  0.00    -0.165 NA
HETATM    6  C   UNL     1      39.969 -12.045   5.552  1.00  0.00     0.148 A 
HETATM    7  C   UNL     1      41.319 -12.492   5.505  1.00  0.00     0.089 A 
HETATM    8  C   UNL     1      39.800 -14.044   2.662  1.00  0.00     0.221 C 
HETATM    9  C   UNL     1      40.585 -15.364   2.685  1.00  0.00     0.066 C 
HETATM   10  H   UNL     1      43.270 -14.173   4.377  1.00  0.00     0.161 HD
ENDROOT
BRANCH   6  11
HETATM   11  C   UNL     1      39.367 -11.192   6.593  1.00  0.00     0.276 C 
HETATM   12  N   UNL     1      40.309 -10.392   7.209  1.00  0.00    -0.322 N 
HETATM   13  H   UNL     1      41.255 -10.550   6.870  1.00  0.00     0.169 HD
HETATM   14  O   UNL     1      38.163 -11.218   6.823  1.00  0.00    -0.266 OA
BRANCH  12  15
HETATM   15  C   UNL     1      40.109  -9.401   8.186  1.00  0.00     0.037 A 
HETATM   16  C   UNL     1      39.470  -9.632   9.406  1.00  0.00     0.066 A 
HETATM   17  C   UNL     1      39.299  -8.582  10.308  1.00  0.00     0.067 A 
HETATM   18  C   UNL     1      39.758  -7.305  10.017  1.00  0.00     0.036 A 
HETATM   19  C   UNL     1      40.399  -7.067   8.803  1.00  0.00     0.005 A 
HETATM   20  C   UNL     1      40.573  -8.112   7.892  1.00  0.00     0.029 A 
BRANCH  17  21
HETATM   21  O   UNL     1      38.675  -8.774  11.507  1.00  0.00    -0.361 OA
HETATM   22  H   UNL     1      38.172  -7.971  11.722  1.00  0.00     0.217 HD
ENDBRANCH  17  21
ENDBRANCH  12  15
ENDBRANCH   6  11
BRANCH   8  23
HETATM   23  C   UNL     1      40.050 -13.235   1.410  1.00  0.00     0.409 C 
HETATM   24  F   UNL     1      38.955 -12.550   1.013  1.00  0.00    -0.169 F 
HETATM   25  F   UNL     1      41.067 -12.358   1.527  1.00  0.00    -0.169 F 
HETATM   26  F   UNL     1      40.374 -14.069   0.386  1.00  0.00    -0.169 F 
ENDBRANCH   8  23
BRANCH   1  27
HETATM   27  C   UNL     1      42.773 -16.437   3.332  1.00  0.00    -0.035 A 
HETATM   28  C   UNL     1      43.006 -17.464   2.400  1.00  0.00     0.012 A 
HETATM   29  C   UNL     1      43.642 -18.651   2.775  1.00  0.00     0.037 A 
HETATM   30  C   UNL     1      44.055 -18.835   4.093  1.00  0.00     0.068 A 
HETATM   31  C   UNL     1      43.806 -17.830   5.031  1.00  0.00     0.037 A 
HETATM   32  C   UNL     1      43.175 -16.639   4.658  1.00  0.00     0.012 A 
BRANCH  30  33
HETATM   33  O   UNL     1      44.690 -19.941   4.586  1.00  0.00    -0.356 OA
HETATM   34  C   UNL     1      43.931 -20.779   5.449  1.00  0.00     0.210 C 
ENDBRANCH  30  33
ENDBRANCH   1  27
TORSDOF 6
ENDMDL
MODEL 7
REMARK VINA RESULT:      -8.1      4.225      9.711
REMARK  6 active torsions:
REMARK  status: ('A' for Active; 'I' for Inactive)
REMARK    1  A    between atoms: O_2  and  C_3 
REMARK    2  A    between atoms: C_6  and  C_7 
REMARK    3  A    between atoms: C_12  and  C_13 
REMARK       I    between atoms: C_13  and  N_14 
REMARK    4  A    between atoms: N_14  and  C_15 
REMARK    5  A    between atoms: C_17  and  O_18 
REMARK    6  A    between atoms: C_24  and  C_25 
ROOT
HETATM    1  C   UNL     1      44.233 -12.779   6.259  1.00  0.00     0.118 C 
HETATM    2  N   UNL     1      43.955 -12.413   4.871  1.00  0.00    -0.366 N 
HETATM    3  C   UNL     1      42.948 -12.963   4.163  1.00  0.00     0.123 A 
HETATM    4  N   UNL     1      42.269 -14.052   4.627  1.00  0.00    -0.240 N 
HETATM    5  N   UNL     1      41.201 -14.393   3.882  1.00  0.00    -0.165 NA
HETATM    6  C   UNL     1      41.265 -13.530   2.839  1.00  0.00     0.148 A 
HETATM    7  C   UNL     1      42.368 -12.641   2.967  1.00  0.00     0.089 A 
HETATM    8  C   UNL     1      42.570 -14.689   5.894  1.00  0.00     0.221 C 
HETATM    9  C   UNL     1      43.095 -13.626   6.871  1.00  0.00     0.066 C 
HETATM   10  H   UNL     1      44.467 -11.602   4.522  1.00  0.00     0.161 HD
ENDROOT
BRANCH   6  11
HETATM   11  C   UNL     1      40.258 -13.524   1.762  1.00  0.00     0.276 C 
HETATM   12  N   UNL     1      40.832 -13.729   0.522  1.00  0.00    -0.322 N 
HETATM   13  H   UNL     1      41.845 -13.813   0.557  1.00  0.00     0.169 HD
HETATM   14  O   UNL     1      39.065 -13.374   2.002  1.00  0.00    -0.266 OA
BRANCH  12  15
HETATM   15  C   UNL     1      40.195 -13.865  -0.723  1.00  0.00     0.037 A 
HETATM   16  C   UNL     1      39.459 -14.991  -1.100  1.00  0.00     0.066 A 
HETATM   17  C   UNL     1      38.876 -15.046  -2.365  1.00  0.00     0.067 A 
HETATM   18  C   UNL     1      39.012 -13.996  -3.264  1.00  0.00     0.036 A 
HETATM   19  C   UNL     1      39.743 -12.870  -2.895  1.00  0.00     0.005 A 
HETATM   20  C   UNL     1      40.332 -12.805  -1.630  1.00  0.00     0.029 A 
BRANCH  17  21
HETATM   21  O   UNL     1      38.154 -16.133  -2.765  1.00  0.00    -0.361 OA
HETATM   22  H   UNL     1      37.217 -15.878  -2.812  1.00  0.00     0.217 HD
ENDBRANCH  17  21
ENDBRANCH  12  15
ENDBRANCH   6  11
BRANCH   8  23
HETATM   23  C   UNL     1      43.543 -15.826   5.688  1.00  0.00     0.409 C 
HETATM   24  F   UNL     1      43.032 -17.016   6.074  1.00  0.00    -0.169 F 
HETATM   25  F   UNL     1      43.968 -15.952   4.414  1.00  0.00    -0.169 F 
HETATM   26  F   UNL     1      44.652 -15.620   6.447  1.00  0.00    -0.169 F 
ENDBRANCH   8  23
BRANCH   1  27
HETATM   27  C   UNL     1      44.450 -11.508   7.063  1.00  0.00    -0.035 A 
HETATM   28  C   UNL     1      45.727 -10.926   7.164  1.00  0.00     0.012 A 
HETATM   29  C   UNL     1      45.930  -9.749   7.889  1.00  0.00     0.037 A 
HETATM   30  C   UNL     1      44.858  -9.132   8.532  1.00  0.00     0.068 A 
HETATM   31  C   UNL     1      43.592  -9.715   8.457  1.00  0.00     0.037 A 
HETATM   32  C   UNL     1      43.384 -10.891   7.727  1.00  0.00     0.012 A 
BRANCH  30  33
HETATM   33  O   UNL     1      44.922  -7.979   9.265  1.00  0.00    -0.356 OA
HETATM   34  C   UNL     1      43.840  -7.067   9.111  1.00  0.00     0.210 C 
ENDBRANCH  30  33
ENDBRANCH   1  27
TORSDOF 6
ENDMDL
MODEL 8
REMARK VINA RESULT:      -8.0      6.032     12.456
REMARK  6 active torsions:
REMARK  status: ('A' for Active; 'I' for Inactive)
REMARK    1  A    between atoms: O_2  and  C_3 
REMARK    2  A    between atoms: C_6  and  C_7 
REMARK    3  A    between atoms: C_12  and  C_13 
REMARK       I    between atoms: C_13  and  N_14 
REMARK    4  A    between atoms: N_14  and  C_15 
REMARK    5  A    between atoms: C_17  and  O_18 
REMARK    6  A    between atoms: C_24  and  C_25 
ROOT
HETATM    1  C   UNL     1      41.001  -7.136  15.665  1.00  0.00     0.118 C 
HETATM    2  N   UNL     1      40.889  -8.388  14.919  1.00  0.00    -0.366 N 
HETATM    3  C   UNL     1      41.658  -8.667  13.847  1.00  0.00     0.123 A 
HETATM    4  N   UNL     1      42.433  -7.707  13.263  1.00  0.00    -0.240 N 
HETATM    5  N   UNL     1      43.252  -8.170  12.302  1.00  0.00    -0.165 NA
HETATM    6  C   UNL     1      42.909  -9.478  12.208  1.00  0.00     0.148 A 
HETATM    7  C   UNL     1      41.888  -9.815  13.141  1.00  0.00     0.089 A 
HETATM    8  C   UNL     1      42.489  -6.340  13.742  1.00  0.00     0.221 C 
HETATM    9  C   UNL     1      42.259  -6.336  15.260  1.00  0.00     0.066 C 
HETATM   10  H   UNL     1      40.304  -9.104  15.352  1.00  0.00     0.161 HD
ENDROOT
BRANCH   6  11
HETATM   11  C   UNL     1      43.580 -10.402  11.275  1.00  0.00     0.276 C 
HETATM   12  N   UNL     1      43.733  -9.843  10.022  1.00  0.00    -0.322 N 
HETATM   13  H   UNL     1      43.330  -8.912   9.944  1.00  0.00     0.169 HD
HETATM   14  O   UNL     1      43.955 -11.513  11.634  1.00  0.00    -0.266 OA
BRANCH  12  15
HETATM   15  C   UNL     1      44.389 -10.380   8.900  1.00  0.00     0.037 A 
HETATM   16  C   UNL     1      45.755 -10.229   8.654  1.00  0.00     0.066 A 
HETATM   17  C   UNL     1      46.317 -10.782   7.503  1.00  0.00     0.067 A 
HETATM   18  C   UNL     1      45.540 -11.487   6.594  1.00  0.00     0.036 A 
HETATM   19  C   UNL     1      44.177 -11.643   6.833  1.00  0.00     0.005 A 
HETATM   20  C   UNL     1      43.604 -11.092   7.982  1.00  0.00     0.029 A 
BRANCH  17  21
HETATM   21  O   UNL     1      47.648 -10.649   7.232  1.00  0.00    -0.361 OA
HETATM   22  H   UNL     1      47.848 -11.156   6.427  1.00  0.00     0.217 HD
ENDBRANCH  17  21
ENDBRANCH  12  15
ENDBRANCH   6  11
BRANCH   8  23
HETATM   23  C   UNL     1      41.490  -5.485  12.996  1.00  0.00     0.409 C 
HETATM   24  F   UNL     1      40.912  -4.558  13.791  1.00  0.00    -0.169 F 
HETATM   25  F   UNL     1      42.014  -4.846  11.930  1.00  0.00    -0.169 F 
HETATM   26  F   UNL     1      40.484  -6.267  12.524  1.00  0.00    -0.169 F 
ENDBRANCH   8  23
BRANCH   1  27
HETATM   27  C   UNL     1      41.020  -7.456  17.150  1.00  0.00    -0.035 A 
HETATM   28  C   UNL     1      42.212  -7.371  17.893  1.00  0.00     0.012 A 
HETATM   29  C   UNL     1      42.233  -7.649  19.262  1.00  0.00     0.037 A 
HETATM   30  C   UNL     1      41.060  -8.021  19.916  1.00  0.00     0.068 A 
HETATM   31  C   UNL     1      39.877  -8.132  19.182  1.00  0.00     0.037 A 
HETATM   32  C   UNL     1      39.851  -7.849  17.813  1.00  0.00     0.012 A 
BRANCH  30  33
HETATM   33  O   UNL     1      40.944  -8.313  21.247  1.00  0.00    -0.356 OA
HETATM   34  C   UNL     1      39.628  -8.307  21.788  1.00  0.00     0.210 C 
ENDBRANCH  30  33
ENDBRANCH   1  27
TORSDOF 6
ENDMDL
MODEL 9
REMARK VINA RESULT:      -8.0     18.205     19.998
REMARK  6 active torsions:
REMARK  status: ('A' for Active; 'I' for Inactive)
REMARK    1  A    between atoms: O_2  and  C_3 
REMARK    2  A    between atoms: C_6  and  C_7 
REMARK    3  A    between atoms: C_12  and  C_13 
REMARK       I    between atoms: C_13  and  N_14 
REMARK    4  A    between atoms: N_14  and  C_15 
REMARK    5  A    between atoms: C_17  and  O_18 
REMARK    6  A    between atoms: C_24  and  C_25 
ROOT
HETATM    1  C   UNL     1      46.040 -30.472  -3.701  1.00  0.00     0.118 C 
HETATM    2  N   UNL     1      45.313 -31.222  -2.678  1.00  0.00    -0.366 N 
HETATM    3  C   UNL     1      44.747 -30.629  -1.608  1.00  0.00     0.123 A 
HETATM    4  N   UNL     1      45.008 -29.325  -1.301  1.00  0.00    -0.240 N 
HETATM    5  N   UNL     1      44.258 -28.835  -0.297  1.00  0.00    -0.165 NA
HETATM    6  C   UNL     1      43.552 -29.916   0.116  1.00  0.00     0.148 A 
HETATM    7  C   UNL     1      43.859 -31.066  -0.663  1.00  0.00     0.089 A 
HETATM    8  C   UNL     1      45.894 -28.491  -2.089  1.00  0.00     0.221 C 
HETATM    9  C   UNL     1      45.834 -28.948  -3.554  1.00  0.00     0.066 C 
HETATM   10  H   UNL     1      45.123 -32.199  -2.904  1.00  0.00     0.161 HD
ENDROOT
BRANCH   6  11
HETATM   11  C   UNL     1      42.564 -29.839   1.208  1.00  0.00     0.276 C 
HETATM   12  N   UNL     1      42.541 -30.996   1.962  1.00  0.00    -0.322 N 
HETATM   13  H   UNL     1      43.178 -31.712   1.620  1.00  0.00     0.169 HD
HETATM   14  O   UNL     1      41.888 -28.832   1.388  1.00  0.00    -0.266 OA
BRANCH  12  15
HETATM   15  C   UNL     1      41.795 -31.268   3.122  1.00  0.00     0.037 A 
HETATM   16  C   UNL     1      42.233 -30.969   4.414  1.00  0.00     0.066 A 
HETATM   17  C   UNL     1      41.432 -31.293   5.509  1.00  0.00     0.067 A 
HETATM   18  C   UNL     1      40.199 -31.907   5.338  1.00  0.00     0.036 A 
HETATM   19  C   UNL     1      39.755 -32.207   4.053  1.00  0.00     0.005 A 
HETATM   20  C   UNL     1      40.550 -31.888   2.949  1.00  0.00     0.029 A 
BRANCH  17  21
HETATM   21  O   UNL     1      41.833 -31.018   6.784  1.00  0.00    -0.361 OA
HETATM   22  H   UNL     1      42.805 -31.009   6.804  1.00  0.00     0.217 HD
ENDBRANCH  17  21
ENDBRANCH  12  15
ENDBRANCH   6  11
BRANCH   8  23
HETATM   23  C   UNL     1      47.294 -28.535  -1.519  1.00  0.00     0.409 C 
HETATM   24  F   UNL     1      47.450 -29.528  -0.617  1.00  0.00    -0.169 F 
HETATM   25  F   UNL     1      48.255 -28.669  -2.455  1.00  0.00    -0.169 F 
HETATM   26  F   UNL     1      47.553 -27.374  -0.861  1.00  0.00    -0.169 F 
ENDBRANCH   8  23
BRANCH   1  27
HETATM   27  C   UNL     1      45.581 -30.948  -5.070  1.00  0.00    -0.035 A 
HETATM   28  C   UNL     1      44.330 -30.565  -5.587  1.00  0.00     0.012 A 
HETATM   29  C   UNL     1      43.910 -30.987  -6.851  1.00  0.00     0.037 A 
HETATM   30  C   UNL     1      44.734 -31.804  -7.623  1.00  0.00     0.068 A 
HETATM   31  C   UNL     1      45.967 -32.209  -7.108  1.00  0.00     0.037 A 
HETATM   32  C   UNL     1      46.393 -31.784  -5.845  1.00  0.00     0.012 A 
BRANCH  30  33
HETATM   33  O   UNL     1      44.445 -32.280  -8.873  1.00  0.00    -0.356 OA
HETATM   34  C   UNL     1      45.531 -32.821  -9.614  1.00  0.00     0.210 C 
ENDBRANCH  30  33
ENDBRANCH   1  27
TORSDOF 6
ENDMDL
MODEL 10
REMARK VINA RESULT:      -7.9      3.280      4.249
REMARK  6 active torsions:
REMARK  status: ('A' for Active; 'I' for Inactive)
REMARK    1  A    between atoms: O_2  and  C_3 
REMARK    2  A    between atoms: C_6  and  C_7 
REMARK    3  A    between atoms: C_12  and  C_13 
REMARK       I    between atoms: C_13  and  N_14 
REMARK    4  A    between atoms: N_14  and  C_15 
REMARK    5  A    between atoms: C_17  and  O_18 
REMARK    6  A    between atoms: C_24  and  C_25 
ROOT
HETATM    1  C   UNL     1      41.230 -14.654   3.225  1.00  0.00     0.118 C 
HETATM    2  N   UNL     1      40.949 -13.529   4.115  1.00  0.00    -0.366 N 
HETATM    3  C   UNL     1      41.815 -13.120   5.064  1.00  0.00     0.123 A 
HETATM    4  N   UNL     1      42.907 -13.870   5.396  1.00  0.00    -0.240 N 
HETATM    5  N   UNL     1      43.752 -13.263   6.249  1.00  0.00    -0.165 NA
HETATM    6  C   UNL     1      43.112 -12.106   6.546  1.00  0.00     0.148 A 
HETATM    7  C   UNL     1      41.878 -12.000   5.846  1.00  0.00     0.089 A 
HETATM    8  C   UNL     1      43.215 -15.137   4.764  1.00  0.00     0.221 C 
HETATM    9  C   UNL     1      42.704 -15.107   3.316  1.00  0.00     0.066 C 
HETATM   10  H   UNL     1      40.129 -12.973   3.872  1.00  0.00     0.161 HD
ENDROOT
BRANCH   6  11
HETATM   11  C   UNL     1      43.694 -11.095   7.449  1.00  0.00     0.276 C 
HETATM   12  N   UNL     1      42.754 -10.589   8.326  1.00  0.00    -0.322 N 
HETATM   13  H   UNL     1      41.822 -10.968   8.180  1.00  0.00     0.169 HD
HETATM   14  O   UNL     1      44.882 -10.798   7.395  1.00  0.00    -0.266 OA
BRANCH  12  15
HETATM   15  C   UNL     1      42.943  -9.675   9.376  1.00  0.00     0.037 A 
HETATM   16  C   UNL     1      42.798  -8.293   9.238  1.00  0.00     0.066 A 
HETATM   17  C   UNL     1      43.024  -7.459  10.333  1.00  0.00     0.067 A 
HETATM   18  C   UNL     1      43.391  -7.980  11.567  1.00  0.00     0.036 A 
HETATM   19  C   UNL     1      43.537  -9.357  11.713  1.00  0.00     0.005 A 
HETATM   20  C   UNL     1      43.314 -10.200  10.622  1.00  0.00     0.029 A 
BRANCH  17  21
HETATM   21  O   UNL     1      42.893  -6.104  10.229  1.00  0.00    -0.361 OA
HETATM   22  H   UNL     1      42.657  -5.752  11.104  1.00  0.00     0.217 HD
ENDBRANCH  17  21
ENDBRANCH  12  15
ENDBRANCH   6  11
BRANCH   8  23
HETATM   23  C   UNL     1      42.632 -16.276   5.568  1.00  0.00     0.409 C 
HETATM   24  F   UNL     1      43.512 -16.776   6.463  1.00  0.00    -0.169 F 
HETATM   25  F   UNL     1      41.506 -15.948   6.233  1.00  0.00    -0.169 F 
HETATM   26  F   UNL     1      42.307 -17.301   4.736  1.00  0.00    -0.169 F 
ENDBRANCH   8  23
BRANCH   1  27
HETATM   27  C   UNL     1      40.878 -14.248   1.803  1.00  0.00    -0.035 A 
HETATM   28  C   UNL     1      41.249 -12.989   1.298  1.00  0.00     0.012 A 
HETATM   29  C   UNL     1      40.942 -12.617  -0.013  1.00  0.00     0.037 A 
HETATM   30  C   UNL     1      40.252 -13.497  -0.845  1.00  0.00     0.068 A 
HETATM   31  C   UNL     1      39.858 -14.739  -0.344  1.00  0.00     0.037 A 
HETATM   32  C   UNL     1      40.169 -15.118   0.966  1.00  0.00     0.012 A 
BRANCH  30  33
HETATM   33  O   UNL     1      39.896 -13.258  -2.144  1.00  0.00    -0.356 OA
HETATM   34  C   UNL     1      38.735 -12.462  -2.349  1.00  0.00     0.210 C 
ENDBRANCH  30  33
ENDBRANCH   1  27
TORSDOF 6
ENDMDL
