MODEL 1
REMARK VINA RESULT:      -8.0      0.000      0.000
REMARK  6 active torsions:
REMARK  status: ('A' for Active; 'I' for Inactive)
REMARK    1  A    between atoms: C_2  and  N_3 
REMARK    2  A    between atoms: C_5  and  C_6 
REMARK    3  A    between atoms: C_6  and  N_7 
REMARK       I    between atoms: N_7  and  C_8 
REMARK    4  A    between atoms: C_8  and  C_9 
REMARK    5  A    between atoms: C_9  and  C_10 
REMARK    6  A    between atoms: C_11  and  C_12 
ROOT
HETATM    1  C   UNL     1      43.804 -18.505   4.142  1.00  0.00     0.005 C 
HETATM    2  C   UNL     1      43.181 -18.154   2.941  1.00  0.00     0.069 C 
HETATM    3  N   UNL     1      43.141 -19.315   2.209  1.00  0.00    -0.277 N 
HETATM    4  H   UNL     1      42.845 -19.438   1.246  1.00  0.00     0.189 HD
HETATM    5  N   UNL     1      43.502 -20.398   2.900  1.00  0.00    -0.179 NA
HETATM    6  C   UNL     1      44.057 -19.907   4.011  1.00  0.00     0.059 C 
HETATM    7  C   UNL     1      44.794 -20.830   4.916  1.00  0.00     0.073 C 
ENDROOT
BRANCH   1   8
HETATM    8  C   UNL     1      44.167 -17.608   5.290  1.00  0.00     0.146 C 
BRANCH   8   9
HETATM    9  C   UNL     1      43.354 -17.867   6.543  1.00  0.00     0.222 C 
HETATM   10  N   UNL     1      42.817 -16.839   7.266  1.00  0.00    -0.359 N 
HETATM   11  H   UNL     1      42.410 -17.213   8.120  1.00  0.00     0.162 HD
HETATM   12  O   UNL     1      43.115 -19.008   6.938  1.00  0.00    -0.273 OA
BRANCH  10  13
HETATM   13  C   UNL     1      43.136 -15.418   7.252  1.00  0.00     0.155 C 
BRANCH  13  14
HETATM   14  C   UNL     1      42.028 -14.518   6.697  1.00  0.00     0.206 C 
HETATM   15  N   UNL     1      42.327 -13.027   6.649  1.00  0.00    -0.066 N 
HETATM   16  H   UNL     1      42.299 -12.659   7.615  1.00  0.00     0.280 HD
HETATM   17  C   UNL     1      41.108 -12.507   5.907  1.00  0.00     0.235 C 
HETATM   18  C   UNL     1      40.838 -13.560   4.836  1.00  0.00     0.030 C 
HETATM   19  C   UNL     1      41.560 -14.829   5.284  1.00  0.00     0.036 C 
BRANCH  15  20
HETATM   20  C   UNL     1      43.610 -12.560   5.991  1.00  0.00     0.231 C 
HETATM   21  C   UNL     1      44.586 -11.978   6.994  1.00  0.00     0.034 C 
ENDBRANCH  15  20
ENDBRANCH  13  14
ENDBRANCH  10  13
ENDBRANCH   8   9
ENDBRANCH   1   8
BRANCH   2  22
HETATM   22  C   UNL     1      42.681 -16.889   2.401  1.00  0.00    -0.007 A 
HETATM   23  C   UNL     1      43.541 -15.809   2.166  1.00  0.00     0.015 A 
HETATM   24  C   UNL     1      43.045 -14.592   1.686  1.00  0.00     0.024 A 
HETATM   25  C   UNL     1      41.685 -14.451   1.427  1.00  0.00     0.034 A 
HETATM   26 CL   UNL     1      41.074 -12.952   0.850  1.00  0.00    -0.084 Cl
HETATM   27  C   UNL     1      40.817 -15.519   1.634  1.00  0.00     0.024 A 
HETATM   28  C   UNL     1      41.313 -16.733   2.118  1.00  0.00     0.015 A 
ENDBRANCH   2  22
TORSDOF 6
ENDMDL
MODEL 2
REMARK VINA RESULT:      -7.5      3.864      6.620
REMARK  6 active torsions:
REMARK  status: ('A' for Active; 'I' for Inactive)
REMARK    1  A    between atoms: C_2  and  N_3 
REMARK    2  A    between atoms: C_5  and  C_6 
REMARK    3  A    between atoms: C_6  and  N_7 
REMARK       I    between atoms: N_7  and  C_8 
REMARK    4  A    between atoms: C_8  and  C_9 
REMARK    5  A    between atoms: C_9  and  C_10 
REMARK    6  A    between atoms: C_11  and  C_12 
ROOT
HETATM    1  C   UNL     1      42.497 -14.088   4.235  1.00  0.00     0.005 C 
HETATM    2  C   UNL     1      43.008 -15.311   4.679  1.00  0.00     0.069 C 
HETATM    3  N   UNL     1      43.400 -15.083   5.974  1.00  0.00    -0.277 N 
HETATM    4  H   UNL     1      43.903 -15.709   6.596  1.00  0.00     0.189 HD
HETATM    5  N   UNL     1      43.015 -13.897   6.452  1.00  0.00    -0.179 NA
HETATM    6  C   UNL     1      42.615 -13.225   5.370  1.00  0.00     0.059 C 
HETATM    7  C   UNL     1      42.339 -11.768   5.490  1.00  0.00     0.073 C 
ENDROOT
BRANCH   1   8
HETATM    8  C   UNL     1      41.984 -13.744   2.866  1.00  0.00     0.146 C 
BRANCH   8   9
HETATM    9  C   UNL     1      40.482 -13.891   2.726  1.00  0.00     0.222 C 
HETATM   10  N   UNL     1      39.920 -14.371   1.577  1.00  0.00    -0.359 N 
HETATM   11  H   UNL     1      38.908 -14.286   1.644  1.00  0.00     0.162 HD
HETATM   12  O   UNL     1      39.715 -13.621   3.650  1.00  0.00    -0.273 OA
BRANCH  10  13
HETATM   13  C   UNL     1      40.486 -14.501   0.242  1.00  0.00     0.155 C 
BRANCH  13  14
HETATM   14  C   UNL     1      39.483 -14.322  -0.900  1.00  0.00     0.206 C 
HETATM   15  N   UNL     1      38.498 -13.169  -0.761  1.00  0.00    -0.066 N 
HETATM   16  H   UNL     1      37.803 -13.421  -0.038  1.00  0.00     0.280 HD
HETATM   17  C   UNL     1      37.809 -13.208  -2.115  1.00  0.00     0.235 C 
HETATM   18  C   UNL     1      38.930 -13.520  -3.103  1.00  0.00     0.030 C 
HETATM   19  C   UNL     1      40.075 -14.114  -2.285  1.00  0.00     0.036 C 
BRANCH  15  20
HETATM   20  C   UNL     1      39.033 -11.785  -0.458  1.00  0.00     0.231 C 
HETATM   21  C   UNL     1      38.422 -11.201   0.801  1.00  0.00     0.034 C 
ENDBRANCH  15  20
ENDBRANCH  13  14
ENDBRANCH  10  13
ENDBRANCH   8   9
ENDBRANCH   1   8
BRANCH   2  22
HETATM   22  C   UNL     1      43.208 -16.610   4.034  1.00  0.00    -0.007 A 
HETATM   23  C   UNL     1      44.064 -17.570   4.586  1.00  0.00     0.015 A 
HETATM   24  C   UNL     1      44.277 -18.793   3.940  1.00  0.00     0.024 A 
HETATM   25  C   UNL     1      43.624 -19.067   2.742  1.00  0.00     0.034 A 
HETATM   26 CL   UNL     1      43.895 -20.563   1.941  1.00  0.00    -0.084 Cl
HETATM   27  C   UNL     1      42.753 -18.135   2.188  1.00  0.00     0.024 A 
HETATM   28  C   UNL     1      42.545 -16.911   2.832  1.00  0.00     0.015 A 
ENDBRANCH   2  22
TORSDOF 6
ENDMDL
MODEL 3
REMARK VINA RESULT:      -7.5      3.476      6.513
REMARK  6 active torsions:
REMARK  status: ('A' for Active; 'I' for Inactive)
REMARK    1  A    between atoms: C_2  and  N_3 
REMARK    2  A    between atoms: C_5  and  C_6 
REMARK    3  A    between atoms: C_6  and  N_7 
REMARK       I    between atoms: N_7  and  C_8 
REMARK    4  A    between atoms: C_8  and  C_9 
REMARK    5  A    between atoms: C_9  and  C_10 
REMARK    6  A    between atoms: C_11  and  C_12 
ROOT
HETATM    1  C   UNL     1      42.657 -14.204   4.775  1.00  0.00     0.005 C 
HETATM    2  C   UNL     1      43.206 -15.467   5.014  1.00  0.00     0.069 C 
HETATM    3  N   UNL     1      43.734 -15.391   6.278  1.00  0.00    -0.277 N 
HETATM    4  H   UNL     1      44.297 -16.082   6.764  1.00  0.00     0.189 HD
HETATM    5  N   UNL     1      43.408 -14.273   6.931  1.00  0.00    -0.179 NA
HETATM    6  C   UNL     1      42.899 -13.480   5.984  1.00  0.00     0.059 C 
HETATM    7  C   UNL     1      42.645 -12.050   6.305  1.00  0.00     0.073 C 
ENDROOT
BRANCH   1   8
HETATM    8  C   UNL     1      42.003 -13.704   3.518  1.00  0.00     0.146 C 
BRANCH   8   9
HETATM    9  C   UNL     1      40.488 -13.726   3.572  1.00  0.00     0.222 C 
HETATM   10  N   UNL     1      39.753 -14.353   2.607  1.00  0.00    -0.359 N 
HETATM   11  H   UNL     1      38.767 -14.158   2.764  1.00  0.00     0.162 HD
HETATM   12  O   UNL     1      39.865 -13.215   4.502  1.00  0.00    -0.273 OA
BRANCH  10  13
HETATM   13  C   UNL     1      40.137 -14.784   1.269  1.00  0.00     0.155 C 
BRANCH  13  14
HETATM   14  C   UNL     1      40.393 -13.646   0.279  1.00  0.00     0.206 C 
HETATM   15  N   UNL     1      40.342 -14.010  -1.199  1.00  0.00    -0.066 N 
HETATM   16  H   UNL     1      41.191 -14.554  -1.429  1.00  0.00     0.280 HD
HETATM   17  C   UNL     1      40.468 -12.639  -1.842  1.00  0.00     0.235 C 
HETATM   18  C   UNL     1      39.628 -11.725  -0.955  1.00  0.00     0.030 C 
HETATM   19  C   UNL     1      39.462 -12.449   0.379  1.00  0.00     0.036 C 
BRANCH  15  20
HETATM   20  C   UNL     1      39.132 -14.754  -1.725  1.00  0.00     0.231 C 
HETATM   21  C   UNL     1      38.848 -14.425  -3.178  1.00  0.00     0.034 C 
ENDBRANCH  15  20
ENDBRANCH  13  14
ENDBRANCH  10  13
ENDBRANCH   8   9
ENDBRANCH   1   8
BRANCH   2  22
HETATM   22  C   UNL     1      43.329 -16.679   4.201  1.00  0.00    -0.007 A 
HETATM   23  C   UNL     1      42.658 -16.804   2.979  1.00  0.00     0.015 A 
HETATM   24  C   UNL     1      42.753 -17.982   2.230  1.00  0.00     0.024 A 
HETATM   25  C   UNL     1      43.530 -19.039   2.695  1.00  0.00     0.034 A 
HETATM   26 CL   UNL     1      43.636 -20.491   1.782  1.00  0.00    -0.084 Cl
HETATM   27  C   UNL     1      44.221 -18.926   3.897  1.00  0.00     0.024 A 
HETATM   28  C   UNL     1      44.122 -17.750   4.647  1.00  0.00     0.015 A 
ENDBRANCH   2  22
TORSDOF 6
ENDMDL
MODEL 4
REMARK VINA RESULT:      -7.2      4.231      7.365
REMARK  6 active torsions:
REMARK  status: ('A' for Active; 'I' for Inactive)
REMARK    1  A    between atoms: C_2  and  N_3 
REMARK    2  A    between atoms: C_5  and  C_6 
REMARK    3  A    between atoms: C_6  and  N_7 
REMARK       I    between atoms: N_7  and  C_8 
REMARK    4  A    between atoms: C_8  and  C_9 
REMARK    5  A    between atoms: C_9  and  C_10 
REMARK    6  A    between atoms: C_11  and  C_12 
ROOT
HETATM    1  C   UNL     1      41.512 -13.143   2.947  1.00  0.00     0.005 C 
HETATM    2  C   UNL     1      42.708 -13.853   3.072  1.00  0.00     0.069 C 
HETATM    3  N   UNL     1      43.697 -12.921   2.880  1.00  0.00    -0.277 N 
HETATM    4  H   UNL     1      44.698 -13.075   2.805  1.00  0.00     0.189 HD
HETATM    5  N   UNL     1      43.249 -11.664   2.836  1.00  0.00    -0.179 NA
HETATM    6  C   UNL     1      41.926 -11.794   2.712  1.00  0.00     0.059 C 
HETATM    7  C   UNL     1      41.112 -10.590   2.392  1.00  0.00     0.073 C 
ENDROOT
BRANCH   1   8
HETATM    8  C   UNL     1      40.109 -13.678   3.001  1.00  0.00     0.146 C 
BRANCH   8   9
HETATM    9  C   UNL     1      39.771 -14.610   1.854  1.00  0.00     0.222 C 
HETATM   10  N   UNL     1      39.620 -14.141   0.580  1.00  0.00    -0.359 N 
HETATM   11  H   UNL     1      39.287 -14.897  -0.014  1.00  0.00     0.162 HD
HETATM   12  O   UNL     1      39.656 -15.824   2.016  1.00  0.00    -0.273 OA
BRANCH  10  13
HETATM   13  C   UNL     1      39.405 -12.782   0.102  1.00  0.00     0.155 C 
BRANCH  13  14
HETATM   14  C   UNL     1      40.397 -12.314  -0.966  1.00  0.00     0.206 C 
HETATM   15  N   UNL     1      40.455 -13.137  -2.245  1.00  0.00    -0.066 N 
HETATM   16  H   UNL     1      40.928 -14.032  -2.034  1.00  0.00     0.280 HD
HETATM   17  C   UNL     1      41.389 -12.293  -3.095  1.00  0.00     0.235 C 
HETATM   18  C   UNL     1      40.986 -10.854  -2.788  1.00  0.00     0.030 C 
HETATM   19  C   UNL     1      40.214 -10.891  -1.471  1.00  0.00     0.036 C 
BRANCH  15  20
HETATM   20  C   UNL     1      39.163 -13.435  -2.980  1.00  0.00     0.231 C 
HETATM   21  C   UNL     1      38.784 -14.900  -2.896  1.00  0.00     0.034 C 
ENDBRANCH  15  20
ENDBRANCH  13  14
ENDBRANCH  10  13
ENDBRANCH   8   9
ENDBRANCH   1   8
BRANCH   2  22
HETATM   22  C   UNL     1      43.019 -15.267   3.295  1.00  0.00    -0.007 A 
HETATM   23  C   UNL     1      43.278 -15.759   4.580  1.00  0.00     0.015 A 
HETATM   24  C   UNL     1      43.612 -17.103   4.775  1.00  0.00     0.024 A 
HETATM   25  C   UNL     1      43.677 -17.967   3.687  1.00  0.00     0.034 A 
HETATM   26 CL   UNL     1      44.099 -19.616   3.925  1.00  0.00    -0.084 Cl
HETATM   27  C   UNL     1      43.402 -17.502   2.404  1.00  0.00     0.024 A 
HETATM   28  C   UNL     1      43.073 -16.158   2.209  1.00  0.00     0.015 A 
ENDBRANCH   2  22
TORSDOF 6
ENDMDL
MODEL 5
REMARK VINA RESULT:      -7.2      3.622      5.794
REMARK  6 active torsions:
REMARK  status: ('A' for Active; 'I' for Inactive)
REMARK    1  A    between atoms: C_2  and  N_3 
REMARK    2  A    between atoms: C_5  and  C_6 
REMARK    3  A    between atoms: C_6  and  N_7 
REMARK       I    between atoms: N_7  and  C_8 
REMARK    4  A    between atoms: C_8  and  C_9 
REMARK    5  A    between atoms: C_9  and  C_10 
REMARK    6  A    between atoms: C_11  and  C_12 
ROOT
HETATM    1  C   UNL     1      39.810 -12.832   0.976  1.00  0.00     0.005 C 
HETATM    2  C   UNL     1      40.276 -14.142   0.835  1.00  0.00     0.069 C 
HETATM    3  N   UNL     1      39.729 -14.589  -0.342  1.00  0.00    -0.277 N 
HETATM    4  H   UNL     1      39.764 -15.525  -0.734  1.00  0.00     0.189 HD
HETATM    5  N   UNL     1      39.122 -13.633  -1.050  1.00  0.00    -0.179 NA
HETATM    6  C   UNL     1      39.021 -12.611  -0.196  1.00  0.00     0.059 C 
HETATM    7  C   UNL     1      38.176 -11.444  -0.569  1.00  0.00     0.073 C 
ENDROOT
BRANCH   1   8
HETATM    8  C   UNL     1      40.044 -11.887   2.120  1.00  0.00     0.146 C 
BRANCH   8   9
HETATM    9  C   UNL     1      41.505 -11.548   2.337  1.00  0.00     0.222 C 
HETATM   10  N   UNL     1      42.157 -11.914   3.481  1.00  0.00    -0.359 N 
HETATM   11  H   UNL     1      43.085 -11.498   3.480  1.00  0.00     0.162 HD
HETATM   12  O   UNL     1      42.170 -10.964   1.481  1.00  0.00    -0.273 OA
BRANCH  10  13
HETATM   13  C   UNL     1      41.622 -12.335   4.768  1.00  0.00     0.155 C 
BRANCH  13  14
HETATM   14  C   UNL     1      42.201 -13.647   5.304  1.00  0.00     0.206 C 
HETATM   15  N   UNL     1      43.573 -13.564   5.960  1.00  0.00    -0.066 N 
HETATM   16  H   UNL     1      44.279 -13.422   5.219  1.00  0.00     0.280 HD
HETATM   17  C   UNL     1      43.726 -14.976   6.498  1.00  0.00     0.235 C 
HETATM   18  C   UNL     1      42.335 -15.340   7.011  1.00  0.00     0.030 C 
HETATM   19  C   UNL     1      41.360 -14.377   6.338  1.00  0.00     0.036 C 
BRANCH  15  20
HETATM   20  C   UNL     1      43.799 -12.534   7.049  1.00  0.00     0.231 C 
HETATM   21  C   UNL     1      45.095 -11.772   6.851  1.00  0.00     0.034 C 
ENDBRANCH  15  20
ENDBRANCH  13  14
ENDBRANCH  10  13
ENDBRANCH   8   9
ENDBRANCH   1   8
BRANCH   2  22
HETATM   22  C   UNL     1      41.107 -15.008   1.672  1.00  0.00    -0.007 A 
HETATM   23  C   UNL     1      42.489 -15.109   1.465  1.00  0.00     0.015 A 
HETATM   24  C   UNL     1      43.267 -15.970   2.247  1.00  0.00     0.024 A 
HETATM   25  C   UNL     1      42.669 -16.727   3.250  1.00  0.00     0.034 A 
HETATM   26 CL   UNL     1      43.622 -17.794   4.202  1.00  0.00    -0.084 Cl
HETATM   27  C   UNL     1      41.301 -16.625   3.486  1.00  0.00     0.024 A 
HETATM   28  C   UNL     1      40.524 -15.768   2.701  1.00  0.00     0.015 A 
ENDBRANCH   2  22
TORSDOF 6
ENDMDL
MODEL 6
REMARK VINA RESULT:      -7.1      3.661      6.607
REMARK  6 active torsions:
REMARK  status: ('A' for Active; 'I' for Inactive)
REMARK    1  A    between atoms: C_2  and  N_3 
REMARK    2  A    between atoms: C_5  and  C_6 
REMARK    3  A    between atoms: C_6  and  N_7 
REMARK       I    between atoms: N_7  and  C_8 
REMARK    4  A    between atoms: C_8  and  C_9 
REMARK    5  A    between atoms: C_9  and  C_10 
REMARK    6  A    between atoms: C_11  and  C_12 
ROOT
HETATM    1  C   UNL     1      42.601 -13.881   4.745  1.00  0.00     0.005 C 
HETATM    2  C   UNL     1      43.145 -15.137   5.027  1.00  0.00     0.069 C 
HETATM    3  N   UNL     1      43.617 -15.039   6.312  1.00  0.00    -0.277 N 
HETATM    4  H   UNL     1      44.161 -15.720   6.833  1.00  0.00     0.189 HD
HETATM    5  N   UNL     1      43.257 -13.913   6.932  1.00  0.00    -0.179 NA
HETATM    6  C   UNL     1      42.786 -13.138   5.953  1.00  0.00     0.059 C 
HETATM    7  C   UNL     1      42.511 -11.704   6.240  1.00  0.00     0.073 C 
ENDROOT
BRANCH   1   8
HETATM    8  C   UNL     1      42.001 -13.404   3.453  1.00  0.00     0.146 C 
BRANCH   8   9
HETATM    9  C   UNL     1      42.772 -12.268   2.810  1.00  0.00     0.222 C 
HETATM   10  N   UNL     1      42.154 -11.365   1.992  1.00  0.00    -0.359 N 
HETATM   11  H   UNL     1      42.859 -10.759   1.577  1.00  0.00     0.162 HD
HETATM   12  O   UNL     1      43.971 -12.093   3.025  1.00  0.00    -0.273 OA
BRANCH  10  13
HETATM   13  C   UNL     1      40.867 -11.442   1.315  1.00  0.00     0.155 C 
BRANCH  13  14
HETATM   14  C   UNL     1      40.948 -11.489  -0.212  1.00  0.00     0.206 C 
HETATM   15  N   UNL     1      40.924 -12.872  -0.850  1.00  0.00    -0.066 N 
HETATM   16  H   UNL     1      41.836 -13.326  -0.674  1.00  0.00     0.280 HD
HETATM   17  C   UNL     1      40.849 -12.513  -2.324  1.00  0.00     0.235 C 
HETATM   18  C   UNL     1      39.905 -11.315  -2.376  1.00  0.00     0.030 C 
HETATM   19  C   UNL     1      39.861 -10.737  -0.963  1.00  0.00     0.036 C 
BRANCH  15  20
HETATM   20  C   UNL     1      39.820 -13.835  -0.462  1.00  0.00     0.231 C 
HETATM   21  C   UNL     1      40.320 -14.936   0.452  1.00  0.00     0.034 C 
ENDBRANCH  15  20
ENDBRANCH  13  14
ENDBRANCH  10  13
ENDBRANCH   8   9
ENDBRANCH   1   8
BRANCH   2  22
HETATM   22  C   UNL     1      43.310 -16.360   4.240  1.00  0.00    -0.007 A 
HETATM   23  C   UNL     1      42.742 -16.485   2.966  1.00  0.00     0.015 A 
HETATM   24  C   UNL     1      42.874 -17.674   2.239  1.00  0.00     0.024 A 
HETATM   25  C   UNL     1      43.585 -18.741   2.778  1.00  0.00     0.034 A 
HETATM   26 CL   UNL     1      43.736 -20.206   1.891  1.00  0.00    -0.084 Cl
HETATM   27  C   UNL     1      44.175 -18.629   4.033  1.00  0.00     0.024 A 
HETATM   28  C   UNL     1      44.038 -17.443   4.761  1.00  0.00     0.015 A 
ENDBRANCH   2  22
TORSDOF 6
ENDMDL
MODEL 7
REMARK VINA RESULT:      -7.1      4.243      7.060
REMARK  6 active torsions:
REMARK  status: ('A' for Active; 'I' for Inactive)
REMARK    1  A    between atoms: C_2  and  N_3 
REMARK    2  A    between atoms: C_5  and  C_6 
REMARK    3  A    between atoms: C_6  and  N_7 
REMARK       I    between atoms: N_7  and  C_8 
REMARK    4  A    between atoms: C_8  and  C_9 
REMARK    5  A    between atoms: C_9  and  C_10 
REMARK    6  A    between atoms: C_11  and  C_12 
ROOT
HETATM    1  C   UNL     1      41.533 -12.832   3.172  1.00  0.00     0.005 C 
HETATM    2  C   UNL     1      42.714 -13.577   3.107  1.00  0.00     0.069 C 
HETATM    3  N   UNL     1      43.713 -12.646   2.966  1.00  0.00    -0.277 N 
HETATM    4  H   UNL     1      44.701 -12.808   2.793  1.00  0.00     0.189 HD
HETATM    5  N   UNL     1      43.301 -11.386   3.127  1.00  0.00    -0.179 NA
HETATM    6  C   UNL     1      41.969 -11.472   3.090  1.00  0.00     0.059 C 
HETATM    7  C   UNL     1      41.170 -10.220   3.000  1.00  0.00     0.073 C 
ENDROOT
BRANCH   1   8
HETATM    8  C   UNL     1      40.124 -13.343   3.263  1.00  0.00     0.146 C 
BRANCH   8   9
HETATM    9  C   UNL     1      39.728 -14.239   2.106  1.00  0.00     0.222 C 
HETATM   10  N   UNL     1      39.525 -13.733   0.853  1.00  0.00    -0.359 N 
HETATM   11  H   UNL     1      39.160 -14.470   0.254  1.00  0.00     0.162 HD
HETATM   12  O   UNL     1      39.609 -15.457   2.239  1.00  0.00    -0.273 OA
BRANCH  10  13
HETATM   13  C   UNL     1      39.300 -12.360   0.423  1.00  0.00     0.155 C 
BRANCH  13  14
HETATM   14  C   UNL     1      39.567 -12.102  -1.062  1.00  0.00     0.206 C 
HETATM   15  N   UNL     1      40.209 -10.767  -1.413  1.00  0.00    -0.066 N 
HETATM   16  H   UNL     1      39.500 -10.024  -1.295  1.00  0.00     0.280 HD
HETATM   17  C   UNL     1      40.465 -10.947  -2.900  1.00  0.00     0.235 C 
HETATM   18  C   UNL     1      40.916 -12.399  -3.035  1.00  0.00     0.030 C 
HETATM   19  C   UNL     1      40.453 -13.116  -1.768  1.00  0.00     0.036 C 
BRANCH  15  20
HETATM   20  C   UNL     1      41.472 -10.351  -0.686  1.00  0.00     0.231 C 
HETATM   21  C   UNL     1      42.120  -9.135  -1.320  1.00  0.00     0.034 C 
ENDBRANCH  15  20
ENDBRANCH  13  14
ENDBRANCH  10  13
ENDBRANCH   8   9
ENDBRANCH   1   8
BRANCH   2  22
HETATM   22  C   UNL     1      42.998 -15.013   3.112  1.00  0.00    -0.007 A 
HETATM   23  C   UNL     1      43.140 -15.728   1.916  1.00  0.00     0.015 A 
HETATM   24  C   UNL     1      43.373 -17.108   1.934  1.00  0.00     0.024 A 
HETATM   25  C   UNL     1      43.476 -17.779   3.149  1.00  0.00     0.034 A 
HETATM   26 CL   UNL     1      43.749 -19.475   3.170  1.00  0.00    -0.084 Cl
HETATM   27  C   UNL     1      43.359 -17.082   4.347  1.00  0.00     0.024 A 
HETATM   28  C   UNL     1      43.122 -15.704   4.329  1.00  0.00     0.015 A 
ENDBRANCH   2  22
TORSDOF 6
ENDMDL
MODEL 8
REMARK VINA RESULT:      -7.0      3.511      6.045
REMARK  6 active torsions:
REMARK  status: ('A' for Active; 'I' for Inactive)
REMARK    1  A    between atoms: C_2  and  N_3 
REMARK    2  A    between atoms: C_5  and  C_6 
REMARK    3  A    between atoms: C_6  and  N_7 
REMARK       I    between atoms: N_7  and  C_8 
REMARK    4  A    between atoms: C_8  and  C_9 
REMARK    5  A    between atoms: C_9  and  C_10 
REMARK    6  A    between atoms: C_11  and  C_12 
ROOT
HETATM    1  C   UNL     1      42.105 -13.227   5.352  1.00  0.00     0.005 C 
HETATM    2  C   UNL     1      41.591 -14.302   4.623  1.00  0.00     0.069 C 
HETATM    3  N   UNL     1      40.264 -14.003   4.437  1.00  0.00    -0.277 N 
HETATM    4  H   UNL     1      39.541 -14.589   4.031  1.00  0.00     0.189 HD
HETATM    5  N   UNL     1      39.936 -12.764   4.810  1.00  0.00    -0.179 NA
HETATM    6  C   UNL     1      40.992 -12.343   5.509  1.00  0.00     0.059 C 
HETATM    7  C   UNL     1      40.882 -11.079   6.288  1.00  0.00     0.073 C 
ENDROOT
BRANCH   1   8
HETATM    8  C   UNL     1      43.498 -13.057   5.890  1.00  0.00     0.146 C 
BRANCH   8   9
HETATM    9  C   UNL     1      44.146 -11.746   5.490  1.00  0.00     0.222 C 
HETATM   10  N   UNL     1      44.725 -10.928   6.419  1.00  0.00    -0.359 N 
HETATM   11  H   UNL     1      44.998 -10.058   5.968  1.00  0.00     0.162 HD
HETATM   12  O   UNL     1      44.210 -11.385   4.315  1.00  0.00    -0.273 OA
BRANCH  10  13
HETATM   13  C   UNL     1      44.577 -10.905   7.868  1.00  0.00     0.155 C 
BRANCH  13  14
HETATM   14  C   UNL     1      43.704  -9.769   8.404  1.00  0.00     0.206 C 
HETATM   15  N   UNL     1      42.943 -10.049   9.693  1.00  0.00    -0.066 N 
HETATM   16  H   UNL     1      42.166 -10.696   9.477  1.00  0.00     0.280 HD
HETATM   17  C   UNL     1      42.352  -8.681   9.988  1.00  0.00     0.235 C 
HETATM   18  C   UNL     1      43.460  -7.700   9.613  1.00  0.00     0.030 C 
HETATM   19  C   UNL     1      44.416  -8.458   8.695  1.00  0.00     0.036 C 
BRANCH  15  20
HETATM   20  C   UNL     1      43.704 -10.587  10.888  1.00  0.00     0.231 C 
HETATM   21  C   UNL     1      42.968 -10.341  12.190  1.00  0.00     0.034 C 
ENDBRANCH  15  20
ENDBRANCH  13  14
ENDBRANCH  10  13
ENDBRANCH   8   9
ENDBRANCH   1   8
BRANCH   2  22
HETATM   22  C   UNL     1      42.170 -15.557   4.140  1.00  0.00    -0.007 A 
HETATM   23  C   UNL     1      42.778 -16.462   5.019  1.00  0.00     0.015 A 
HETATM   24  C   UNL     1      43.362 -17.639   4.539  1.00  0.00     0.024 A 
HETATM   25  C   UNL     1      43.332 -17.925   3.178  1.00  0.00     0.034 A 
HETATM   26 CL   UNL     1      44.061 -19.364   2.587  1.00  0.00    -0.084 Cl
HETATM   27  C   UNL     1      42.714 -17.048   2.291  1.00  0.00     0.024 A 
HETATM   28  C   UNL     1      42.135 -15.869   2.770  1.00  0.00     0.015 A 
ENDBRANCH   2  22
TORSDOF 6
ENDMDL
MODEL 9
REMARK VINA RESULT:      -6.9      1.939      2.815
REMARK  6 active torsions:
REMARK  status: ('A' for Active; 'I' for Inactive)
REMARK    1  A    between atoms: C_2  and  N_3 
REMARK    2  A    between atoms: C_5  and  C_6 
REMARK    3  A    between atoms: C_6  and  N_7 
REMARK       I    between atoms: N_7  and  C_8 
REMARK    4  A    between atoms: C_8  and  C_9 
REMARK    5  A    between atoms: C_9  and  C_10 
REMARK    6  A    between atoms: C_11  and  C_12 
ROOT
HETATM    1  C   UNL     1      42.522 -17.196   5.561  1.00  0.00     0.005 C 
HETATM    2  C   UNL     1      42.790 -17.102   4.194  1.00  0.00     0.069 C 
HETATM    3  N   UNL     1      43.790 -18.014   3.964  1.00  0.00    -0.277 N 
HETATM    4  H   UNL     1      44.312 -18.168   3.107  1.00  0.00     0.189 HD
HETATM    5  N   UNL     1      44.045 -18.805   5.009  1.00  0.00    -0.179 NA
HETATM    6  C   UNL     1      43.406 -18.220   6.025  1.00  0.00     0.059 C 
HETATM    7  C   UNL     1      43.667 -18.698   7.409  1.00  0.00     0.073 C 
ENDROOT
BRANCH   1   8
HETATM    8  C   UNL     1      41.557 -16.377   6.372  1.00  0.00     0.146 C 
BRANCH   8   9
HETATM    9  C   UNL     1      42.185 -15.153   7.007  1.00  0.00     0.222 C 
HETATM   10  N   UNL     1      41.747 -13.894   6.708  1.00  0.00    -0.359 N 
HETATM   11  H   UNL     1      42.365 -13.215   7.146  1.00  0.00     0.162 HD
HETATM   12  O   UNL     1      43.086 -15.244   7.841  1.00  0.00    -0.273 OA
BRANCH  10  13
HETATM   13  C   UNL     1      40.935 -13.426   5.593  1.00  0.00     0.155 C 
BRANCH  13  14
HETATM   14  C   UNL     1      41.731 -12.856   4.417  1.00  0.00     0.206 C 
HETATM   15  N   UNL     1      41.281 -11.501   3.887  1.00  0.00    -0.066 N 
HETATM   16  H   UNL     1      40.395 -11.632   3.370  1.00  0.00     0.280 HD
HETATM   17  C   UNL     1      42.378 -11.202   2.879  1.00  0.00     0.235 C 
HETATM   18  C   UNL     1      43.656 -11.697   3.550  1.00  0.00     0.030 C 
HETATM   19  C   UNL     1      43.222 -12.666   4.647  1.00  0.00     0.036 C 
BRANCH  15  20
HETATM   20  C   UNL     1      41.108 -10.356   4.864  1.00  0.00     0.231 C 
HETATM   21  C   UNL     1      39.683  -9.839   4.888  1.00  0.00     0.034 C 
ENDBRANCH  15  20
ENDBRANCH  13  14
ENDBRANCH  10  13
ENDBRANCH   8   9
ENDBRANCH   1   8
BRANCH   2  22
HETATM   22  C   UNL     1      42.268 -16.250   3.123  1.00  0.00    -0.007 A 
HETATM   23  C   UNL     1      43.128 -15.531   2.283  1.00  0.00     0.015 A 
HETATM   24  C   UNL     1      42.616 -14.691   1.289  1.00  0.00     0.024 A 
HETATM   25  C   UNL     1      41.240 -14.572   1.121  1.00  0.00     0.034 A 
HETATM   26 CL   UNL     1      40.610 -13.529  -0.091  1.00  0.00    -0.084 Cl
HETATM   27  C   UNL     1      40.369 -15.294   1.932  1.00  0.00     0.024 A 
HETATM   28  C   UNL     1      40.881 -16.130   2.929  1.00  0.00     0.015 A 
ENDBRANCH   2  22
TORSDOF 6
ENDMDL
MODEL 10
REMARK VINA RESULT:      -6.9      4.200      6.924
REMARK  6 active torsions:
REMARK  status: ('A' for Active; 'I' for Inactive)
REMARK    1  A    between atoms: C_2  and  N_3 
REMARK    2  A    between atoms: C_5  and  C_6 
REMARK    3  A    between atoms: C_6  and  N_7 
REMARK       I    between atoms: N_7  and  C_8 
REMARK    4  A    between atoms: C_8  and  C_9 
REMARK    5  A    between atoms: C_9  and  C_10 
REMARK    6  A    between atoms: C_11  and  C_12 
ROOT
HETATM    1  C   UNL     1      42.357 -14.633   2.614  1.00  0.00     0.005 C 
HETATM    2  C   UNL     1      42.935 -15.504   3.540  1.00  0.00     0.069 C 
HETATM    3  N   UNL     1      43.250 -14.717   4.620  1.00  0.00    -0.277 N 
HETATM    4  H   UNL     1      43.768 -14.976   5.454  1.00  0.00     0.189 HD
HETATM    5  N   UNL     1      42.758 -13.478   4.543  1.00  0.00    -0.179 NA
HETATM    6  C   UNL     1      42.359 -13.364   3.274  1.00  0.00     0.059 C 
HETATM    7  C   UNL     1      41.971 -12.023   2.760  1.00  0.00     0.073 C 
ENDROOT
BRANCH   1   8
HETATM    8  C   UNL     1      41.882 -14.945   1.223  1.00  0.00     0.146 C 
BRANCH   8   9
HETATM    9  C   UNL     1      40.376 -15.076   1.111  1.00  0.00     0.222 C 
HETATM   10  N   UNL     1      39.710 -14.668  -0.010  1.00  0.00    -0.359 N 
HETATM   11  H   UNL     1      38.709 -14.736   0.158  1.00  0.00     0.162 HD
HETATM   12  O   UNL     1      39.701 -15.586   2.004  1.00  0.00    -0.273 OA
BRANCH  10  13
HETATM   13  C   UNL     1      40.142 -13.789  -1.088  1.00  0.00     0.155 C 
BRANCH  13  14
HETATM   14  C   UNL     1      40.591 -12.397  -0.638  1.00  0.00     0.206 C 
HETATM   15  N   UNL     1      41.183 -11.496  -1.712  1.00  0.00    -0.066 N 
HETATM   16  H   UNL     1      42.126 -11.848  -1.948  1.00  0.00     0.280 HD
HETATM   17  C   UNL     1      41.341 -10.192  -0.947  1.00  0.00     0.235 C 
HETATM   18  C   UNL     1      40.090 -10.109  -0.077  1.00  0.00     0.030 C 
HETATM   19  C   UNL     1      39.523 -11.525   0.004  1.00  0.00     0.036 C 
BRANCH  15  20
HETATM   20  C   UNL     1      40.409 -11.287  -2.998  1.00  0.00     0.231 C 
HETATM   21  C   UNL     1      40.784  -9.988  -3.684  1.00  0.00     0.034 C 
ENDBRANCH  15  20
ENDBRANCH  13  14
ENDBRANCH  10  13
ENDBRANCH   8   9
ENDBRANCH   1   8
BRANCH   2  22
HETATM   22  C   UNL     1      43.258 -16.932   3.511  1.00  0.00    -0.007 A 
HETATM   23  C   UNL     1      42.949 -17.723   2.398  1.00  0.00     0.015 A 
HETATM   24  C   UNL     1      43.228 -19.094   2.397  1.00  0.00     0.024 A 
HETATM   25  C   UNL     1      43.830 -19.680   3.507  1.00  0.00     0.034 A 
HETATM   26 CL   UNL     1      44.161 -21.367   3.512  1.00  0.00    -0.084 Cl
HETATM   27  C   UNL     1      44.164 -18.907   4.614  1.00  0.00     0.024 A 
HETATM   28  C   UNL     1      43.881 -17.538   4.616  1.00  0.00     0.015 A 
ENDBRANCH   2  22
TORSDOF 6
ENDMDL
