MODEL 1
REMARK VINA RESULT:      -8.8      0.000      0.000
REMARK  6 active torsions:
REMARK  status: ('A' for Active; 'I' for Inactive)
REMARK    1  A    between atoms: C_2  and  O_3 
REMARK    2  A    between atoms: C_2  and  C_4 
REMARK    3  A    between atoms: C_7  and  N_8 
REMARK       I    between atoms: N_8  and  C_9 
REMARK    4  A    between atoms: C_9  and  C_10 
REMARK    5  A    between atoms: C_13  and  C_14 
REMARK    6  A    between atoms: C_19  and  C_20 
ROOT
HETATM    1  C   UNL     1      40.431 -13.794   2.039  1.00  0.00     0.096 A 
HETATM    2  C   UNL     1      40.633 -13.305   0.761  1.00  0.00     0.138 A 
HETATM    3  N   UNL     1      40.274 -11.978   0.801  1.00  0.00    -0.240 N 
HETATM    4  C   UNL     1      40.275 -11.092  -0.351  1.00  0.00     0.221 C 
HETATM    5  C   UNL     1      41.087 -11.711  -1.504  1.00  0.00     0.068 C 
HETATM    6  C   UNL     1      40.782 -13.203  -1.674  1.00  0.00     0.143 C 
HETATM    7  N   UNL     1      41.051 -13.891  -0.398  1.00  0.00    -0.363 N 
HETATM    8  N   UNL     1      39.708 -11.618   1.963  1.00  0.00    -0.181 NA
HETATM    9  C   UNL     1      39.831 -12.711   2.723  1.00  0.00     0.160 A 
HETATM   10  H   UNL     1      40.916 -14.901  -0.493  1.00  0.00     0.162 HD
ENDROOT
BRANCH   1  11
HETATM   11  C   UNL     1      40.695 -15.125   2.563  1.00  0.00     0.261 C 
HETATM   12  N   UNL     1      42.030 -15.331   2.854  1.00  0.00    -0.323 N 
HETATM   13  H   UNL     1      42.615 -14.503   2.813  1.00  0.00     0.169 HD
HETATM   14  O   UNL     1      39.785 -15.927   2.724  1.00  0.00    -0.267 OA
BRANCH  12  15
HETATM   15  C   UNL     1      42.665 -16.530   3.222  1.00  0.00     0.035 A 
HETATM   16  C   UNL     1      43.118 -16.809   4.511  1.00  0.00     0.030 A 
HETATM   17  C   UNL     1      43.693 -18.050   4.807  1.00  0.00     0.012 A 
HETATM   18  C   UNL     1      43.829 -19.035   3.818  1.00  0.00    -0.030 A 
HETATM   19  C   UNL     1      43.379 -18.747   2.525  1.00  0.00     0.012 A 
HETATM   20  C   UNL     1      42.805 -17.507   2.230  1.00  0.00     0.030 A 
BRANCH  18  21
HETATM   21  C   UNL     1      44.405 -20.389   4.173  1.00  0.00     0.147 C 
HETATM   22  C   UNL     1      43.973 -20.823   5.569  1.00  0.00     0.044 C 
BRANCH  21  23
HETATM   23  O   UNL     1      43.973 -21.366   3.228  1.00  0.00    -0.391 OA
HETATM   24  H   UNL     1      44.727 -21.956   3.065  1.00  0.00     0.210 HD
ENDBRANCH  21  23
ENDBRANCH  18  21
ENDBRANCH  12  15
ENDBRANCH   1  11
BRANCH   4  25
HETATM   25  C   UNL     1      40.844  -9.732  -0.008  1.00  0.00     0.409 C 
HETATM   26  F   UNL     1      41.918  -9.816   0.810  1.00  0.00    -0.169 F 
HETATM   27  F   UNL     1      41.273  -9.118  -1.145  1.00  0.00    -0.169 F 
HETATM   28  F   UNL     1      39.948  -8.895   0.553  1.00  0.00    -0.169 F 
ENDBRANCH   4  25
BRANCH   6  29
HETATM   29  C   UNL     1      39.411 -13.431  -2.236  1.00  0.00     0.075 A 
HETATM   30  O   UNL     1      39.319 -14.351  -3.241  1.00  0.00    -0.325 OA
HETATM   31  C   UNL     1      38.014 -14.413  -3.608  1.00  0.00     0.142 A 
HETATM   32  C   UNL     1      37.261 -13.545  -2.854  1.00  0.00     0.027 A 
HETATM   33  C   UNL     1      38.161 -12.910  -1.966  1.00  0.00     0.037 A 
ENDBRANCH   6  29
TORSDOF 6
ENDMDL
MODEL 2
REMARK VINA RESULT:      -8.7      1.331      1.613
REMARK  6 active torsions:
REMARK  status: ('A' for Active; 'I' for Inactive)
REMARK    1  A    between atoms: C_2  and  O_3 
REMARK    2  A    between atoms: C_2  and  C_4 
REMARK    3  A    between atoms: C_7  and  N_8 
REMARK       I    between atoms: N_8  and  C_9 
REMARK    4  A    between atoms: C_9  and  C_10 
REMARK    5  A    between atoms: C_13  and  C_14 
REMARK    6  A    between atoms: C_19  and  C_20 
ROOT
HETATM    1  C   UNL     1      40.947 -13.638   2.086  1.00  0.00     0.096 A 
HETATM    2  C   UNL     1      40.705 -13.036   0.864  1.00  0.00     0.138 A 
HETATM    3  N   UNL     1      39.575 -12.271   1.036  1.00  0.00    -0.240 N 
HETATM    4  C   UNL     1      38.930 -11.510  -0.021  1.00  0.00     0.221 C 
HETATM    5  C   UNL     1      39.877 -11.357  -1.228  1.00  0.00     0.068 C 
HETATM    6  C   UNL     1      40.601 -12.669  -1.548  1.00  0.00     0.143 C 
HETATM    7  N   UNL     1      41.331 -13.114  -0.346  1.00  0.00    -0.363 N 
HETATM    8  N   UNL     1      38.983 -12.460   2.225  1.00  0.00    -0.181 NA
HETATM    9  C   UNL     1      39.832 -13.265   2.872  1.00  0.00     0.160 A 
HETATM   10  H   UNL     1      41.876 -13.957  -0.542  1.00  0.00     0.162 HD
ENDROOT
BRANCH   1  11
HETATM   11  C   UNL     1      42.043 -14.512   2.475  1.00  0.00     0.261 C 
HETATM   12  N   UNL     1      41.680 -15.845   2.506  1.00  0.00    -0.323 N 
HETATM   13  H   UNL     1      40.767 -16.054   2.115  1.00  0.00     0.169 HD
HETATM   14  O   UNL     1      43.152 -14.056   2.719  1.00  0.00    -0.267 OA
BRANCH  12  15
HETATM   15  C   UNL     1      42.423 -16.938   2.983  1.00  0.00     0.035 A 
HETATM   16  C   UNL     1      42.903 -17.044   4.288  1.00  0.00     0.030 A 
HETATM   17  C   UNL     1      43.591 -18.192   4.699  1.00  0.00     0.012 A 
HETATM   18  C   UNL     1      43.814 -19.255   3.812  1.00  0.00    -0.030 A 
HETATM   19  C   UNL     1      43.335 -19.140   2.502  1.00  0.00     0.012 A 
HETATM   20  C   UNL     1      42.649 -17.992   2.092  1.00  0.00     0.030 A 
BRANCH  18  21
HETATM   21  C   UNL     1      44.512 -20.508   4.292  1.00  0.00     0.147 C 
HETATM   22  C   UNL     1      44.033 -20.907   5.683  1.00  0.00     0.044 C 
BRANCH  21  23
HETATM   23  O   UNL     1      44.263 -21.583   3.389  1.00  0.00    -0.391 OA
HETATM   24  H   UNL     1      43.379 -21.930   3.596  1.00  0.00     0.210 HD
ENDBRANCH  21  23
ENDBRANCH  18  21
ENDBRANCH  12  15
ENDBRANCH   1  11
BRANCH   4  25
HETATM   25  C   UNL     1      38.502 -10.140   0.459  1.00  0.00     0.409 C 
HETATM   26  F   UNL     1      37.305 -10.168   1.088  1.00  0.00    -0.169 F 
HETATM   27  F   UNL     1      39.402  -9.672   1.366  1.00  0.00    -0.169 F 
HETATM   28  F   UNL     1      38.443  -9.216  -0.520  1.00  0.00    -0.169 F 
ENDBRANCH   4  25
BRANCH   6  29
HETATM   29  C   UNL     1      39.674 -13.689  -2.136  1.00  0.00     0.075 A 
HETATM   30  O   UNL     1      39.169 -13.400  -3.371  1.00  0.00    -0.325 OA
HETATM   31  C   UNL     1      38.364 -14.433  -3.726  1.00  0.00     0.142 A 
HETATM   32  C   UNL     1      38.341 -15.386  -2.736  1.00  0.00     0.027 A 
HETATM   33  C   UNL     1      39.188 -14.908  -1.707  1.00  0.00     0.037 A 
ENDBRANCH   6  29
TORSDOF 6
ENDMDL
MODEL 3
REMARK VINA RESULT:      -8.5      4.590      6.840
REMARK  6 active torsions:
REMARK  status: ('A' for Active; 'I' for Inactive)
REMARK    1  A    between atoms: C_2  and  O_3 
REMARK    2  A    between atoms: C_2  and  C_4 
REMARK    3  A    between atoms: C_7  and  N_8 
REMARK       I    between atoms: N_8  and  C_9 
REMARK    4  A    between atoms: C_9  and  C_10 
REMARK    5  A    between atoms: C_13  and  C_14 
REMARK    6  A    between atoms: C_19  and  C_20 
ROOT
HETATM    1  C   UNL     1      41.995 -12.470   4.426  1.00  0.00     0.096 A 
HETATM    2  C   UNL     1      42.007 -11.534   5.444  1.00  0.00     0.138 A 
HETATM    3  N   UNL     1      41.975 -10.304   4.829  1.00  0.00    -0.240 N 
HETATM    4  C   UNL     1      42.034  -9.033   5.531  1.00  0.00     0.221 C 
HETATM    5  C   UNL     1      41.744  -9.234   7.031  1.00  0.00     0.068 C 
HETATM    6  C   UNL     1      42.471 -10.462   7.589  1.00  0.00     0.143 C 
HETATM    7  N   UNL     1      42.076 -11.645   6.802  1.00  0.00    -0.363 N 
HETATM    8  N   UNL     1      42.104 -10.376   3.495  1.00  0.00    -0.181 NA
HETATM    9  C   UNL     1      42.085 -11.689   3.250  1.00  0.00     0.160 A 
HETATM   10  H   UNL     1      42.496 -12.495   7.186  1.00  0.00     0.162 HD
ENDROOT
BRANCH   1  11
HETATM   11  C   UNL     1      41.971 -13.921   4.516  1.00  0.00     0.261 C 
HETATM   12  N   UNL     1      42.973 -14.521   3.778  1.00  0.00    -0.323 N 
HETATM   13  H   UNL     1      43.673 -13.888   3.403  1.00  0.00     0.169 HD
HETATM   14  O   UNL     1      41.136 -14.492   5.205  1.00  0.00    -0.267 OA
BRANCH  12  15
HETATM   15  C   UNL     1      43.156 -15.888   3.508  1.00  0.00     0.035 A 
HETATM   16  C   UNL     1      42.859 -16.488   2.284  1.00  0.00     0.030 A 
HETATM   17  C   UNL     1      43.121 -17.848   2.079  1.00  0.00     0.012 A 
HETATM   18  C   UNL     1      43.680 -18.635   3.095  1.00  0.00    -0.030 A 
HETATM   19  C   UNL     1      43.970 -18.029   4.324  1.00  0.00     0.012 A 
HETATM   20  C   UNL     1      43.708 -16.671   4.527  1.00  0.00     0.030 A 
BRANCH  18  21
HETATM   21  C   UNL     1      44.004 -20.089   2.835  1.00  0.00     0.147 C 
HETATM   22  C   UNL     1      43.852 -20.924   4.101  1.00  0.00     0.044 C 
BRANCH  21  23
HETATM   23  O   UNL     1      43.138 -20.610   1.828  1.00  0.00    -0.391 OA
HETATM   24  H   UNL     1      43.235 -20.041   1.047  1.00  0.00     0.210 HD
ENDBRANCH  21  23
ENDBRANCH  18  21
ENDBRANCH  12  15
ENDBRANCH   1  11
BRANCH   4  25
HETATM   25  C   UNL     1      41.053  -8.032   4.958  1.00  0.00     0.409 C 
HETATM   26  F   UNL     1      39.898  -8.615   4.563  1.00  0.00    -0.169 F 
HETATM   27  F   UNL     1      40.718  -7.124   5.915  1.00  0.00    -0.169 F 
HETATM   28  F   UNL     1      41.545  -7.322   3.924  1.00  0.00    -0.169 F 
ENDBRANCH   4  25
BRANCH   6  29
HETATM   29  C   UNL     1      43.950 -10.237   7.688  1.00  0.00     0.075 A 
HETATM   30  O   UNL     1      44.341  -9.065   8.269  1.00  0.00    -0.325 OA
HETATM   31  C   UNL     1      45.698  -9.052   8.267  1.00  0.00     0.142 A 
HETATM   32  C   UNL     1      46.190 -10.199   7.691  1.00  0.00     0.027 A 
HETATM   33  C   UNL     1      45.061 -10.967   7.317  1.00  0.00     0.037 A 
ENDBRANCH   6  29
TORSDOF 6
ENDMDL
MODEL 4
REMARK VINA RESULT:      -8.1     15.415     17.106
REMARK  6 active torsions:
REMARK  status: ('A' for Active; 'I' for Inactive)
REMARK    1  A    between atoms: C_2  and  O_3 
REMARK    2  A    between atoms: C_2  and  C_4 
REMARK    3  A    between atoms: C_7  and  N_8 
REMARK       I    between atoms: N_8  and  C_9 
REMARK    4  A    between atoms: C_9  and  C_10 
REMARK    5  A    between atoms: C_13  and  C_14 
REMARK    6  A    between atoms: C_19  and  C_20 
ROOT
HETATM    1  C   UNL     1      43.881 -30.320   0.573  1.00  0.00     0.096 A 
HETATM    2  C   UNL     1      44.731 -29.506  -0.152  1.00  0.00     0.138 A 
HETATM    3  N   UNL     1      44.717 -29.994  -1.439  1.00  0.00    -0.240 N 
HETATM    4  C   UNL     1      45.524 -29.467  -2.525  1.00  0.00     0.221 C 
HETATM    5  C   UNL     1      46.082 -28.078  -2.156  1.00  0.00     0.068 C 
HETATM    6  C   UNL     1      46.603 -28.043  -0.715  1.00  0.00     0.143 C 
HETATM    7  N   UNL     1      45.513 -28.443   0.194  1.00  0.00    -0.363 N 
HETATM    8  N   UNL     1      44.049 -31.152  -1.558  1.00  0.00    -0.181 NA
HETATM    9  C   UNL     1      43.517 -31.332  -0.346  1.00  0.00     0.160 A 
HETATM   10  H   UNL     1      45.809 -28.372   1.170  1.00  0.00     0.162 HD
ENDROOT
BRANCH   1  11
HETATM   11  C   UNL     1      43.492 -30.224   1.972  1.00  0.00     0.261 C 
HETATM   12  N   UNL     1      42.803 -31.336   2.415  1.00  0.00    -0.323 N 
HETATM   13  H   UNL     1      42.790 -32.122   1.772  1.00  0.00     0.169 HD
HETATM   14  O   UNL     1      43.791 -29.242   2.639  1.00  0.00    -0.267 OA
BRANCH  12  15
HETATM   15  C   UNL     1      42.146 -31.521   3.644  1.00  0.00     0.035 A 
HETATM   16  C   UNL     1      40.811 -31.188   3.872  1.00  0.00     0.030 A 
HETATM   17  C   UNL     1      40.216 -31.454   5.111  1.00  0.00     0.012 A 
HETATM   18  C   UNL     1      40.946 -32.054   6.147  1.00  0.00    -0.030 A 
HETATM   19  C   UNL     1      42.288 -32.379   5.914  1.00  0.00     0.012 A 
HETATM   20  C   UNL     1      42.881 -32.113   4.676  1.00  0.00     0.030 A 
BRANCH  18  21
HETATM   21  C   UNL     1      40.269 -32.380   7.460  1.00  0.00     0.147 C 
HETATM   22  C   UNL     1      41.202 -32.129   8.639  1.00  0.00     0.044 C 
BRANCH  21  23
HETATM   23  O   UNL     1      39.097 -31.583   7.617  1.00  0.00    -0.391 OA
HETATM   24  H   UNL     1      38.361 -32.191   7.795  1.00  0.00     0.210 HD
ENDBRANCH  21  23
ENDBRANCH  18  21
ENDBRANCH  12  15
ENDBRANCH   1  11
BRANCH   4  25
HETATM   25  C   UNL     1      44.732 -29.365  -3.811  1.00  0.00     0.409 C 
HETATM   26  F   UNL     1      43.420 -29.124  -3.588  1.00  0.00    -0.169 F 
HETATM   27  F   UNL     1      45.195 -28.320  -4.551  1.00  0.00    -0.169 F 
HETATM   28  F   UNL     1      44.834 -30.454  -4.598  1.00  0.00    -0.169 F 
ENDBRANCH   4  25
BRANCH   6  29
HETATM   29  C   UNL     1      47.871 -28.826  -0.562  1.00  0.00     0.075 A 
HETATM   30  O   UNL     1      48.147 -29.282   0.695  1.00  0.00    -0.325 OA
HETATM   31  C   UNL     1      49.321 -29.960   0.626  1.00  0.00     0.142 A 
HETATM   32  C   UNL     1      49.809 -29.947  -0.659  1.00  0.00     0.027 A 
HETATM   33  C   UNL     1      48.873 -29.215  -1.429  1.00  0.00     0.037 A 
ENDBRANCH   6  29
TORSDOF 6
ENDMDL
MODEL 5
REMARK VINA RESULT:      -8.0     10.329     12.442
REMARK  6 active torsions:
REMARK  status: ('A' for Active; 'I' for Inactive)
REMARK    1  A    between atoms: C_2  and  O_3 
REMARK    2  A    between atoms: C_2  and  C_4 
REMARK    3  A    between atoms: C_7  and  N_8 
REMARK       I    between atoms: N_8  and  C_9 
REMARK    4  A    between atoms: C_9  and  C_10 
REMARK    5  A    between atoms: C_13  and  C_14 
REMARK    6  A    between atoms: C_19  and  C_20 
ROOT
HETATM    1  C   UNL     1      43.976 -10.147  10.467  1.00  0.00     0.096 A 
HETATM    2  C   UNL     1      43.333 -10.162   9.243  1.00  0.00     0.138 A 
HETATM    3  N   UNL     1      44.321 -10.311   8.297  1.00  0.00    -0.240 N 
HETATM    4  C   UNL     1      44.089 -10.317   6.862  1.00  0.00     0.221 C 
HETATM    5  C   UNL     1      42.593 -10.528   6.560  1.00  0.00     0.068 C 
HETATM    6  C   UNL     1      41.705  -9.689   7.485  1.00  0.00     0.143 C 
HETATM    7  N   UNL     1      42.023 -10.029   8.884  1.00  0.00    -0.363 N 
HETATM    8  N   UNL     1      45.559 -10.232   8.808  1.00  0.00    -0.181 NA
HETATM    9  C   UNL     1      45.349 -10.164  10.126  1.00  0.00     0.160 A 
HETATM   10  H   UNL     1      41.405  -9.531   9.530  1.00  0.00     0.162 HD
ENDROOT
BRANCH   1  11
HETATM   11  C   UNL     1      43.404 -10.060  11.801  1.00  0.00     0.261 C 
HETATM   12  N   UNL     1      42.964  -8.788  12.114  1.00  0.00    -0.323 N 
HETATM   13  H   UNL     1      42.953  -8.131  11.340  1.00  0.00     0.169 HD
HETATM   14  O   UNL     1      43.333 -11.049  12.518  1.00  0.00    -0.267 OA
BRANCH  12  15
HETATM   15  C   UNL     1      42.509  -8.305  13.353  1.00  0.00     0.035 A 
HETATM   16  C   UNL     1      41.403  -8.817  14.031  1.00  0.00     0.030 A 
HETATM   17  C   UNL     1      41.047  -8.314  15.288  1.00  0.00     0.012 A 
HETATM   18  C   UNL     1      41.788  -7.287  15.889  1.00  0.00    -0.030 A 
HETATM   19  C   UNL     1      42.893  -6.772  15.201  1.00  0.00     0.012 A 
HETATM   20  C   UNL     1      43.247  -7.275  13.945  1.00  0.00     0.030 A 
BRANCH  18  21
HETATM   21  C   UNL     1      41.417  -6.795  17.271  1.00  0.00     0.147 C 
HETATM   22  C   UNL     1      40.640  -7.855  18.043  1.00  0.00     0.044 C 
BRANCH  21  23
HETATM   23  O   UNL     1      42.595  -6.458  18.002  1.00  0.00    -0.391 OA
HETATM   24  H   UNL     1      42.312  -6.207  18.897  1.00  0.00     0.210 HD
ENDBRANCH  21  23
ENDBRANCH  18  21
ENDBRANCH  12  15
ENDBRANCH   1  11
BRANCH   4  25
HETATM   25  C   UNL     1      44.899 -11.392   6.170  1.00  0.00     0.409 C 
HETATM   26  F   UNL     1      46.216 -11.086   6.115  1.00  0.00    -0.169 F 
HETATM   27  F   UNL     1      44.804 -12.556   6.870  1.00  0.00    -0.169 F 
HETATM   28  F   UNL     1      44.476 -11.670   4.921  1.00  0.00    -0.169 F 
ENDBRANCH   4  25
BRANCH   6  29
HETATM   29  C   UNL     1      41.781  -8.229   7.158  1.00  0.00     0.075 A 
HETATM   30  O   UNL     1      41.589  -7.896   5.848  1.00  0.00    -0.325 OA
HETATM   31  C   UNL     1      41.694  -6.546   5.759  1.00  0.00     0.142 A 
HETATM   32  C   UNL     1      41.951  -6.001   6.994  1.00  0.00     0.027 A 
HETATM   33  C   UNL     1      42.007  -7.087   7.901  1.00  0.00     0.037 A 
ENDBRANCH   6  29
TORSDOF 6
ENDMDL
MODEL 6
REMARK VINA RESULT:      -7.9      3.187      8.698
REMARK  6 active torsions:
REMARK  status: ('A' for Active; 'I' for Inactive)
REMARK    1  A    between atoms: C_2  and  O_3 
REMARK    2  A    between atoms: C_2  and  C_4 
REMARK    3  A    between atoms: C_7  and  N_8 
REMARK       I    between atoms: N_8  and  C_9 
REMARK    4  A    between atoms: C_9  and  C_10 
REMARK    5  A    between atoms: C_13  and  C_14 
REMARK    6  A    between atoms: C_19  and  C_20 
ROOT
HETATM    1  C   UNL     1      41.476 -13.364   2.418  1.00  0.00     0.096 A 
HETATM    2  C   UNL     1      41.613 -14.262   3.461  1.00  0.00     0.138 A 
HETATM    3  N   UNL     1      42.643 -13.785   4.239  1.00  0.00    -0.240 N 
HETATM    4  C   UNL     1      43.163 -14.461   5.416  1.00  0.00     0.221 C 
HETATM    5  C   UNL     1      42.177 -15.545   5.894  1.00  0.00     0.068 C 
HETATM    6  C   UNL     1      41.615 -16.354   4.720  1.00  0.00     0.143 C 
HETATM    7  N   UNL     1      40.975 -15.428   3.768  1.00  0.00    -0.363 N 
HETATM    8  N   UNL     1      43.281 -12.740   3.690  1.00  0.00    -0.181 NA
HETATM    9  C   UNL     1      42.554 -12.467   2.603  1.00  0.00     0.160 A 
HETATM   10  H   UNL     1      40.534 -15.942   3.001  1.00  0.00     0.162 HD
ENDROOT
BRANCH   1  11
HETATM   11  C   UNL     1      40.508 -13.362   1.333  1.00  0.00     0.261 C 
HETATM   12  N   UNL     1      40.375 -12.123   0.736  1.00  0.00    -0.323 N 
HETATM   13  H   UNL     1      41.061 -11.430   1.018  1.00  0.00     0.169 HD
HETATM   14  O   UNL     1      39.918 -14.387   1.017  1.00  0.00    -0.267 OA
BRANCH  12  15
HETATM   15  C   UNL     1      39.432 -11.716  -0.224  1.00  0.00     0.035 A 
HETATM   16  C   UNL     1      39.642 -11.784  -1.601  1.00  0.00     0.030 A 
HETATM   17  C   UNL     1      38.630 -11.409  -2.492  1.00  0.00     0.012 A 
HETATM   18  C   UNL     1      37.389 -10.955  -2.023  1.00  0.00    -0.030 A 
HETATM   19  C   UNL     1      37.186 -10.883  -0.640  1.00  0.00     0.012 A 
HETATM   20  C   UNL     1      38.198 -11.258   0.249  1.00  0.00     0.030 A 
BRANCH  18  21
HETATM   21  C   UNL     1      36.291 -10.605  -3.003  1.00  0.00     0.147 C 
HETATM   22  C   UNL     1      36.749  -9.533  -3.985  1.00  0.00     0.044 C 
BRANCH  21  23
HETATM   23  O   UNL     1      35.899 -11.767  -3.733  1.00  0.00    -0.391 OA
HETATM   24  H   UNL     1      34.930 -11.749  -3.796  1.00  0.00     0.210 HD
ENDBRANCH  21  23
ENDBRANCH  18  21
ENDBRANCH  12  15
ENDBRANCH   1  11
BRANCH   4  25
HETATM   25  C   UNL     1      43.428 -13.489   6.546  1.00  0.00     0.409 C 
HETATM   26  F   UNL     1      42.532 -12.476   6.572  1.00  0.00    -0.169 F 
HETATM   27  F   UNL     1      43.315 -14.135   7.739  1.00  0.00    -0.169 F 
HETATM   28  F   UNL     1      44.667 -12.957   6.524  1.00  0.00    -0.169 F 
ENDBRANCH   4  25
BRANCH   6  29
HETATM   29  C   UNL     1      42.648 -17.259   4.121  1.00  0.00     0.075 A 
HETATM   30  O   UNL     1      43.462 -17.910   5.004  1.00  0.00    -0.325 OA
HETATM   31  C   UNL     1      44.316 -18.671   4.275  1.00  0.00     0.142 A 
HETATM   32  C   UNL     1      44.067 -18.521   2.932  1.00  0.00     0.027 A 
HETATM   33  C   UNL     1      42.988 -17.610   2.830  1.00  0.00     0.037 A 
ENDBRANCH   6  29
TORSDOF 6
ENDMDL
MODEL 7
REMARK VINA RESULT:      -7.8     15.491     17.354
REMARK  6 active torsions:
REMARK  status: ('A' for Active; 'I' for Inactive)
REMARK    1  A    between atoms: C_2  and  O_3 
REMARK    2  A    between atoms: C_2  and  C_4 
REMARK    3  A    between atoms: C_7  and  N_8 
REMARK       I    between atoms: N_8  and  C_9 
REMARK    4  A    between atoms: C_9  and  C_10 
REMARK    5  A    between atoms: C_13  and  C_14 
REMARK    6  A    between atoms: C_19  and  C_20 
ROOT
HETATM    1  C   UNL     1      48.042 -29.314  -0.482  1.00  0.00     0.096 A 
HETATM    2  C   UNL     1      46.803 -29.873  -0.740  1.00  0.00     0.138 A 
HETATM    3  N   UNL     1      46.151 -28.985  -1.564  1.00  0.00    -0.240 N 
HETATM    4  C   UNL     1      44.786 -29.152  -2.034  1.00  0.00     0.221 C 
HETATM    5  C   UNL     1      44.317 -30.604  -1.820  1.00  0.00     0.068 C 
HETATM    6  C   UNL     1      44.734 -31.136  -0.445  1.00  0.00     0.143 C 
HETATM    7  N   UNL     1      46.198 -31.020  -0.315  1.00  0.00    -0.363 N 
HETATM    8  N   UNL     1      46.812 -27.829  -1.725  1.00  0.00    -0.181 NA
HETATM    9  C   UNL     1      47.971 -28.041  -1.094  1.00  0.00     0.160 A 
HETATM   10  H   UNL     1      46.519 -31.423   0.569  1.00  0.00     0.162 HD
ENDROOT
BRANCH   1  11
HETATM   11  C   UNL     1      49.147 -29.855   0.294  1.00  0.00     0.261 C 
HETATM   12  N   UNL     1      48.771 -30.234   1.569  1.00  0.00    -0.323 N 
HETATM   13  H   UNL     1      47.772 -30.232   1.745  1.00  0.00     0.169 HD
HETATM   14  O   UNL     1      50.265 -29.955  -0.193  1.00  0.00    -0.267 OA
BRANCH  12  15
HETATM   15  C   UNL     1      49.594 -30.643   2.632  1.00  0.00     0.035 A 
HETATM   16  C   UNL     1      49.930 -29.831   3.715  1.00  0.00     0.030 A 
HETATM   17  C   UNL     1      50.712 -30.333   4.762  1.00  0.00     0.012 A 
HETATM   18  C   UNL     1      51.177 -31.655   4.744  1.00  0.00    -0.030 A 
HETATM   19  C   UNL     1      50.842 -32.464   3.651  1.00  0.00     0.012 A 
HETATM   20  C   UNL     1      50.061 -31.961   2.606  1.00  0.00     0.030 A 
BRANCH  18  21
HETATM   21  C   UNL     1      51.976 -32.193   5.911  1.00  0.00     0.147 C 
HETATM   22  C   UNL     1      52.314 -33.666   5.715  1.00  0.00     0.044 C 
BRANCH  21  23
HETATM   23  O   UNL     1      53.188 -31.454   6.055  1.00  0.00    -0.391 OA
HETATM   24  H   UNL     1      53.908 -32.101   6.137  1.00  0.00     0.210 HD
ENDBRANCH  21  23
ENDBRANCH  18  21
ENDBRANCH  12  15
ENDBRANCH   1  11
BRANCH   4  25
HETATM   25  C   UNL     1      44.651 -28.790  -3.497  1.00  0.00     0.409 C 
HETATM   26  F   UNL     1      45.584 -29.399  -4.265  1.00  0.00    -0.169 F 
HETATM   27  F   UNL     1      43.440 -29.205  -3.960  1.00  0.00    -0.169 F 
HETATM   28  F   UNL     1      44.708 -27.464  -3.736  1.00  0.00    -0.169 F 
ENDBRANCH   4  25
BRANCH   6  29
HETATM   29  C   UNL     1      43.950 -30.498   0.661  1.00  0.00     0.075 A 
HETATM   30  O   UNL     1      44.659 -30.141   1.772  1.00  0.00    -0.325 OA
HETATM   31  C   UNL     1      43.781 -29.586   2.646  1.00  0.00     0.142 A 
HETATM   32  C   UNL     1      42.514 -29.579   2.115  1.00  0.00     0.027 A 
HETATM   33  C   UNL     1      42.620 -30.167   0.831  1.00  0.00     0.037 A 
ENDBRANCH   6  29
TORSDOF 6
ENDMDL
MODEL 8
REMARK VINA RESULT:      -7.8      3.870      9.045
REMARK  6 active torsions:
REMARK  status: ('A' for Active; 'I' for Inactive)
REMARK    1  A    between atoms: C_2  and  O_3 
REMARK    2  A    between atoms: C_2  and  C_4 
REMARK    3  A    between atoms: C_7  and  N_8 
REMARK       I    between atoms: N_8  and  C_9 
REMARK    4  A    between atoms: C_9  and  C_10 
REMARK    5  A    between atoms: C_13  and  C_14 
REMARK    6  A    between atoms: C_19  and  C_20 
ROOT
HETATM    1  C   UNL     1      40.454 -13.292   0.047  1.00  0.00     0.096 A 
HETATM    2  C   UNL     1      41.234 -13.422   1.181  1.00  0.00     0.138 A 
HETATM    3  N   UNL     1      41.255 -14.766   1.475  1.00  0.00    -0.240 N 
HETATM    4  C   UNL     1      41.916 -15.342   2.633  1.00  0.00     0.221 C 
HETATM    5  C   UNL     1      42.897 -14.328   3.253  1.00  0.00     0.068 C 
HETATM    6  C   UNL     1      42.287 -12.924   3.327  1.00  0.00     0.143 C 
HETATM    7  N   UNL     1      41.874 -12.513   1.973  1.00  0.00    -0.363 N 
HETATM    8  N   UNL     1      40.421 -15.488   0.711  1.00  0.00    -0.181 NA
HETATM    9  C   UNL     1      39.959 -14.599  -0.173  1.00  0.00     0.160 A 
HETATM   10  H   UNL     1      41.517 -11.555   1.976  1.00  0.00     0.162 HD
ENDROOT
BRANCH   1  11
HETATM   11  C   UNL     1      40.139 -12.094  -0.717  1.00  0.00     0.261 C 
HETATM   12  N   UNL     1      41.226 -11.603  -1.415  1.00  0.00    -0.323 N 
HETATM   13  H   UNL     1      42.040 -12.209  -1.431  1.00  0.00     0.169 HD
HETATM   14  O   UNL     1      39.007 -11.629  -0.714  1.00  0.00    -0.267 OA
BRANCH  12  15
HETATM   15  C   UNL     1      41.331 -10.392  -2.121  1.00  0.00     0.035 A 
HETATM   16  C   UNL     1      41.965  -9.253  -1.625  1.00  0.00     0.030 A 
HETATM   17  C   UNL     1      42.073  -8.102  -2.414  1.00  0.00     0.012 A 
HETATM   18  C   UNL     1      41.547  -8.067  -3.713  1.00  0.00    -0.030 A 
HETATM   19  C   UNL     1      40.906  -9.211  -4.203  1.00  0.00     0.012 A 
HETATM   20  C   UNL     1      40.798 -10.360  -3.414  1.00  0.00     0.030 A 
BRANCH  18  21
HETATM   21  C   UNL     1      41.723  -6.831  -4.568  1.00  0.00     0.147 C 
HETATM   22  C   UNL     1      42.362  -5.698  -3.774  1.00  0.00     0.044 C 
BRANCH  21  23
HETATM   23  O   UNL     1      42.543  -7.129  -5.696  1.00  0.00    -0.391 OA
HETATM   24  H   UNL     1      43.066  -6.333  -5.885  1.00  0.00     0.210 HD
ENDBRANCH  21  23
ENDBRANCH  18  21
ENDBRANCH  12  15
ENDBRANCH   1  11
BRANCH   4  25
HETATM   25  C   UNL     1      42.662 -16.610   2.277  1.00  0.00     0.409 C 
HETATM   26  F   UNL     1      43.323 -16.503   1.101  1.00  0.00    -0.169 F 
HETATM   27  F   UNL     1      43.604 -16.867   3.226  1.00  0.00    -0.169 F 
HETATM   28  F   UNL     1      41.877 -17.704   2.223  1.00  0.00    -0.169 F 
ENDBRANCH   4  25
BRANCH   6  29
HETATM   29  C   UNL     1      41.211 -12.838   4.367  1.00  0.00     0.075 A 
HETATM   30  O   UNL     1      41.427 -13.544   5.516  1.00  0.00    -0.325 OA
HETATM   31  C   UNL     1      40.354 -13.338   6.320  1.00  0.00     0.142 A 
HETATM   32  C   UNL     1      39.445 -12.509   5.707  1.00  0.00     0.027 A 
HETATM   33  C   UNL     1      39.997 -12.184   4.444  1.00  0.00     0.037 A 
ENDBRANCH   6  29
TORSDOF 6
ENDMDL
MODEL 9
REMARK VINA RESULT:      -7.7     25.879     28.238
REMARK  6 active torsions:
REMARK  status: ('A' for Active; 'I' for Inactive)
REMARK    1  A    between atoms: C_2  and  O_3 
REMARK    2  A    between atoms: C_2  and  C_4 
REMARK    3  A    between atoms: C_7  and  N_8 
REMARK       I    between atoms: N_8  and  C_9 
REMARK    4  A    between atoms: C_9  and  C_10 
REMARK    5  A    between atoms: C_13  and  C_14 
REMARK    6  A    between atoms: C_19  and  C_20 
ROOT
HETATM    1  C   UNL     1      56.011 -30.163  20.352  1.00  0.00     0.096 A 
HETATM    2  C   UNL     1      56.855 -29.153  19.926  1.00  0.00     0.138 A 
HETATM    3  N   UNL     1      57.739 -28.937  20.958  1.00  0.00    -0.240 N 
HETATM    4  C   UNL     1      58.769 -27.912  20.955  1.00  0.00     0.221 C 
HETATM    5  C   UNL     1      58.992 -27.377  19.527  1.00  0.00     0.068 C 
HETATM    6  C   UNL     1      57.665 -27.146  18.796  1.00  0.00     0.143 C 
HETATM    7  N   UNL     1      56.903 -28.408  18.784  1.00  0.00    -0.363 N 
HETATM    8  N   UNL     1      57.429 -29.618  22.071  1.00  0.00    -0.181 NA
HETATM    9  C   UNL     1      56.401 -30.383  21.693  1.00  0.00     0.160 A 
HETATM   10  H   UNL     1      56.037 -28.305  18.250  1.00  0.00     0.162 HD
ENDROOT
BRANCH   1  11
HETATM   11  C   UNL     1      54.924 -30.811  19.636  1.00  0.00     0.261 C 
HETATM   12  N   UNL     1      53.912 -29.937  19.291  1.00  0.00    -0.323 N 
HETATM   13  H   UNL     1      54.119 -28.954  19.440  1.00  0.00     0.169 HD
HETATM   14  O   UNL     1      54.968 -32.007  19.379  1.00  0.00    -0.267 OA
BRANCH  12  15
HETATM   15  C   UNL     1      52.653 -30.235  18.742  1.00  0.00     0.035 A 
HETATM   16  C   UNL     1      52.469 -30.848  17.503  1.00  0.00     0.030 A 
HETATM   17  C   UNL     1      51.181 -31.160  17.051  1.00  0.00     0.012 A 
HETATM   18  C   UNL     1      50.053 -30.862  17.828  1.00  0.00    -0.030 A 
HETATM   19  C   UNL     1      50.244 -30.241  19.068  1.00  0.00     0.012 A 
HETATM   20  C   UNL     1      51.530 -29.930  19.518  1.00  0.00     0.030 A 
BRANCH  18  21
HETATM   21  C   UNL     1      48.675 -31.256  17.344  1.00  0.00     0.147 C 
HETATM   22  C   UNL     1      48.067 -32.337  18.230  1.00  0.00     0.044 C 
BRANCH  21  23
HETATM   23  O   UNL     1      47.814 -30.119  17.341  1.00  0.00    -0.391 OA
HETATM   24  H   UNL     1      47.910 -29.692  16.474  1.00  0.00     0.210 HD
ENDBRANCH  21  23
ENDBRANCH  18  21
ENDBRANCH  12  15
ENDBRANCH   1  11
BRANCH   4  25
HETATM   25  C   UNL     1      60.078 -28.433  21.507  1.00  0.00     0.409 C 
HETATM   26  F   UNL     1      60.330 -29.703  21.117  1.00  0.00    -0.169 F 
HETATM   27  F   UNL     1      61.106 -27.675  21.037  1.00  0.00    -0.169 F 
HETATM   28  F   UNL     1      60.159 -28.380  22.852  1.00  0.00    -0.169 F 
ENDBRANCH   4  25
BRANCH   6  29
HETATM   29  C   UNL     1      56.922 -25.966  19.348  1.00  0.00     0.075 A 
HETATM   30  O   UNL     1      57.366 -24.738  18.951  1.00  0.00    -0.325 OA
HETATM   31  C   UNL     1      56.573 -23.813  19.550  1.00  0.00     0.142 A 
HETATM   32  C   UNL     1      55.623 -24.429  20.330  1.00  0.00     0.027 A 
HETATM   33  C   UNL     1      55.846 -25.820  20.200  1.00  0.00     0.037 A 
ENDBRANCH   6  29
TORSDOF 6
ENDMDL
MODEL 10
REMARK VINA RESULT:      -7.6      4.594      5.532
REMARK  6 active torsions:
REMARK  status: ('A' for Active; 'I' for Inactive)
REMARK    1  A    between atoms: C_2  and  O_3 
REMARK    2  A    between atoms: C_2  and  C_4 
REMARK    3  A    between atoms: C_7  and  N_8 
REMARK       I    between atoms: N_8  and  C_9 
REMARK    4  A    between atoms: C_9  and  C_10 
REMARK    5  A    between atoms: C_13  and  C_14 
REMARK    6  A    between atoms: C_19  and  C_20 
ROOT
HETATM    1  C   UNL     1      41.291 -13.025   5.199  1.00  0.00     0.096 A 
HETATM    2  C   UNL     1      41.314 -11.643   5.213  1.00  0.00     0.138 A 
HETATM    3  N   UNL     1      40.291 -11.254   6.047  1.00  0.00    -0.240 N 
HETATM    4  C   UNL     1      39.920  -9.872   6.301  1.00  0.00     0.221 C 
HETATM    5  C   UNL     1      41.041  -8.920   5.842  1.00  0.00     0.068 C 
HETATM    6  C   UNL     1      41.609  -9.332   4.479  1.00  0.00     0.143 C 
HETATM    7  N   UNL     1      42.088 -10.724   4.565  1.00  0.00    -0.363 N 
HETATM    8  N   UNL     1      39.515 -12.274   6.443  1.00  0.00    -0.181 NA
HETATM    9  C   UNL     1      40.140 -13.350   5.954  1.00  0.00     0.160 A 
HETATM   10  H   UNL     1      42.530 -11.012   3.689  1.00  0.00     0.162 HD
ENDROOT
BRANCH   1  11
HETATM   11  C   UNL     1      42.183 -13.950   4.518  1.00  0.00     0.261 C 
HETATM   12  N   UNL     1      41.649 -15.217   4.394  1.00  0.00    -0.323 N 
HETATM   13  H   UNL     1      40.669 -15.301   4.647  1.00  0.00     0.169 HD
HETATM   14  O   UNL     1      43.274 -13.578   4.105  1.00  0.00    -0.267 OA
BRANCH  12  15
HETATM   15  C   UNL     1      42.281 -16.388   3.939  1.00  0.00     0.035 A 
HETATM   16  C   UNL     1      43.231 -17.096   4.675  1.00  0.00     0.030 A 
HETATM   17  C   UNL     1      43.775 -18.284   4.171  1.00  0.00     0.012 A 
HETATM   18  C   UNL     1      43.382 -18.784   2.922  1.00  0.00    -0.030 A 
HETATM   19  C   UNL     1      42.433 -18.065   2.186  1.00  0.00     0.012 A 
HETATM   20  C   UNL     1      41.891 -16.878   2.689  1.00  0.00     0.030 A 
BRANCH  18  21
HETATM   21  C   UNL     1      43.942 -20.097   2.421  1.00  0.00     0.147 C 
HETATM   22  C   UNL     1      44.053 -21.115   3.550  1.00  0.00     0.044 C 
BRANCH  21  23
HETATM   23  O   UNL     1      43.104 -20.628   1.397  1.00  0.00    -0.391 OA
HETATM   24  H   UNL     1      42.922 -19.904   0.774  1.00  0.00     0.210 HD
ENDBRANCH  21  23
ENDBRANCH  18  21
ENDBRANCH  12  15
ENDBRANCH   1  11
BRANCH   4  25
HETATM   25  C   UNL     1      39.626  -9.634   7.767  1.00  0.00     0.409 C 
HETATM   26  F   UNL     1      39.060  -8.426   7.987  1.00  0.00    -0.169 F 
HETATM   27  F   UNL     1      38.736 -10.563   8.211  1.00  0.00    -0.169 F 
HETATM   28  F   UNL     1      40.709  -9.745   8.562  1.00  0.00    -0.169 F 
ENDBRANCH   4  25
BRANCH   6  29
HETATM   29  C   UNL     1      40.639  -9.067   3.368  1.00  0.00     0.075 A 
HETATM   30  O   UNL     1      40.058  -7.831   3.359  1.00  0.00    -0.325 OA
HETATM   31  C   UNL     1      39.225  -7.789   2.288  1.00  0.00     0.142 A 
HETATM   32  C   UNL     1      39.259  -8.981   1.605  1.00  0.00     0.027 A 
HETATM   33  C   UNL     1      40.174  -9.808   2.300  1.00  0.00     0.037 A 
ENDBRANCH   6  29
TORSDOF 6
ENDMDL
