MODEL 1
REMARK VINA RESULT:      -8.0      0.000      0.000
REMARK  5 active torsions:
REMARK  status: ('A' for Active; 'I' for Inactive)
REMARK    1  A    between atoms: C_6  and  C_7 
REMARK    2  A    between atoms: C_7  and  C_8 
REMARK    3  A    between atoms: C_8  and  C_9 
REMARK    4  A    between atoms: C_9  and  N_10 
REMARK    5  A    between atoms: C_9  and  C_14 
ROOT
HETATM    1  C   UNL     1      43.139 -16.258   6.738  1.00  0.00     0.253 C 
ENDROOT
BRANCH   1   2
HETATM    2  C   UNL     1      41.643 -15.926   6.908  1.00  0.00     0.048 C 
BRANCH   2   3
HETATM    3  C   UNL     1      41.186 -14.531   6.457  1.00  0.00     0.081 C 
BRANCH   3   4
HETATM    4  C   UNL     1      40.928 -14.480   4.994  1.00  0.00     0.105 A 
HETATM    5  N   UNL     1      41.299 -13.491   4.202  1.00  0.00    -0.233 NA
HETATM    6  C   UNL     1      40.959 -13.902   2.931  1.00  0.00     0.085 A 
HETATM    7  C   UNL     1      40.357 -15.155   2.962  1.00  0.00     0.062 A 
HETATM    8  C   UNL     1      41.157 -13.265   1.698  1.00  0.00     0.034 A 
HETATM    9  C   UNL     1      39.933 -15.831   1.817  1.00  0.00     0.032 A 
HETATM   10  N   UNL     1      40.311 -15.486   4.292  1.00  0.00    -0.343 N 
HETATM   11  C   UNL     1      40.147 -15.185   0.594  1.00  0.00     0.002 A 
HETATM   12  C   UNL     1      40.746 -13.924   0.532  1.00  0.00     0.002 A 
HETATM   13  H   UNL     1      39.922 -16.339   4.672  1.00  0.00     0.167 HD
ENDBRANCH   3   4
ENDBRANCH   2   3
ENDBRANCH   1   2
BRANCH   1  14
HETATM   14  N   UNL     1      43.720 -16.752   8.011  1.00  0.00    -0.068 N 
HETATM   15  H   UNL     1      44.277 -16.025   8.472  1.00  0.00     0.275 HD
HETATM   16  H   UNL     1      42.967 -16.995   8.666  1.00  0.00     0.275 HD
HETATM   17  H   UNL     1      44.277 -17.607   7.829  1.00  0.00     0.275 HD
ENDBRANCH   1  14
BRANCH   1  18
HETATM   18  C   UNL     1      43.340 -17.300   5.688  1.00  0.00     0.136 A 
HETATM   19  N   UNL     1      43.149 -17.116   4.397  1.00  0.00    -0.231 NA
HETATM   20  C   UNL     1      43.409 -18.334   3.811  1.00  0.00     0.085 A 
HETATM   21  C   UNL     1      43.733 -19.283   4.775  1.00  0.00     0.062 A 
HETATM   22  C   UNL     1      43.380 -18.710   2.461  1.00  0.00     0.034 A 
HETATM   23  N   UNL     1      43.689 -18.601   5.962  1.00  0.00    -0.341 N 
HETATM   24  C   UNL     1      44.021 -20.615   4.473  1.00  0.00     0.032 A 
HETATM   25  H   UNL     1      43.870 -19.008   6.871  1.00  0.00     0.167 HD
HETATM   26  C   UNL     1      43.982 -20.974   3.122  1.00  0.00     0.002 A 
HETATM   27  C   UNL     1      43.671 -20.039   2.131  1.00  0.00     0.002 A 
ENDBRANCH   1  18
TORSDOF 5
ENDMDL
MODEL 2
REMARK VINA RESULT:      -7.9      2.124      6.914
REMARK  5 active torsions:
REMARK  status: ('A' for Active; 'I' for Inactive)
REMARK    1  A    between atoms: C_6  and  C_7 
REMARK    2  A    between atoms: C_7  and  C_8 
REMARK    3  A    between atoms: C_8  and  C_9 
REMARK    4  A    between atoms: C_9  and  N_10 
REMARK    5  A    between atoms: C_9  and  C_14 
ROOT
HETATM    1  C   UNL     1      40.674 -14.650   2.756  1.00  0.00     0.253 C 
ENDROOT
BRANCH   1   2
HETATM    2  C   UNL     1      42.135 -14.381   3.171  1.00  0.00     0.048 C 
BRANCH   2   3
HETATM    3  C   UNL     1      43.227 -15.137   2.400  1.00  0.00     0.081 C 
BRANCH   3   4
HETATM    4  C   UNL     1      43.330 -16.555   2.836  1.00  0.00     0.105 A 
HETATM    5  N   UNL     1      43.215 -17.596   2.033  1.00  0.00    -0.233 NA
HETATM    6  C   UNL     1      43.483 -18.692   2.825  1.00  0.00     0.085 A 
HETATM    7  C   UNL     1      43.748 -18.302   4.133  1.00  0.00     0.062 A 
HETATM    8  C   UNL     1      43.542 -20.051   2.487  1.00  0.00     0.034 A 
HETATM    9  C   UNL     1      44.077 -19.200   5.149  1.00  0.00     0.032 A 
HETATM   10  N   UNL     1      43.604 -16.938   4.125  1.00  0.00    -0.343 N 
HETATM   11  C   UNL     1      44.141 -20.552   4.792  1.00  0.00     0.002 A 
HETATM   12  C   UNL     1      43.877 -20.974   3.487  1.00  0.00     0.002 A 
HETATM   13  H   UNL     1      43.718 -16.331   4.927  1.00  0.00     0.167 HD
ENDBRANCH   3   4
ENDBRANCH   2   3
ENDBRANCH   1   2
BRANCH   1  14
HETATM   14  N   UNL     1      39.734 -13.848   3.578  1.00  0.00    -0.068 N 
HETATM   15  H   UNL     1      38.782 -14.226   3.530  1.00  0.00     0.275 HD
HETATM   16  H   UNL     1      40.011 -13.892   4.566  1.00  0.00     0.275 HD
HETATM   17  H   UNL     1      39.771 -12.857   3.277  1.00  0.00     0.275 HD
ENDBRANCH   1  14
BRANCH   1  18
HETATM   18  C   UNL     1      40.455 -14.313   1.318  1.00  0.00     0.136 A 
HETATM   19  N   UNL     1      40.875 -13.211   0.730  1.00  0.00    -0.231 NA
HETATM   20  C   UNL     1      40.425 -13.296  -0.569  1.00  0.00     0.085 A 
HETATM   21  C   UNL     1      39.689 -14.461  -0.759  1.00  0.00     0.062 A 
HETATM   22  C   UNL     1      40.598 -12.412  -1.642  1.00  0.00     0.034 A 
HETATM   23  N   UNL     1      39.727 -15.096   0.455  1.00  0.00    -0.341 N 
HETATM   24  C   UNL     1      39.089 -14.800  -1.972  1.00  0.00     0.032 A 
HETATM   25  H   UNL     1      39.277 -15.979   0.660  1.00  0.00     0.167 HD
HETATM   26  C   UNL     1      39.267 -13.903  -3.031  1.00  0.00     0.002 A 
HETATM   27  C   UNL     1      40.011 -12.731  -2.873  1.00  0.00     0.002 A 
ENDBRANCH   1  18
TORSDOF 5
ENDMDL
MODEL 3
REMARK VINA RESULT:      -7.9      0.706      5.537
REMARK  5 active torsions:
REMARK  status: ('A' for Active; 'I' for Inactive)
REMARK    1  A    between atoms: C_6  and  C_7 
REMARK    2  A    between atoms: C_7  and  C_8 
REMARK    3  A    between atoms: C_8  and  C_9 
REMARK    4  A    between atoms: C_9  and  N_10 
REMARK    5  A    between atoms: C_9  and  C_14 
ROOT
HETATM    1  C   UNL     1      41.299 -14.334   6.302  1.00  0.00     0.253 C 
ENDROOT
BRANCH   1   2
HETATM    2  C   UNL     1      42.162 -15.537   6.733  1.00  0.00     0.048 C 
BRANCH   2   3
HETATM    3  C   UNL     1      43.557 -15.653   6.103  1.00  0.00     0.081 C 
BRANCH   3   4
HETATM    4  C   UNL     1      43.692 -16.885   5.281  1.00  0.00     0.105 A 
HETATM    5  N   UNL     1      44.024 -18.070   5.758  1.00  0.00    -0.233 NA
HETATM    6  C   UNL     1      43.924 -18.930   4.685  1.00  0.00     0.085 A 
HETATM    7  C   UNL     1      43.540 -18.245   3.538  1.00  0.00     0.062 A 
HETATM    8  C   UNL     1      44.124 -20.316   4.624  1.00  0.00     0.034 A 
HETATM    9  C   UNL     1      43.335 -18.867   2.306  1.00  0.00     0.032 A 
HETATM   10  N   UNL     1      43.438 -16.936   3.933  1.00  0.00    -0.343 N 
HETATM   11  C   UNL     1      43.529 -20.252   2.264  1.00  0.00     0.002 A 
HETATM   12  C   UNL     1      43.918 -20.967   3.400  1.00  0.00     0.002 A 
HETATM   13  H   UNL     1      43.184 -16.160   3.335  1.00  0.00     0.167 HD
ENDBRANCH   3   4
ENDBRANCH   2   3
ENDBRANCH   1   2
BRANCH   1  14
HETATM   14  N   UNL     1      41.993 -13.054   6.589  1.00  0.00    -0.068 N 
HETATM   15  H   UNL     1      41.817 -12.362   5.854  1.00  0.00     0.275 HD
HETATM   16  H   UNL     1      41.631 -12.649   7.460  1.00  0.00     0.275 HD
HETATM   17  H   UNL     1      43.007 -13.232   6.715  1.00  0.00     0.275 HD
ENDBRANCH   1  14
BRANCH   1  18
HETATM   18  C   UNL     1      40.991 -14.392   4.842  1.00  0.00     0.136 A 
HETATM   19  N   UNL     1      40.620 -15.477   4.193  1.00  0.00    -0.231 NA
HETATM   20  C   UNL     1      40.483 -15.087   2.879  1.00  0.00     0.085 A 
HETATM   21  C   UNL     1      40.811 -13.745   2.728  1.00  0.00     0.062 A 
HETATM   22  C   UNL     1      40.091 -15.828   1.756  1.00  0.00     0.034 A 
HETATM   23  N   UNL     1      41.125 -13.320   3.993  1.00  0.00    -0.341 N 
HETATM   24  C   UNL     1      40.787 -13.083   1.500  1.00  0.00     0.032 A 
HETATM   25  H   UNL     1      41.417 -12.381   4.232  1.00  0.00     0.167 HD
HETATM   26  C   UNL     1      40.399 -13.838   0.389  1.00  0.00     0.002 A 
HETATM   27  C   UNL     1      40.053 -15.186   0.512  1.00  0.00     0.002 A 
ENDBRANCH   1  18
TORSDOF 5
ENDMDL
MODEL 4
REMARK VINA RESULT:      -7.9      0.793      5.316
REMARK  5 active torsions:
REMARK  status: ('A' for Active; 'I' for Inactive)
REMARK    1  A    between atoms: C_6  and  C_7 
REMARK    2  A    between atoms: C_7  and  C_8 
REMARK    3  A    between atoms: C_8  and  C_9 
REMARK    4  A    between atoms: C_9  and  N_10 
REMARK    5  A    between atoms: C_9  and  C_14 
ROOT
HETATM    1  C   UNL     1      41.728 -14.092   6.397  1.00  0.00     0.253 C 
ENDROOT
BRANCH   1   2
HETATM    2  C   UNL     1      42.558 -15.275   6.934  1.00  0.00     0.048 C 
BRANCH   2   3
HETATM    3  C   UNL     1      43.865 -15.599   6.196  1.00  0.00     0.081 C 
BRANCH   3   4
HETATM    4  C   UNL     1      43.753 -16.847   5.396  1.00  0.00     0.105 A 
HETATM    5  N   UNL     1      43.500 -16.886   4.101  1.00  0.00    -0.233 NA
HETATM    6  C   UNL     1      43.591 -18.218   3.757  1.00  0.00     0.085 A 
HETATM    7  C   UNL     1      43.890 -18.996   4.870  1.00  0.00     0.062 A 
HETATM    8  C   UNL     1      43.456 -18.833   2.505  1.00  0.00     0.034 A 
HETATM    9  C   UNL     1      44.068 -20.378   4.814  1.00  0.00     0.032 A 
HETATM   10  N   UNL     1      43.948 -18.105   5.911  1.00  0.00    -0.343 N 
HETATM   11  C   UNL     1      43.939 -20.975   3.555  1.00  0.00     0.002 A 
HETATM   12  C   UNL     1      43.637 -20.220   2.419  1.00  0.00     0.002 A 
HETATM   13  H   UNL     1      44.136 -18.341   6.877  1.00  0.00     0.167 HD
ENDBRANCH   3   4
ENDBRANCH   2   3
ENDBRANCH   1   2
BRANCH   1  14
HETATM   14  N   UNL     1      42.447 -12.809   6.594  1.00  0.00    -0.068 N 
HETATM   15  H   UNL     1      41.975 -12.040   6.106  1.00  0.00     0.275 HD
HETATM   16  H   UNL     1      42.449 -12.560   7.590  1.00  0.00     0.275 HD
HETATM   17  H   UNL     1      43.431 -12.913   6.286  1.00  0.00     0.275 HD
ENDBRANCH   1  14
BRANCH   1  18
HETATM   18  C   UNL     1      41.440 -14.258   4.941  1.00  0.00     0.136 A 
HETATM   19  N   UNL     1      41.902 -13.475   3.987  1.00  0.00    -0.231 NA
HETATM   20  C   UNL     1      41.361 -13.963   2.819  1.00  0.00     0.085 A 
HETATM   21  C   UNL     1      40.528 -15.046   3.079  1.00  0.00     0.062 A 
HETATM   22  C   UNL     1      41.528 -13.528   1.498  1.00  0.00     0.034 A 
HETATM   23  N   UNL     1      40.598 -15.220   4.436  1.00  0.00    -0.341 N 
HETATM   24  C   UNL     1      39.823 -15.728   2.086  1.00  0.00     0.032 A 
HETATM   25  H   UNL     1      40.097 -15.929   4.956  1.00  0.00     0.167 HD
HETATM   26  C   UNL     1      39.998 -15.277   0.773  1.00  0.00     0.002 A 
HETATM   27  C   UNL     1      40.837 -14.199   0.481  1.00  0.00     0.002 A 
ENDBRANCH   1  18
TORSDOF 5
ENDMDL
MODEL 5
REMARK VINA RESULT:      -7.9      3.791      5.394
REMARK  5 active torsions:
REMARK  status: ('A' for Active; 'I' for Inactive)
REMARK    1  A    between atoms: C_6  and  C_7 
REMARK    2  A    between atoms: C_7  and  C_8 
REMARK    3  A    between atoms: C_8  and  C_9 
REMARK    4  A    between atoms: C_9  and  N_10 
REMARK    5  A    between atoms: C_9  and  C_14 
ROOT
HETATM    1  C   UNL     1      43.577 -15.546   6.624  1.00  0.00     0.253 C 
ENDROOT
BRANCH   1   2
HETATM    2  C   UNL     1      42.681 -14.401   6.112  1.00  0.00     0.048 C 
BRANCH   2   3
HETATM    3  C   UNL     1      43.389 -13.197   5.472  1.00  0.00     0.081 C 
BRANCH   3   4
HETATM    4  C   UNL     1      43.973 -12.291   6.497  1.00  0.00     0.105 A 
HETATM    5  N   UNL     1      45.076 -11.586   6.332  1.00  0.00    -0.233 NA
HETATM    6  C   UNL     1      45.186 -10.818   7.472  1.00  0.00     0.085 A 
HETATM    7  C   UNL     1      44.136 -11.080   8.345  1.00  0.00     0.062 A 
HETATM    8  C   UNL     1      46.145  -9.856   7.818  1.00  0.00     0.034 A 
HETATM    9  C   UNL     1      43.977 -10.428   9.569  1.00  0.00     0.032 A 
HETATM   10  N   UNL     1      43.398 -12.052   7.721  1.00  0.00    -0.343 N 
HETATM   11  C   UNL     1      44.937  -9.464   9.894  1.00  0.00     0.002 A 
HETATM   12  C   UNL     1      46.004  -9.182   9.038  1.00  0.00     0.002 A 
HETATM   13  H   UNL     1      42.561 -12.483   8.091  1.00  0.00     0.167 HD
ENDBRANCH   3   4
ENDBRANCH   2   3
ENDBRANCH   1   2
BRANCH   1  14
HETATM   14  N   UNL     1      43.075 -16.073   7.917  1.00  0.00    -0.068 N 
HETATM   15  H   UNL     1      43.701 -16.792   8.294  1.00  0.00     0.275 HD
HETATM   16  H   UNL     1      43.049 -15.320   8.614  1.00  0.00     0.275 HD
HETATM   17  H   UNL     1      42.110 -16.430   7.794  1.00  0.00     0.275 HD
ENDBRANCH   1  14
BRANCH   1  18
HETATM   18  C   UNL     1      43.627 -16.668   5.640  1.00  0.00     0.136 A 
HETATM   19  N   UNL     1      43.293 -16.570   4.369  1.00  0.00    -0.231 NA
HETATM   20  C   UNL     1      43.451 -17.836   3.851  1.00  0.00     0.085 A 
HETATM   21  C   UNL     1      43.857 -18.725   4.841  1.00  0.00     0.062 A 
HETATM   22  C   UNL     1      43.257 -18.307   2.546  1.00  0.00     0.034 A 
HETATM   23  N   UNL     1      43.969 -17.957   5.971  1.00  0.00    -0.341 N 
HETATM   24  C   UNL     1      44.072 -20.084   4.611  1.00  0.00     0.032 A 
HETATM   25  H   UNL     1      44.243 -18.304   6.881  1.00  0.00     0.167 HD
HETATM   26  C   UNL     1      43.868 -20.538   3.304  1.00  0.00     0.002 A 
HETATM   27  C   UNL     1      43.471 -19.666   2.286  1.00  0.00     0.002 A 
ENDBRANCH   1  18
TORSDOF 5
ENDMDL
MODEL 6
REMARK VINA RESULT:      -7.7      3.697      7.395
REMARK  5 active torsions:
REMARK  status: ('A' for Active; 'I' for Inactive)
REMARK    1  A    between atoms: C_6  and  C_7 
REMARK    2  A    between atoms: C_7  and  C_8 
REMARK    3  A    between atoms: C_8  and  C_9 
REMARK    4  A    between atoms: C_9  and  N_10 
REMARK    5  A    between atoms: C_9  and  C_14 
ROOT
HETATM    1  C   UNL     1      42.365 -13.228   5.743  1.00  0.00     0.253 C 
ENDROOT
BRANCH   1   2
HETATM    2  C   UNL     1      43.243 -14.365   5.183  1.00  0.00     0.048 C 
BRANCH   2   3
HETATM    3  C   UNL     1      43.460 -15.587   6.088  1.00  0.00     0.081 C 
BRANCH   3   4
HETATM    4  C   UNL     1      43.625 -16.837   5.299  1.00  0.00     0.105 A 
HETATM    5  N   UNL     1      43.975 -18.003   5.808  1.00  0.00    -0.233 NA
HETATM    6  C   UNL     1      43.902 -18.891   4.756  1.00  0.00     0.085 A 
HETATM    7  C   UNL     1      43.516 -18.242   3.589  1.00  0.00     0.062 A 
HETATM    8  C   UNL     1      44.128 -20.274   4.731  1.00  0.00     0.034 A 
HETATM    9  C   UNL     1      43.334 -18.898   2.371  1.00  0.00     0.032 A 
HETATM   10  N   UNL     1      43.385 -16.925   3.951  1.00  0.00    -0.343 N 
HETATM   11  C   UNL     1      43.555 -20.280   2.366  1.00  0.00     0.002 A 
HETATM   12  C   UNL     1      43.946 -20.959   3.522  1.00  0.00     0.002 A 
HETATM   13  H   UNL     1      43.122 -16.170   3.331  1.00  0.00     0.167 HD
ENDBRANCH   3   4
ENDBRANCH   2   3
ENDBRANCH   1   2
BRANCH   1  14
HETATM   14  N   UNL     1      41.407 -13.746   6.750  1.00  0.00    -0.068 N 
HETATM   15  H   UNL     1      40.475 -13.337   6.622  1.00  0.00     0.275 HD
HETATM   16  H   UNL     1      41.294 -14.760   6.634  1.00  0.00     0.275 HD
HETATM   17  H   UNL     1      41.777 -13.570   7.702  1.00  0.00     0.275 HD
ENDBRANCH   1  14
BRANCH   1  18
HETATM   18  C   UNL     1      43.203 -12.171   6.383  1.00  0.00     0.136 A 
HETATM   19  N   UNL     1      44.521 -12.167   6.409  1.00  0.00    -0.231 NA
HETATM   20  C   UNL     1      44.868 -11.044   7.125  1.00  0.00     0.085 A 
HETATM   21  C   UNL     1      43.734 -10.374   7.569  1.00  0.00     0.062 A 
HETATM   22  C   UNL     1      46.135 -10.536   7.447  1.00  0.00     0.034 A 
HETATM   23  N   UNL     1      42.685 -11.106   7.079  1.00  0.00    -0.341 N 
HETATM   24  C   UNL     1      43.782  -9.213   8.343  1.00  0.00     0.032 A 
HETATM   25  H   UNL     1      41.708 -10.889   7.229  1.00  0.00     0.167 HD
HETATM   26  C   UNL     1      45.053  -8.723   8.659  1.00  0.00     0.002 A 
HETATM   27  C   UNL     1      46.211  -9.369   8.217  1.00  0.00     0.002 A 
ENDBRANCH   1  18
TORSDOF 5
ENDMDL
MODEL 7
REMARK VINA RESULT:      -7.7      2.118      6.382
REMARK  5 active torsions:
REMARK  status: ('A' for Active; 'I' for Inactive)
REMARK    1  A    between atoms: C_6  and  C_7 
REMARK    2  A    between atoms: C_7  and  C_8 
REMARK    3  A    between atoms: C_8  and  C_9 
REMARK    4  A    between atoms: C_9  and  N_10 
REMARK    5  A    between atoms: C_9  and  C_14 
ROOT
HETATM    1  C   UNL     1      40.711 -14.268   2.113  1.00  0.00     0.253 C 
ENDROOT
BRANCH   1   2
HETATM    2  C   UNL     1      41.188 -15.670   1.683  1.00  0.00     0.048 C 
BRANCH   2   3
HETATM    3  C   UNL     1      42.705 -15.896   1.609  1.00  0.00     0.081 C 
BRANCH   3   4
HETATM    4  C   UNL     1      43.130 -17.061   2.430  1.00  0.00     0.105 A 
HETATM    5  N   UNL     1      43.391 -17.009   3.723  1.00  0.00    -0.233 NA
HETATM    6  C   UNL     1      43.638 -18.315   4.092  1.00  0.00     0.085 A 
HETATM    7  C   UNL     1      43.538 -19.164   2.996  1.00  0.00     0.062 A 
HETATM    8  C   UNL     1      43.929 -18.852   5.353  1.00  0.00     0.034 A 
HETATM    9  C   UNL     1      43.712 -20.546   3.078  1.00  0.00     0.032 A 
HETATM   10  N   UNL     1      43.254 -18.336   1.940  1.00  0.00    -0.343 N 
HETATM   11  C   UNL     1      43.992 -21.067   4.346  1.00  0.00     0.002 A 
HETATM   12  C   UNL     1      44.102 -20.238   5.465  1.00  0.00     0.002 A 
HETATM   13  H   UNL     1      43.125 -18.631   0.980  1.00  0.00     0.167 HD
ENDBRANCH   3   4
ENDBRANCH   2   3
ENDBRANCH   1   2
BRANCH   1  14
HETATM   14  N   UNL     1      39.318 -14.315   2.620  1.00  0.00    -0.068 N 
HETATM   15  H   UNL     1      38.911 -15.249   2.503  1.00  0.00     0.275 HD
HETATM   16  H   UNL     1      39.307 -14.121   3.628  1.00  0.00     0.275 HD
HETATM   17  H   UNL     1      38.752 -13.587   2.146  1.00  0.00     0.275 HD
ENDBRANCH   1  14
BRANCH   1  18
HETATM   18  C   UNL     1      41.589 -13.709   3.184  1.00  0.00     0.136 A 
HETATM   19  N   UNL     1      42.362 -12.650   3.049  1.00  0.00    -0.231 NA
HETATM   20  C   UNL     1      43.015 -12.519   4.254  1.00  0.00     0.085 A 
HETATM   21  C   UNL     1      42.652 -13.542   5.124  1.00  0.00     0.062 A 
HETATM   22  C   UNL     1      43.941 -11.556   4.677  1.00  0.00     0.034 A 
HETATM   23  N   UNL     1      41.738 -14.285   4.423  1.00  0.00    -0.341 N 
HETATM   24  C   UNL     1      43.177 -13.677   6.410  1.00  0.00     0.032 A 
HETATM   25  H   UNL     1      41.278 -15.115   4.772  1.00  0.00     0.167 HD
HETATM   26  C   UNL     1      44.103 -12.711   6.813  1.00  0.00     0.002 A 
HETATM   27  C   UNL     1      44.478 -11.665   5.966  1.00  0.00     0.002 A 
ENDBRANCH   1  18
TORSDOF 5
ENDMDL
MODEL 8
REMARK VINA RESULT:      -7.6      2.539      3.856
REMARK  5 active torsions:
REMARK  status: ('A' for Active; 'I' for Inactive)
REMARK    1  A    between atoms: C_6  and  C_7 
REMARK    2  A    between atoms: C_7  and  C_8 
REMARK    3  A    between atoms: C_8  and  C_9 
REMARK    4  A    between atoms: C_9  and  N_10 
REMARK    5  A    between atoms: C_9  and  C_14 
ROOT
HETATM    1  C   UNL     1      43.138 -14.988   3.027  1.00  0.00     0.253 C 
ENDROOT
BRANCH   1   2
HETATM    2  C   UNL     1      42.449 -14.762   1.666  1.00  0.00     0.048 C 
BRANCH   2   3
HETATM    3  C   UNL     1      41.738 -13.416   1.461  1.00  0.00     0.081 C 
BRANCH   3   4
HETATM    4  C   UNL     1      40.667 -13.508   0.433  1.00  0.00     0.105 A 
HETATM    5  N   UNL     1      39.674 -12.648   0.308  1.00  0.00    -0.233 NA
HETATM    6  C   UNL     1      38.992 -13.049  -0.821  1.00  0.00     0.085 A 
HETATM    7  C   UNL     1      39.578 -14.181  -1.376  1.00  0.00     0.062 A 
HETATM    8  C   UNL     1      37.875 -12.477  -1.447  1.00  0.00     0.034 A 
HETATM    9  C   UNL     1      39.114 -14.793  -2.541  1.00  0.00     0.032 A 
HETATM   10  N   UNL     1      40.620 -14.480  -0.535  1.00  0.00    -0.343 N 
HETATM   11  C   UNL     1      38.005 -14.203  -3.158  1.00  0.00     0.002 A 
HETATM   12  C   UNL     1      37.393 -13.067  -2.622  1.00  0.00     0.002 A 
HETATM   13  H   UNL     1      41.256 -15.260  -0.642  1.00  0.00     0.167 HD
ENDBRANCH   3   4
ENDBRANCH   2   3
ENDBRANCH   1   2
BRANCH   1  14
HETATM   14  N   UNL     1      42.337 -14.399   4.129  1.00  0.00    -0.068 N 
HETATM   15  H   UNL     1      41.332 -14.480   3.943  1.00  0.00     0.275 HD
HETATM   16  H   UNL     1      42.511 -14.914   5.000  1.00  0.00     0.275 HD
HETATM   17  H   UNL     1      42.623 -13.414   4.276  1.00  0.00     0.275 HD
ENDBRANCH   1  14
BRANCH   1  18
HETATM   18  C   UNL     1      43.323 -16.444   3.298  1.00  0.00     0.136 A 
HETATM   19  N   UNL     1      43.666 -16.957   4.462  1.00  0.00    -0.231 NA
HETATM   20  C   UNL     1      43.760 -18.314   4.251  1.00  0.00     0.085 A 
HETATM   21  C   UNL     1      43.498 -18.623   2.920  1.00  0.00     0.062 A 
HETATM   22  C   UNL     1      44.073 -19.346   5.146  1.00  0.00     0.034 A 
HETATM   23  N   UNL     1      43.216 -17.418   2.334  1.00  0.00    -0.341 N 
HETATM   24  C   UNL     1      43.545 -19.921   2.411  1.00  0.00     0.032 A 
HETATM   25  H   UNL     1      42.987 -17.289   1.356  1.00  0.00     0.167 HD
HETATM   26  C   UNL     1      43.864 -20.938   3.317  1.00  0.00     0.002 A 
HETATM   27  C   UNL     1      44.121 -20.659   4.662  1.00  0.00     0.002 A 
ENDBRANCH   1  18
TORSDOF 5
ENDMDL
MODEL 9
REMARK VINA RESULT:      -7.3      2.594      4.092
REMARK  5 active torsions:
REMARK  status: ('A' for Active; 'I' for Inactive)
REMARK    1  A    between atoms: C_6  and  C_7 
REMARK    2  A    between atoms: C_7  and  C_8 
REMARK    3  A    between atoms: C_8  and  C_9 
REMARK    4  A    between atoms: C_9  and  N_10 
REMARK    5  A    between atoms: C_9  and  C_14 
ROOT
HETATM    1  C   UNL     1      40.815 -14.065   4.333  1.00  0.00     0.253 C 
ENDROOT
BRANCH   1   2
HETATM    2  C   UNL     1      39.916 -13.831   3.102  1.00  0.00     0.048 C 
BRANCH   2   3
HETATM    3  C   UNL     1      40.442 -12.863   2.031  1.00  0.00     0.081 C 
BRANCH   3   4
HETATM    4  C   UNL     1      39.881 -13.168   0.688  1.00  0.00     0.105 A 
HETATM    5  N   UNL     1      40.241 -14.195  -0.058  1.00  0.00    -0.233 NA
HETATM    6  C   UNL     1      39.405 -14.154  -1.153  1.00  0.00     0.085 A 
HETATM    7  C   UNL     1      38.536 -13.072  -1.070  1.00  0.00     0.062 A 
HETATM    8  C   UNL     1      39.315 -15.026  -2.247  1.00  0.00     0.034 A 
HETATM    9  C   UNL     1      37.560 -12.798  -2.029  1.00  0.00     0.032 A 
HETATM   10  N   UNL     1      38.886 -12.434   0.092  1.00  0.00    -0.343 N 
HETATM   11  C   UNL     1      37.477 -13.683  -3.109  1.00  0.00     0.002 A 
HETATM   12  C   UNL     1      38.338 -14.777  -3.221  1.00  0.00     0.002 A 
HETATM   13  H   UNL     1      38.455 -11.592   0.453  1.00  0.00     0.167 HD
ENDBRANCH   3   4
ENDBRANCH   2   3
ENDBRANCH   1   2
BRANCH   1  14
HETATM   14  N   UNL     1      39.998 -14.228   5.561  1.00  0.00    -0.068 N 
HETATM   15  H   UNL     1      39.153 -13.649   5.525  1.00  0.00     0.275 HD
HETATM   16  H   UNL     1      39.677 -15.200   5.640  1.00  0.00     0.275 HD
HETATM   17  H   UNL     1      40.577 -14.012   6.393  1.00  0.00     0.275 HD
ENDBRANCH   1  14
BRANCH   1  18
HETATM   18  C   UNL     1      41.657 -15.285   4.156  1.00  0.00     0.136 A 
HETATM   19  N   UNL     1      42.540 -15.724   5.030  1.00  0.00    -0.231 NA
HETATM   20  C   UNL     1      43.106 -16.837   4.449  1.00  0.00     0.085 A 
HETATM   21  C   UNL     1      42.576 -17.054   3.182  1.00  0.00     0.062 A 
HETATM   22  C   UNL     1      44.088 -17.708   4.940  1.00  0.00     0.034 A 
HETATM   23  N   UNL     1      41.650 -16.057   3.019  1.00  0.00    -0.341 N 
HETATM   24  C   UNL     1      42.980 -18.098   2.349  1.00  0.00     0.032 A 
HETATM   25  H   UNL     1      41.082 -15.924   2.192  1.00  0.00     0.167 HD
HETATM   26  C   UNL     1      43.965 -18.955   2.853  1.00  0.00     0.002 A 
HETATM   27  C   UNL     1      44.508 -18.768   4.126  1.00  0.00     0.002 A 
ENDBRANCH   1  18
TORSDOF 5
ENDMDL
MODEL 10
REMARK VINA RESULT:      -7.2      4.471      6.405
REMARK  5 active torsions:
REMARK  status: ('A' for Active; 'I' for Inactive)
REMARK    1  A    between atoms: C_6  and  C_7 
REMARK    2  A    between atoms: C_7  and  C_8 
REMARK    3  A    between atoms: C_8  and  C_9 
REMARK    4  A    between atoms: C_9  and  N_10 
REMARK    5  A    between atoms: C_9  and  C_14 
ROOT
HETATM    1  C   UNL     1      43.212 -14.037   6.640  1.00  0.00     0.253 C 
ENDROOT
BRANCH   1   2
HETATM    2  C   UNL     1      44.356 -13.023   6.438  1.00  0.00     0.048 C 
BRANCH   2   3
HETATM    3  C   UNL     1      43.960 -11.543   6.329  1.00  0.00     0.081 C 
BRANCH   3   4
HETATM    4  C   UNL     1      43.749 -10.927   7.666  1.00  0.00     0.105 A 
HETATM    5  N   UNL     1      44.635 -10.941   8.645  1.00  0.00    -0.233 NA
HETATM    6  C   UNL     1      44.076 -10.174   9.646  1.00  0.00     0.085 A 
HETATM    7  C   UNL     1      42.824  -9.704   9.266  1.00  0.00     0.062 A 
HETATM    8  C   UNL     1      44.594  -9.816  10.898  1.00  0.00     0.034 A 
HETATM    9  C   UNL     1      42.038  -8.880  10.072  1.00  0.00     0.032 A 
HETATM   10  N   UNL     1      42.619 -10.231   8.016  1.00  0.00    -0.343 N 
HETATM   11  C   UNL     1      42.574  -8.525  11.315  1.00  0.00     0.002 A 
HETATM   12  C   UNL     1      43.828  -8.984  11.725  1.00  0.00     0.002 A 
HETATM   13  H   UNL     1      41.793 -10.094   7.449  1.00  0.00     0.167 HD
ENDBRANCH   3   4
ENDBRANCH   2   3
ENDBRANCH   1   2
BRANCH   1  14
HETATM   14  N   UNL     1      41.890 -13.384   6.477  1.00  0.00    -0.068 N 
HETATM   15  H   UNL     1      41.509 -13.543   5.539  1.00  0.00     0.275 HD
HETATM   16  H   UNL     1      41.216 -13.793   7.135  1.00  0.00     0.275 HD
HETATM   17  H   UNL     1      41.975 -12.373   6.691  1.00  0.00     0.275 HD
ENDBRANCH   1  14
BRANCH   1  18
HETATM   18  C   UNL     1      43.313 -15.159   5.659  1.00  0.00     0.136 A 
HETATM   19  N   UNL     1      42.741 -15.176   4.472  1.00  0.00    -0.231 NA
HETATM   20  C   UNL     1      43.061 -16.400   3.930  1.00  0.00     0.085 A 
HETATM   21  C   UNL     1      43.816 -17.152   4.824  1.00  0.00     0.062 A 
HETATM   22  C   UNL     1      42.734 -16.946   2.682  1.00  0.00     0.034 A 
HETATM   23  N   UNL     1      43.970 -16.338   5.916  1.00  0.00    -0.341 N 
HETATM   24  C   UNL     1      44.262 -18.446   4.554  1.00  0.00     0.032 A 
HETATM   25  H   UNL     1      44.471 -16.590   6.759  1.00  0.00     0.167 HD
HETATM   26  C   UNL     1      43.922 -18.977   3.305  1.00  0.00     0.002 A 
HETATM   27  C   UNL     1      43.175 -18.241   2.382  1.00  0.00     0.002 A 
ENDBRANCH   1  18
TORSDOF 5
ENDMDL
