MODEL 1
REMARK VINA RESULT:      -9.4      0.000      0.000
REMARK  6 active torsions:
REMARK  status: ('A' for Active; 'I' for Inactive)
REMARK    1  A    between atoms: C_4  and  N_5 
REMARK       I    between atoms: N_5  and  C_6 
REMARK       I    between atoms: C_6  and  N_16 
REMARK    2  A    between atoms: N_16  and  CA_17 
REMARK    3  A    between atoms: CA_17  and  C_18 
REMARK    4  A    between atoms: CA_17  and  CB_20 
REMARK    5  A    between atoms: C_18  and  O_19 
REMARK    6  A    between atoms: CB_20  and  CG_21 
ROOT
HETATM    1  N   UNK A   0      43.560 -16.192   5.981  1.00  0.00    -0.307 N 
HETATM    2  C   UNK A   0      43.140 -15.026   6.530  1.00  0.00     0.321 C 
HETATM    3  O   UNK A   0      43.136 -14.900   7.754  1.00  0.00    -0.247 OA
HETATM    4  H   UNK A   0      44.000 -16.805   6.667  1.00  0.00     0.170 HD
ATOM      5  N   TRP A   1      42.771 -14.023   5.691  1.00  0.00    -0.336 N 
ATOM      6  H   TRP A   1      43.267 -13.998   4.811  1.00  0.00     0.164 HD
ENDROOT
BRANCH   5   7
ATOM      7  CA  TRP A   1      42.400 -12.698   6.209  1.00  0.00     0.114 C 
BRANCH   7   8
ATOM      8  C   TRP A   1      40.912 -12.447   5.919  1.00  0.00     0.189 C 
BRANCH   8   9
ATOM      9  O   TRP A   1      40.087 -13.314   6.702  1.00  0.00    -0.399 OA
ATOM     10  H   TRP A   1      39.559 -12.738   7.280  1.00  0.00     0.209 HD
ENDBRANCH   8   9
ENDBRANCH   7   8
BRANCH   7  11
ATOM     11  CB  TRP A   1      43.312 -11.608   5.607  1.00  0.00     0.068 C 
BRANCH  11  12
ATOM     12  CG  TRP A   1      44.395 -11.154   6.540  1.00  0.00    -0.028 A 
ATOM     13  CD2 TRP A   1      44.238 -10.487   7.798  1.00  0.00    -0.002 A 
ATOM     14  CE2 TRP A   1      45.516 -10.242   8.302  1.00  0.00     0.042 A 
ATOM     15  CE3 TRP A   1      43.126 -10.065   8.555  1.00  0.00     0.014 A 
ATOM     16  CZ2 TRP A   1      45.739  -9.595   9.523  1.00  0.00     0.030 A 
ATOM     17  NE1 TRP A   1      46.415 -10.738   7.387  1.00  0.00    -0.365 N 
ATOM     18  CH2 TRP A   1      44.620  -9.187  10.254  1.00  0.00     0.002 A 
ATOM     19  CZ3 TRP A   1      43.331  -9.418   9.779  1.00  0.00     0.001 A 
ATOM     20  HE1 TRP A   1      47.420 -10.691   7.486  1.00  0.00     0.165 HD
ATOM     21  CD1 TRP A   1      45.753 -11.289   6.326  1.00  0.00     0.096 A 
ENDBRANCH  11  12
ENDBRANCH   7  11
ENDBRANCH   5   7
BRANCH   1  22
HETATM   22  C   UNK A   0      43.514 -16.761   4.687  1.00  0.00     0.066 A 
HETATM   23  C   UNK A   0      43.286 -16.028   3.516  1.00  0.00     0.038 A 
HETATM   24  C   UNK A   0      43.265 -16.664   2.269  1.00  0.00    -0.059 A 
HETATM   25  C   UNK A   0      43.007 -15.884   1.014  1.00  0.00     0.048 C 
HETATM   26  C   UNK A   0      43.425 -18.051   2.212  1.00  0.00     0.020 A 
HETATM   27  C   UNK A   0      43.613 -18.800   3.384  1.00  0.00    -0.005 A 
HETATM   28  C   UNK A   0      43.657 -18.159   4.640  1.00  0.00     0.093 A 
HETATM   29  C   UNK A   0      43.753 -20.194   3.343  1.00  0.00     0.015 A 
HETATM   30  N   UNK A   0      43.831 -18.864   5.786  1.00  0.00    -0.258 NA
HETATM   31  C   UNK A   0      43.961 -20.205   5.705  1.00  0.00     0.117 A 
HETATM   32  C   UNK A   0      43.929 -20.910   4.520  1.00  0.00     0.020 A 
ENDBRANCH   1  22
TORSDOF 6
ENDMDL
MODEL 2
REMARK VINA RESULT:      -9.3      3.453      7.468
REMARK  6 active torsions:
REMARK  status: ('A' for Active; 'I' for Inactive)
REMARK    1  A    between atoms: C_4  and  N_5 
REMARK       I    between atoms: N_5  and  C_6 
REMARK       I    between atoms: C_6  and  N_16 
REMARK    2  A    between atoms: N_16  and  CA_17 
REMARK    3  A    between atoms: CA_17  and  C_18 
REMARK    4  A    between atoms: CA_17  and  CB_20 
REMARK    5  A    between atoms: C_18  and  O_19 
REMARK    6  A    between atoms: CB_20  and  CG_21 
ROOT
HETATM    1  N   UNK A   0      39.911 -14.352   4.962  1.00  0.00    -0.307 N 
HETATM    2  C   UNK A   0      40.663 -15.047   5.850  1.00  0.00     0.321 C 
HETATM    3  O   UNK A   0      40.110 -15.693   6.739  1.00  0.00    -0.247 OA
HETATM    4  H   UNK A   0      38.920 -14.582   5.032  1.00  0.00     0.170 HD
ATOM      5  N   TRP A   1      42.014 -15.027   5.695  1.00  0.00    -0.336 N 
ATOM      6  H   TRP A   1      42.333 -14.950   4.739  1.00  0.00     0.164 HD
ENDROOT
BRANCH   5   7
ATOM      7  CA  TRP A   1      42.888 -15.835   6.556  1.00  0.00     0.114 C 
BRANCH   7   8
ATOM      8  C   TRP A   1      43.232 -15.028   7.818  1.00  0.00     0.189 C 
BRANCH   8   9
ATOM      9  O   TRP A   1      43.280 -15.876   8.968  1.00  0.00    -0.399 OA
ATOM     10  H   TRP A   1      44.070 -15.609   9.470  1.00  0.00     0.209 HD
ENDBRANCH   8   9
ENDBRANCH   7   8
BRANCH   7  11
ATOM     11  CB  TRP A   1      44.145 -16.284   5.780  1.00  0.00     0.068 C 
BRANCH  11  12
ATOM     12  CG  TRP A   1      43.833 -16.972   4.485  1.00  0.00    -0.028 A 
ATOM     13  CD2 TRP A   1      43.859 -18.379   4.217  1.00  0.00    -0.002 A 
ATOM     14  CE2 TRP A   1      43.518 -18.554   2.875  1.00  0.00     0.042 A 
ATOM     15  CE3 TRP A   1      44.144 -19.522   4.992  1.00  0.00     0.014 A 
ATOM     16  CZ2 TRP A   1      43.450 -19.814   2.268  1.00  0.00     0.030 A 
ATOM     17  NE1 TRP A   1      43.296 -17.304   2.347  1.00  0.00    -0.365 N 
ATOM     18  CH2 TRP A   1      43.738 -20.930   3.058  1.00  0.00     0.002 A 
ATOM     19  CZ3 TRP A   1      44.080 -20.789   4.401  1.00  0.00     0.001 A 
ATOM     20  HE1 TRP A   1      43.041 -17.125   1.385  1.00  0.00     0.165 HD
ATOM     21  CD1 TRP A   1      43.480 -16.347   3.305  1.00  0.00     0.096 A 
ENDBRANCH  11  12
ENDBRANCH   7  11
ENDBRANCH   5   7
BRANCH   1  22
HETATM   22  C   UNK A   0      40.178 -13.373   3.978  1.00  0.00     0.066 A 
HETATM   23  C   UNK A   0      40.354 -12.011   4.253  1.00  0.00     0.038 A 
HETATM   24  C   UNK A   0      40.626 -11.104   3.222  1.00  0.00    -0.059 A 
HETATM   25  C   UNK A   0      40.801  -9.642   3.512  1.00  0.00     0.048 C 
HETATM   26  C   UNK A   0      40.670 -11.568   1.904  1.00  0.00     0.020 A 
HETATM   27  C   UNK A   0      40.453 -12.923   1.614  1.00  0.00    -0.005 A 
HETATM   28  C   UNK A   0      40.201 -13.843   2.652  1.00  0.00     0.093 A 
HETATM   29  C   UNK A   0      40.472 -13.398   0.294  1.00  0.00     0.015 A 
HETATM   30  N   UNK A   0      39.983 -15.157   2.394  1.00  0.00    -0.258 NA
HETATM   31  C   UNK A   0      40.009 -15.575   1.111  1.00  0.00     0.117 A 
HETATM   32  C   UNK A   0      40.246 -14.743   0.036  1.00  0.00     0.020 A 
ENDBRANCH   1  22
TORSDOF 6
ENDMDL
MODEL 3
REMARK VINA RESULT:      -9.1      1.648      8.470
REMARK  6 active torsions:
REMARK  status: ('A' for Active; 'I' for Inactive)
REMARK    1  A    between atoms: C_4  and  N_5 
REMARK       I    between atoms: N_5  and  C_6 
REMARK       I    between atoms: C_6  and  N_16 
REMARK    2  A    between atoms: N_16  and  CA_17 
REMARK    3  A    between atoms: CA_17  and  C_18 
REMARK    4  A    between atoms: CA_17  and  CB_20 
REMARK    5  A    between atoms: C_18  and  O_19 
REMARK    6  A    between atoms: CB_20  and  CG_21 
ROOT
HETATM    1  N   UNK A   0      42.075 -11.704   5.140  1.00  0.00    -0.307 N 
HETATM    2  C   UNK A   0      41.934 -13.036   4.939  1.00  0.00     0.321 C 
HETATM    3  O   UNK A   0      41.564 -13.447   3.839  1.00  0.00    -0.247 OA
HETATM    4  H   UNK A   0      42.013 -11.173   4.273  1.00  0.00     0.170 HD
ATOM      5  N   TRP A   1      42.246 -13.874   5.963  1.00  0.00    -0.336 N 
ATOM      6  H   TRP A   1      42.984 -13.547   6.572  1.00  0.00     0.164 HD
ENDROOT
BRANCH   5   7
ATOM      7  CA  TRP A   1      42.214 -15.332   5.788  1.00  0.00     0.114 C 
BRANCH   7   8
ATOM      8  C   TRP A   1      41.775 -15.985   7.109  1.00  0.00     0.189 C 
BRANCH   8   9
ATOM      9  O   TRP A   1      42.866 -16.053   8.031  1.00  0.00    -0.399 OA
ATOM     10  H   TRP A   1      42.469 -16.101   8.918  1.00  0.00     0.209 HD
ENDBRANCH   8   9
ENDBRANCH   7   8
BRANCH   7  11
ATOM     11  CB  TRP A   1      43.584 -15.848   5.300  1.00  0.00     0.068 C 
BRANCH  11  12
ATOM     12  CG  TRP A   1      43.488 -16.803   4.148  1.00  0.00    -0.028 A 
ATOM     13  CD2 TRP A   1      43.676 -18.223   4.175  1.00  0.00    -0.002 A 
ATOM     14  CE2 TRP A   1      43.507 -18.690   2.871  1.00  0.00     0.042 A 
ATOM     15  CE3 TRP A   1      43.977 -19.155   5.188  1.00  0.00     0.014 A 
ATOM     16  CZ2 TRP A   1      43.627 -20.042   2.527  1.00  0.00     0.030 A 
ATOM     17  NE1 TRP A   1      43.229 -17.599   2.082  1.00  0.00    -0.365 N 
ATOM     18  CH2 TRP A   1      43.927 -20.945   3.551  1.00  0.00     0.002 A 
ATOM     19  CZ3 TRP A   1      44.099 -20.511   4.863  1.00  0.00     0.001 A 
ATOM     20  HE1 TRP A   1      43.070 -17.637   1.084  1.00  0.00     0.165 HD
ATOM     21  CD1 TRP A   1      43.213 -16.460   2.838  1.00  0.00     0.096 A 
ENDBRANCH  11  12
ENDBRANCH   7  11
ENDBRANCH   5   7
BRANCH   1  22
HETATM   22  C   UNK A   0      42.268 -10.880   6.274  1.00  0.00     0.066 A 
HETATM   23  C   UNK A   0      41.248 -10.154   6.900  1.00  0.00     0.038 A 
HETATM   24  C   UNK A   0      41.519  -9.368   8.026  1.00  0.00    -0.059 A 
HETATM   25  C   UNK A   0      40.430  -8.577   8.690  1.00  0.00     0.048 C 
HETATM   26  C   UNK A   0      42.834  -9.277   8.489  1.00  0.00     0.020 A 
HETATM   27  C   UNK A   0      43.871  -9.968   7.844  1.00  0.00    -0.005 A 
HETATM   28  C   UNK A   0      43.597 -10.779   6.723  1.00  0.00     0.093 A 
HETATM   29  C   UNK A   0      45.198  -9.868   8.285  1.00  0.00     0.015 A 
HETATM   30  N   UNK A   0      44.585 -11.450   6.080  1.00  0.00    -0.258 NA
HETATM   31  C   UNK A   0      45.850 -11.328   6.534  1.00  0.00     0.117 A 
HETATM   32  C   UNK A   0      46.205 -10.557   7.622  1.00  0.00     0.020 A 
ENDBRANCH   1  22
TORSDOF 6
ENDMDL
MODEL 4
REMARK VINA RESULT:      -9.1      4.133      8.596
REMARK  6 active torsions:
REMARK  status: ('A' for Active; 'I' for Inactive)
REMARK    1  A    between atoms: C_4  and  N_5 
REMARK       I    between atoms: N_5  and  C_6 
REMARK       I    between atoms: C_6  and  N_16 
REMARK    2  A    between atoms: N_16  and  CA_17 
REMARK    3  A    between atoms: CA_17  and  C_18 
REMARK    4  A    between atoms: CA_17  and  CB_20 
REMARK    5  A    between atoms: C_18  and  O_19 
REMARK    6  A    between atoms: CB_20  and  CG_21 
ROOT
HETATM    1  N   UNK A   0      39.362 -13.332   1.205  1.00  0.00    -0.307 N 
HETATM    2  C   UNK A   0      40.216 -13.653   2.207  1.00  0.00     0.321 C 
HETATM    3  O   UNK A   0      39.861 -13.505   3.376  1.00  0.00    -0.247 OA
HETATM    4  H   UNK A   0      38.418 -13.148   1.545  1.00  0.00     0.170 HD
ATOM      5  N   TRP A   1      41.430 -14.165   1.871  1.00  0.00    -0.336 N 
ATOM      6  H   TRP A   1      41.441 -14.715   1.023  1.00  0.00     0.164 HD
ENDROOT
BRANCH   5   7
ATOM      7  CA  TRP A   1      42.369 -14.629   2.901  1.00  0.00     0.114 C 
BRANCH   7   8
ATOM      8  C   TRP A   1      43.246 -13.448   3.347  1.00  0.00     0.189 C 
BRANCH   8   9
ATOM      9  O   TRP A   1      42.698 -12.817   4.507  1.00  0.00    -0.399 OA
ATOM     10  H   TRP A   1      43.455 -12.578   5.070  1.00  0.00     0.209 HD
ENDBRANCH   8   9
ENDBRANCH   7   8
BRANCH   7  11
ATOM     11  CB  TRP A   1      43.200 -15.819   2.378  1.00  0.00     0.068 C 
BRANCH  11  12
ATOM     12  CG  TRP A   1      43.534 -16.826   3.437  1.00  0.00    -0.028 A 
ATOM     13  CD2 TRP A   1      43.608 -18.250   3.295  1.00  0.00    -0.002 A 
ATOM     14  CE2 TRP A   1      43.932 -18.777   4.545  1.00  0.00     0.042 A 
ATOM     15  CE3 TRP A   1      43.425 -19.141   2.217  1.00  0.00     0.014 A 
ATOM     16  CZ2 TRP A   1      44.080 -20.151   4.774  1.00  0.00     0.030 A 
ATOM     17  NE1 TRP A   1      44.050 -17.719   5.414  1.00  0.00    -0.365 N 
ATOM     18  CH2 TRP A   1      43.894 -21.012   3.689  1.00  0.00     0.002 A 
ATOM     19  CZ3 TRP A   1      43.571 -20.517   2.428  1.00  0.00     0.001 A 
ATOM     20  HE1 TRP A   1      44.269 -17.804   6.397  1.00  0.00     0.165 HD
ATOM     21  CD1 TRP A   1      43.815 -16.542   4.759  1.00  0.00     0.096 A 
ENDBRANCH  11  12
ENDBRANCH   7  11
ENDBRANCH   5   7
BRANCH   1  22
HETATM   22  C   UNK A   0      39.479 -13.175  -0.196  1.00  0.00     0.066 A 
HETATM   23  C   UNK A   0      38.956 -14.075  -1.133  1.00  0.00     0.038 A 
HETATM   24  C   UNK A   0      39.106 -13.843  -2.505  1.00  0.00    -0.059 A 
HETATM   25  C   UNK A   0      38.559 -14.813  -3.511  1.00  0.00     0.048 C 
HETATM   26  C   UNK A   0      39.829 -12.725  -2.930  1.00  0.00     0.020 A 
HETATM   27  C   UNK A   0      40.393 -11.840  -1.998  1.00  0.00    -0.005 A 
HETATM   28  C   UNK A   0      40.224 -12.058  -0.615  1.00  0.00     0.093 A 
HETATM   29  C   UNK A   0      41.139 -10.726  -2.410  1.00  0.00     0.015 A 
HETATM   30  N   UNK A   0      40.765 -11.219   0.303  1.00  0.00    -0.258 NA
HETATM   31  C   UNK A   0      41.478 -10.159  -0.133  1.00  0.00     0.117 A 
HETATM   32  C   UNK A   0      41.692  -9.872  -1.466  1.00  0.00     0.020 A 
ENDBRANCH   1  22
TORSDOF 6
ENDMDL
MODEL 5
REMARK VINA RESULT:      -8.9      2.345      3.590
REMARK  6 active torsions:
REMARK  status: ('A' for Active; 'I' for Inactive)
REMARK    1  A    between atoms: C_4  and  N_5 
REMARK       I    between atoms: N_5  and  C_6 
REMARK       I    between atoms: C_6  and  N_16 
REMARK    2  A    between atoms: N_16  and  CA_17 
REMARK    3  A    between atoms: CA_17  and  C_18 
REMARK    4  A    between atoms: CA_17  and  CB_20 
REMARK    5  A    between atoms: C_18  and  O_19 
REMARK    6  A    between atoms: CB_20  and  CG_21 
ROOT
HETATM    1  N   UNK A   0      40.685 -15.314   3.602  1.00  0.00    -0.307 N 
HETATM    2  C   UNK A   0      40.655 -13.987   3.328  1.00  0.00     0.321 C 
HETATM    3  O   UNK A   0      39.587 -13.454   3.026  1.00  0.00    -0.247 OA
HETATM    4  H   UNK A   0      39.750 -15.711   3.690  1.00  0.00     0.170 HD
ATOM      5  N   TRP A   1      41.815 -13.286   3.437  1.00  0.00    -0.336 N 
ATOM      6  H   TRP A   1      42.454 -13.625   4.143  1.00  0.00     0.164 HD
ENDROOT
BRANCH   5   7
ATOM      7  CA  TRP A   1      41.841 -11.828   3.254  1.00  0.00     0.114 C 
BRANCH   7   8
ATOM      8  C   TRP A   1      41.732 -11.511   1.754  1.00  0.00     0.189 C 
BRANCH   8   9
ATOM      9  O   TRP A   1      42.266 -10.215   1.468  1.00  0.00    -0.399 OA
ATOM     10  H   TRP A   1      41.624  -9.780   0.880  1.00  0.00     0.209 HD
ENDBRANCH   8   9
ENDBRANCH   7   8
BRANCH   7  11
ATOM     11  CB  TRP A   1      43.108 -11.226   3.896  1.00  0.00     0.068 C 
BRANCH  11  12
ATOM     12  CG  TRP A   1      42.951 -10.922   5.356  1.00  0.00    -0.028 A 
ATOM     13  CD2 TRP A   1      43.982 -10.856   6.349  1.00  0.00    -0.002 A 
ATOM     14  CE2 TRP A   1      43.369 -10.563   7.567  1.00  0.00     0.042 A 
ATOM     15  CE3 TRP A   1      45.382 -11.021   6.324  1.00  0.00     0.014 A 
ATOM     16  CZ2 TRP A   1      44.084 -10.430   8.764  1.00  0.00     0.030 A 
ATOM     17  NE1 TRP A   1      42.019 -10.457   7.327  1.00  0.00    -0.365 N 
ATOM     18  CH2 TRP A   1      45.471 -10.598   8.711  1.00  0.00     0.002 A 
ATOM     19  CZ3 TRP A   1      46.113 -10.890   7.510  1.00  0.00     0.001 A 
ATOM     20  HE1 TRP A   1      41.325 -10.260   8.034  1.00  0.00     0.165 HD
ATOM     21  CD1 TRP A   1      41.757 -10.669   6.003  1.00  0.00     0.096 A 
ENDBRANCH  11  12
ENDBRANCH   7  11
ENDBRANCH   5   7
BRANCH   1  22
HETATM   22  C   UNK A   0      41.708 -16.275   3.775  1.00  0.00     0.066 A 
HETATM   23  C   UNK A   0      42.097 -17.192   2.791  1.00  0.00     0.038 A 
HETATM   24  C   UNK A   0      43.128 -18.107   3.037  1.00  0.00    -0.059 A 
HETATM   25  C   UNK A   0      43.538 -19.101   1.990  1.00  0.00     0.048 C 
HETATM   26  C   UNK A   0      43.731 -18.127   4.297  1.00  0.00     0.020 A 
HETATM   27  C   UNK A   0      43.319 -17.240   5.303  1.00  0.00    -0.005 A 
HETATM   28  C   UNK A   0      42.297 -16.302   5.052  1.00  0.00     0.093 A 
HETATM   29  C   UNK A   0      43.901 -17.264   6.579  1.00  0.00     0.015 A 
HETATM   30  N   UNK A   0      41.879 -15.439   6.011  1.00  0.00    -0.258 NA
HETATM   31  C   UNK A   0      42.463 -15.494   7.227  1.00  0.00     0.117 A 
HETATM   32  C   UNK A   0      43.468 -16.380   7.558  1.00  0.00     0.020 A 
ENDBRANCH   1  22
TORSDOF 6
ENDMDL
MODEL 6
REMARK VINA RESULT:      -8.8      2.136      8.856
REMARK  6 active torsions:
REMARK  status: ('A' for Active; 'I' for Inactive)
REMARK    1  A    between atoms: C_4  and  N_5 
REMARK       I    between atoms: N_5  and  C_6 
REMARK       I    between atoms: C_6  and  N_16 
REMARK    2  A    between atoms: N_16  and  CA_17 
REMARK    3  A    between atoms: CA_17  and  C_18 
REMARK    4  A    between atoms: CA_17  and  CB_20 
REMARK    5  A    between atoms: C_18  and  O_19 
REMARK    6  A    between atoms: CB_20  and  CG_21 
ROOT
HETATM    1  N   UNK A   0      41.787 -10.071   7.365  1.00  0.00    -0.307 N 
HETATM    2  C   UNK A   0      41.328 -11.148   6.682  1.00  0.00     0.321 C 
HETATM    3  O   UNK A   0      40.168 -11.155   6.271  1.00  0.00    -0.247 OA
HETATM    4  H   UNK A   0      41.144  -9.282   7.320  1.00  0.00     0.170 HD
ATOM      5  N   TRP A   1      42.192 -12.171   6.446  1.00  0.00    -0.336 N 
ATOM      6  H   TRP A   1      43.158 -11.896   6.333  1.00  0.00     0.164 HD
ENDROOT
BRANCH   5   7
ATOM      7  CA  TRP A   1      41.797 -13.325   5.628  1.00  0.00     0.114 C 
BRANCH   7   8
ATOM      8  C   TRP A   1      40.930 -14.268   6.479  1.00  0.00     0.189 C 
BRANCH   8   9
ATOM      9  O   TRP A   1      39.542 -14.086   6.186  1.00  0.00    -0.399 OA
ATOM     10  H   TRP A   1      39.489 -13.329   5.577  1.00  0.00     0.209 HD
ENDBRANCH   8   9
ENDBRANCH   7   8
BRANCH   7  11
ATOM     11  CB  TRP A   1      43.042 -14.029   5.049  1.00  0.00     0.068 C 
BRANCH  11  12
ATOM     12  CG  TRP A   1      42.719 -15.031   3.981  1.00  0.00    -0.028 A 
ATOM     13  CD2 TRP A   1      43.203 -16.375   3.871  1.00  0.00    -0.002 A 
ATOM     14  CE2 TRP A   1      42.653 -16.923   2.712  1.00  0.00     0.042 A 
ATOM     15  CE3 TRP A   1      44.063 -17.176   4.650  1.00  0.00     0.014 A 
ATOM     16  CZ2 TRP A   1      42.920 -18.231   2.290  1.00  0.00     0.030 A 
ATOM     17  NE1 TRP A   1      41.867 -15.952   2.138  1.00  0.00    -0.365 N 
ATOM     18  CH2 TRP A   1      43.776 -19.004   3.081  1.00  0.00     0.002 A 
ATOM     19  CZ3 TRP A   1      44.340 -18.487   4.244  1.00  0.00     0.001 A 
ATOM     20  HE1 TRP A   1      41.350 -16.067   1.277  1.00  0.00     0.165 HD
ATOM     21  CD1 TRP A   1      41.897 -14.813   2.892  1.00  0.00     0.096 A 
ENDBRANCH  11  12
ENDBRANCH   7  11
ENDBRANCH   5   7
BRANCH   1  22
HETATM   22  C   UNK A   0      42.940  -9.796   8.136  1.00  0.00     0.066 A 
HETATM   23  C   UNK A   0      44.247  -9.835   7.636  1.00  0.00     0.038 A 
HETATM   24  C   UNK A   0      45.337  -9.539   8.463  1.00  0.00    -0.059 A 
HETATM   25  C   UNK A   0      46.740  -9.595   7.934  1.00  0.00     0.048 C 
HETATM   26  C   UNK A   0      45.107  -9.251   9.811  1.00  0.00     0.020 A 
HETATM   27  C   UNK A   0      43.804  -9.250  10.332  1.00  0.00    -0.005 A 
HETATM   28  C   UNK A   0      42.702  -9.525   9.496  1.00  0.00     0.093 A 
HETATM   29  C   UNK A   0      43.562  -8.984  11.687  1.00  0.00     0.015 A 
HETATM   30  N   UNK A   0      41.435  -9.536   9.979  1.00  0.00    -0.258 NA
HETATM   31  C   UNK A   0      41.242  -9.276  11.290  1.00  0.00     0.117 A 
HETATM   32  C   UNK A   0      42.262  -8.998  12.176  1.00  0.00     0.020 A 
ENDBRANCH   1  22
TORSDOF 6
ENDMDL
MODEL 7
REMARK VINA RESULT:      -8.7      1.850      8.666
REMARK  6 active torsions:
REMARK  status: ('A' for Active; 'I' for Inactive)
REMARK    1  A    between atoms: C_4  and  N_5 
REMARK       I    between atoms: N_5  and  C_6 
REMARK       I    between atoms: C_6  and  N_16 
REMARK    2  A    between atoms: N_16  and  CA_17 
REMARK    3  A    between atoms: CA_17  and  C_18 
REMARK    4  A    between atoms: CA_17  and  CB_20 
REMARK    5  A    between atoms: C_18  and  O_19 
REMARK    6  A    between atoms: CB_20  and  CG_21 
ROOT
HETATM    1  N   UNK A   0      42.018 -10.007   6.567  1.00  0.00    -0.307 N 
HETATM    2  C   UNK A   0      41.997 -11.184   5.896  1.00  0.00     0.321 C 
HETATM    3  O   UNK A   0      41.955 -11.179   4.666  1.00  0.00    -0.247 OA
HETATM    4  H   UNK A   0      42.168  -9.212   5.948  1.00  0.00     0.170 HD
ATOM      5  N   TRP A   1      42.060 -12.333   6.620  1.00  0.00    -0.336 N 
ATOM      6  H   TRP A   1      42.592 -12.269   7.477  1.00  0.00     0.164 HD
ENDROOT
BRANCH   5   7
ATOM      7  CA  TRP A   1      42.143 -13.643   5.959  1.00  0.00     0.114 C 
BRANCH   7   8
ATOM      8  C   TRP A   1      40.945 -14.501   6.398  1.00  0.00     0.189 C 
BRANCH   8   9
ATOM      9  O   TRP A   1      39.817 -13.679   6.710  1.00  0.00    -0.399 OA
ATOM     10  H   TRP A   1      39.032 -14.245   6.609  1.00  0.00     0.209 HD
ENDBRANCH   8   9
ENDBRANCH   7   8
BRANCH   7  11
ATOM     11  CB  TRP A   1      43.497 -14.317   6.263  1.00  0.00     0.068 C 
BRANCH  11  12
ATOM     12  CG  TRP A   1      43.578 -15.736   5.786  1.00  0.00    -0.028 A 
ATOM     13  CD2 TRP A   1      43.446 -16.213   4.441  1.00  0.00    -0.002 A 
ATOM     14  CE2 TRP A   1      43.573 -17.602   4.477  1.00  0.00     0.042 A 
ATOM     15  CE3 TRP A   1      43.227 -15.590   3.195  1.00  0.00     0.014 A 
ATOM     16  CZ2 TRP A   1      43.490 -18.401   3.330  1.00  0.00     0.030 A 
ATOM     17  NE1 TRP A   1      43.773 -17.957   5.790  1.00  0.00    -0.365 N 
ATOM     18  CH2 TRP A   1      43.272 -17.759   2.108  1.00  0.00     0.002 A 
ATOM     19  CZ3 TRP A   1      43.142 -16.374   2.038  1.00  0.00     0.001 A 
ATOM     20  HE1 TRP A   1      43.888 -18.907   6.116  1.00  0.00     0.165 HD
ATOM     21  CD1 TRP A   1      43.779 -16.845   6.584  1.00  0.00     0.096 A 
ENDBRANCH  11  12
ENDBRANCH   7  11
ENDBRANCH   5   7
BRANCH   1  22
HETATM   22  C   UNK A   0      41.863  -9.626   7.921  1.00  0.00     0.066 A 
HETATM   23  C   UNK A   0      40.663  -9.161   8.472  1.00  0.00     0.038 A 
HETATM   24  C   UNK A   0      40.588  -8.813   9.826  1.00  0.00    -0.059 A 
HETATM   25  C   UNK A   0      39.308  -8.300  10.417  1.00  0.00     0.048 C 
HETATM   26  C   UNK A   0      41.742  -8.888  10.611  1.00  0.00     0.020 A 
HETATM   27  C   UNK A   0      42.959  -9.314  10.058  1.00  0.00    -0.005 A 
HETATM   28  C   UNK A   0      43.033  -9.687   8.700  1.00  0.00     0.093 A 
HETATM   29  C   UNK A   0      44.129  -9.373  10.829  1.00  0.00     0.015 A 
HETATM   30  N   UNK A   0      44.200 -10.095   8.142  1.00  0.00    -0.258 NA
HETATM   31  C   UNK A   0      45.304 -10.138   8.917  1.00  0.00     0.117 A 
HETATM   32  C   UNK A   0      45.321  -9.790  10.252  1.00  0.00     0.020 A 
ENDBRANCH   1  22
TORSDOF 6
ENDMDL
MODEL 8
REMARK VINA RESULT:      -8.7      3.108      7.496
REMARK  6 active torsions:
REMARK  status: ('A' for Active; 'I' for Inactive)
REMARK    1  A    between atoms: C_4  and  N_5 
REMARK       I    between atoms: N_5  and  C_6 
REMARK       I    between atoms: C_6  and  N_16 
REMARK    2  A    between atoms: N_16  and  CA_17 
REMARK    3  A    between atoms: CA_17  and  C_18 
REMARK    4  A    between atoms: CA_17  and  CB_20 
REMARK    5  A    between atoms: C_18  and  O_19 
REMARK    6  A    between atoms: CB_20  and  CG_21 
ROOT
HETATM    1  N   UNK A   0      39.281 -12.899   4.196  1.00  0.00    -0.307 N 
HETATM    2  C   UNK A   0      40.178 -13.413   5.071  1.00  0.00     0.321 C 
HETATM    3  O   UNK A   0      39.795 -13.800   6.175  1.00  0.00    -0.247 OA
HETATM    4  H   UNK A   0      38.318 -13.044   4.498  1.00  0.00     0.170 HD
ATOM      5  N   TRP A   1      41.474 -13.514   4.672  1.00  0.00    -0.336 N 
ATOM      6  H   TRP A   1      41.604 -13.681   3.683  1.00  0.00     0.164 HD
ENDROOT
BRANCH   5   7
ATOM      7  CA  TRP A   1      42.484 -14.153   5.526  1.00  0.00     0.114 C 
BRANCH   7   8
ATOM      8  C   TRP A   1      43.414 -13.070   6.096  1.00  0.00     0.189 C 
BRANCH   8   9
ATOM      9  O   TRP A   1      43.036 -12.726   7.432  1.00  0.00    -0.399 OA
ATOM     10  H   TRP A   1      43.049 -11.754   7.477  1.00  0.00     0.209 HD
ENDBRANCH   8   9
ENDBRANCH   7   8
BRANCH   7  11
ATOM     11  CB  TRP A   1      43.250 -15.237   4.740  1.00  0.00     0.068 C 
BRANCH  11  12
ATOM     12  CG  TRP A   1      43.361 -16.541   5.472  1.00  0.00    -0.028 A 
ATOM     13  CD2 TRP A   1      43.581 -17.840   4.910  1.00  0.00    -0.002 A 
ATOM     14  CE2 TRP A   1      43.593 -18.753   5.965  1.00  0.00     0.042 A 
ATOM     15  CE3 TRP A   1      43.769 -18.325   3.600  1.00  0.00     0.014 A 
ATOM     16  CZ2 TRP A   1      43.780 -20.128   5.776  1.00  0.00     0.030 A 
ATOM     17  NE1 TRP A   1      43.386 -18.040   7.122  1.00  0.00    -0.365 N 
ATOM     18  CH2 TRP A   1      43.964 -20.583   4.467  1.00  0.00     0.002 A 
ATOM     19  CZ3 TRP A   1      43.959 -19.696   3.393  1.00  0.00     0.001 A 
ATOM     20  HE1 TRP A   1      43.336 -18.446   8.046  1.00  0.00     0.165 HD
ATOM     21  CD1 TRP A   1      43.248 -16.710   6.838  1.00  0.00     0.096 A 
ENDBRANCH  11  12
ENDBRANCH   7  11
ENDBRANCH   5   7
BRANCH   1  22
HETATM   22  C   UNK A   0      39.370 -12.193   2.973  1.00  0.00     0.066 A 
HETATM   23  C   UNK A   0      39.161 -10.814   2.847  1.00  0.00     0.038 A 
HETATM   24  C   UNK A   0      39.278 -10.187   1.600  1.00  0.00    -0.059 A 
HETATM   25  C   UNK A   0      39.041  -8.712   1.459  1.00  0.00     0.048 C 
HETATM   26  C   UNK A   0      39.556 -10.964   0.473  1.00  0.00     0.020 A 
HETATM   27  C   UNK A   0      39.725 -12.352   0.583  1.00  0.00    -0.005 A 
HETATM   28  C   UNK A   0      39.631 -12.984   1.840  1.00  0.00     0.093 A 
HETATM   29  C   UNK A   0      39.984 -13.147  -0.543  1.00  0.00     0.015 A 
HETATM   30  N   UNK A   0      39.785 -14.325   1.969  1.00  0.00    -0.258 NA
HETATM   31  C   UNK A   0      40.031 -15.056   0.861  1.00  0.00     0.117 A 
HETATM   32  C   UNK A   0      40.138 -14.519  -0.405  1.00  0.00     0.020 A 
ENDBRANCH   1  22
TORSDOF 6
ENDMDL
MODEL 9
REMARK VINA RESULT:      -8.6      2.322      8.854
REMARK  6 active torsions:
REMARK  status: ('A' for Active; 'I' for Inactive)
REMARK    1  A    between atoms: C_4  and  N_5 
REMARK       I    between atoms: N_5  and  C_6 
REMARK       I    between atoms: C_6  and  N_16 
REMARK    2  A    between atoms: N_16  and  CA_17 
REMARK    3  A    between atoms: CA_17  and  C_18 
REMARK    4  A    between atoms: CA_17  and  CB_20 
REMARK    5  A    between atoms: C_18  and  O_19 
REMARK    6  A    between atoms: CB_20  and  CG_21 
ROOT
HETATM    1  N   UNK A   0      45.049  -9.992   8.234  1.00  0.00    -0.307 N 
HETATM    2  C   UNK A   0      45.043 -10.832   7.171  1.00  0.00     0.321 C 
HETATM    3  O   UNK A   0      46.110 -11.260   6.730  1.00  0.00    -0.247 OA
HETATM    4  H   UNK A   0      45.967  -9.933   8.675  1.00  0.00     0.170 HD
ATOM      5  N   TRP A   1      43.841 -11.198   6.653  1.00  0.00    -0.336 N 
ATOM      6  H   TRP A   1      43.086 -11.253   7.324  1.00  0.00     0.164 HD
ENDROOT
BRANCH   5   7
ATOM      7  CA  TRP A   1      43.750 -12.181   5.566  1.00  0.00     0.114 C 
BRANCH   7   8
ATOM      8  C   TRP A   1      43.534 -11.439   4.237  1.00  0.00     0.189 C 
BRANCH   8   9
ATOM      9  O   TRP A   1      44.700 -11.518   3.414  1.00  0.00    -0.399 OA
ATOM     10  H   TRP A   1      45.225 -10.722   3.609  1.00  0.00     0.209 HD
ENDBRANCH   8   9
ENDBRANCH   7   8
BRANCH   7  11
ATOM     11  CB  TRP A   1      42.636 -13.209   5.858  1.00  0.00     0.068 C 
BRANCH  11  12
ATOM     12  CG  TRP A   1      43.029 -14.622   5.546  1.00  0.00    -0.028 A 
ATOM     13  CD2 TRP A   1      43.037 -15.262   4.265  1.00  0.00    -0.002 A 
ATOM     14  CE2 TRP A   1      43.455 -16.579   4.460  1.00  0.00     0.042 A 
ATOM     15  CE3 TRP A   1      42.722 -14.845   2.955  1.00  0.00     0.014 A 
ATOM     16  CZ2 TRP A   1      43.574 -17.501   3.412  1.00  0.00     0.030 A 
ATOM     17  NE1 TRP A   1      43.692 -16.735   5.805  1.00  0.00    -0.365 N 
ATOM     18  CH2 TRP A   1      43.256 -17.061   2.124  1.00  0.00     0.002 A 
ATOM     19  CZ3 TRP A   1      42.836 -15.753   1.896  1.00  0.00     0.001 A 
ATOM     20  HE1 TRP A   1      43.999 -17.595   6.238  1.00  0.00     0.165 HD
ATOM     21  CD1 TRP A   1      43.441 -15.565   6.467  1.00  0.00     0.096 A 
ENDBRANCH  11  12
ENDBRANCH   7  11
ENDBRANCH   5   7
BRANCH   1  22
HETATM   22  C   UNK A   0      44.086  -9.168   8.862  1.00  0.00     0.066 A 
HETATM   23  C   UNK A   0      43.613  -7.965   8.324  1.00  0.00     0.038 A 
HETATM   24  C   UNK A   0      42.650  -7.210   9.004  1.00  0.00    -0.059 A 
HETATM   25  C   UNK A   0      42.152  -5.913   8.438  1.00  0.00     0.048 C 
HETATM   26  C   UNK A   0      42.201  -7.648  10.253  1.00  0.00     0.020 A 
HETATM   27  C   UNK A   0      42.700  -8.831  10.819  1.00  0.00    -0.005 A 
HETATM   28  C   UNK A   0      43.654  -9.606  10.127  1.00  0.00     0.093 A 
HETATM   29  C   UNK A   0      42.274  -9.271  12.081  1.00  0.00     0.015 A 
HETATM   30  N   UNK A   0      44.154 -10.749  10.658  1.00  0.00    -0.258 NA
HETATM   31  C   UNK A   0      43.720 -11.139  11.875  1.00  0.00     0.117 A 
HETATM   32  C   UNK A   0      42.791 -10.442  12.620  1.00  0.00     0.020 A 
ENDBRANCH   1  22
TORSDOF 6
ENDMDL
MODEL 10
REMARK VINA RESULT:      -8.5      2.385      3.395
REMARK  6 active torsions:
REMARK  status: ('A' for Active; 'I' for Inactive)
REMARK    1  A    between atoms: C_4  and  N_5 
REMARK       I    between atoms: N_5  and  C_6 
REMARK       I    between atoms: C_6  and  N_16 
REMARK    2  A    between atoms: N_16  and  CA_17 
REMARK    3  A    between atoms: CA_17  and  C_18 
REMARK    4  A    between atoms: CA_17  and  CB_20 
REMARK    5  A    between atoms: C_18  and  O_19 
REMARK    6  A    between atoms: CB_20  and  CG_21 
ROOT
HETATM    1  N   UNK A   0      40.079 -14.147   4.936  1.00  0.00    -0.307 N 
HETATM    2  C   UNK A   0      40.053 -12.876   5.406  1.00  0.00     0.321 C 
HETATM    3  O   UNK A   0      39.393 -12.614   6.410  1.00  0.00    -0.247 OA
HETATM    4  H   UNK A   0      39.662 -14.809   5.589  1.00  0.00     0.170 HD
ATOM      5  N   TRP A   1      40.797 -11.941   4.758  1.00  0.00    -0.336 N 
ATOM      6  H   TRP A   1      41.648 -12.289   4.336  1.00  0.00     0.164 HD
ENDROOT
BRANCH   5   7
ATOM      7  CA  TRP A   1      40.899 -10.566   5.266  1.00  0.00     0.114 C 
BRANCH   7   8
ATOM      8  C   TRP A   1      40.509  -9.589   4.145  1.00  0.00     0.189 C 
BRANCH   8   9
ATOM      9  O   TRP A   1      41.667  -8.961   3.590  1.00  0.00    -0.399 OA
ATOM     10  H   TRP A   1      41.655  -9.160   2.638  1.00  0.00     0.209 HD
ENDBRANCH   8   9
ENDBRANCH   7   8
BRANCH   7  11
ATOM     11  CB  TRP A   1      42.314 -10.297   5.819  1.00  0.00     0.068 C 
BRANCH  11  12
ATOM     12  CG  TRP A   1      42.330  -9.967   7.282  1.00  0.00    -0.028 A 
ATOM     13  CD2 TRP A   1      43.466  -9.927   8.154  1.00  0.00    -0.002 A 
ATOM     14  CE2 TRP A   1      43.003  -9.594   9.427  1.00  0.00     0.042 A 
ATOM     15  CE3 TRP A   1      44.848 -10.147   7.979  1.00  0.00     0.014 A 
ATOM     16  CZ2 TRP A   1      43.850  -9.472  10.535  1.00  0.00     0.030 A 
ATOM     17  NE1 TRP A   1      41.640  -9.439   9.335  1.00  0.00    -0.365 N 
ATOM     18  CH2 TRP A   1      45.215  -9.695  10.334  1.00  0.00     0.002 A 
ATOM     19  CZ3 TRP A   1      45.710 -10.028   9.075  1.00  0.00     0.001 A 
ATOM     20  HE1 TRP A   1      41.035  -9.205  10.110  1.00  0.00     0.165 HD
ATOM     21  CD1 TRP A   1      41.225  -9.659   8.051  1.00  0.00     0.096 A 
ENDBRANCH  11  12
ENDBRANCH   7  11
ENDBRANCH   5   7
BRANCH   1  22
HETATM   22  C   UNK A   0      40.534 -14.763   3.747  1.00  0.00     0.066 A 
HETATM   23  C   UNK A   0      39.988 -14.521   2.480  1.00  0.00     0.038 A 
HETATM   24  C   UNK A   0      40.502 -15.165   1.348  1.00  0.00    -0.059 A 
HETATM   25  C   UNK A   0      39.910 -14.920  -0.009  1.00  0.00     0.048 C 
HETATM   26  C   UNK A   0      41.536 -16.092   1.505  1.00  0.00     0.020 A 
HETATM   27  C   UNK A   0      42.061 -16.372   2.775  1.00  0.00    -0.005 A 
HETATM   28  C   UNK A   0      41.561 -15.709   3.915  1.00  0.00     0.093 A 
HETATM   29  C   UNK A   0      43.083 -17.316   2.949  1.00  0.00     0.015 A 
HETATM   30  N   UNK A   0      42.050 -15.968   5.153  1.00  0.00    -0.258 NA
HETATM   31  C   UNK A   0      43.033 -16.884   5.280  1.00  0.00     0.117 A 
HETATM   32  C   UNK A   0      43.578 -17.578   4.220  1.00  0.00     0.020 A 
ENDBRANCH   1  22
TORSDOF 6
ENDMDL
