MODEL 1
REMARK VINA RESULT:      -8.0      0.000      0.000
REMARK  5 active torsions:
REMARK  status: ('A' for Active; 'I' for Inactive)
REMARK       I    between atoms: C_2  and  N_3 
REMARK    1  A    between atoms: C_2  and  O_16 
REMARK    2  A    between atoms: N_3  and  C_4 
REMARK    3  A    between atoms: C_7  and  C_10 
REMARK    4  A    between atoms: O_16  and  C_17 
REMARK    5  A    between atoms: C_17  and  C_18 
ROOT
HETATM    1  C   UNL     1      41.383 -15.120   2.118  1.00  0.00     0.036 A 
HETATM    2  C   UNL     1      41.599 -13.875   1.529  1.00  0.00     0.030 A 
HETATM    3  C   UNL     1      40.916 -13.511   0.362  1.00  0.00     0.014 A 
HETATM    4  C   UNL     1      40.004 -14.386  -0.241  1.00  0.00    -0.023 A 
HETATM    5  C   UNL     1      39.779 -15.629   0.360  1.00  0.00     0.014 A 
HETATM    6  C   UNL     1      40.458 -15.990   1.531  1.00  0.00     0.030 A 
ENDROOT
BRANCH   1   7
HETATM    7  N   UNL     1      42.056 -15.573   3.265  1.00  0.00    -0.303 N 
HETATM    8  C   UNL     1      41.527 -16.116   4.403  1.00  0.00     0.365 C 
HETATM    9  O   UNL     1      40.356 -16.375   4.634  1.00  0.00    -0.238 OA
HETATM   10  H   UNL     1      43.058 -15.455   3.308  1.00  0.00     0.171 HD
BRANCH   8  11
HETATM   11  O   UNL     1      42.542 -16.305   5.284  1.00  0.00    -0.299 OA
BRANCH  11  12
HETATM   12  C   UNL     1      43.808 -16.673   4.720  1.00  0.00     0.219 C 
BRANCH  12  13
HETATM   13  C   UNL     1      43.831 -18.156   4.460  1.00  0.00    -0.034 A 
HETATM   14  C   UNL     1      43.788 -18.654   3.150  1.00  0.00     0.009 A 
HETATM   15  C   UNL     1      43.816 -20.030   2.916  1.00  0.00     0.001 A 
HETATM   16  C   UNL     1      43.879 -20.919   3.988  1.00  0.00     0.000 A 
HETATM   17  C   UNL     1      43.906 -20.434   5.295  1.00  0.00     0.001 A 
HETATM   18  C   UNL     1      43.877 -19.059   5.530  1.00  0.00     0.009 A 
ENDBRANCH  12  13
ENDBRANCH  11  12
ENDBRANCH   8  11
ENDBRANCH   1   7
BRANCH   4  19
HETATM   19  C   UNL     1      39.318 -14.032  -1.471  1.00  0.00     0.010 A 
HETATM   20  C   UNL     1      39.080 -14.784  -2.646  1.00  0.00     0.152 A 
HETATM   21  N   UNL     1      38.399 -14.101  -3.571  1.00  0.00    -0.187 NA
HETATM   22  N   UNL     1      38.197 -12.908  -2.991  1.00  0.00    -0.289 N 
HETATM   23  H   UNL     1      37.688 -12.200  -3.512  1.00  0.00     0.188 HD
HETATM   24  C   UNL     1      38.724 -12.815  -1.736  1.00  0.00     0.123 A 
ENDBRANCH   4  19
TORSDOF 5
ENDMDL
MODEL 2
REMARK VINA RESULT:      -8.0      4.927      8.246
REMARK  5 active torsions:
REMARK  status: ('A' for Active; 'I' for Inactive)
REMARK       I    between atoms: C_2  and  N_3 
REMARK    1  A    between atoms: C_2  and  O_16 
REMARK    2  A    between atoms: N_3  and  C_4 
REMARK    3  A    between atoms: C_7  and  C_10 
REMARK    4  A    between atoms: O_16  and  C_17 
REMARK    5  A    between atoms: C_17  and  C_18 
ROOT
HETATM    1  C   UNL     1      43.446 -15.250   5.242  1.00  0.00     0.036 A 
HETATM    2  C   UNL     1      43.011 -15.585   3.961  1.00  0.00     0.030 A 
HETATM    3  C   UNL     1      43.119 -16.901   3.493  1.00  0.00     0.014 A 
HETATM    4  C   UNL     1      43.666 -17.908   4.297  1.00  0.00    -0.023 A 
HETATM    5  C   UNL     1      44.090 -17.572   5.588  1.00  0.00     0.014 A 
HETATM    6  C   UNL     1      43.976 -16.257   6.057  1.00  0.00     0.030 A 
ENDROOT
BRANCH   1   7
HETATM    7  N   UNL     1      43.408 -13.948   5.770  1.00  0.00    -0.303 N 
HETATM    8  C   UNL     1      42.316 -13.167   6.026  1.00  0.00     0.365 C 
HETATM    9  O   UNL     1      41.138 -13.464   5.902  1.00  0.00    -0.238 OA
HETATM   10  H   UNL     1      44.284 -13.481   5.951  1.00  0.00     0.171 HD
BRANCH   8  11
HETATM   11  O   UNL     1      42.762 -11.949   6.427  1.00  0.00    -0.299 OA
BRANCH  11  12
HETATM   12  C   UNL     1      44.179 -11.741   6.356  1.00  0.00     0.219 C 
BRANCH  12  13
HETATM   13  C   UNL     1      44.628 -10.930   7.543  1.00  0.00    -0.034 A 
HETATM   14  C   UNL     1      43.914 -10.971   8.749  1.00  0.00     0.009 A 
HETATM   15  C   UNL     1      44.340 -10.222   9.848  1.00  0.00     0.001 A 
HETATM   16  C   UNL     1      45.475  -9.420   9.748  1.00  0.00     0.000 A 
HETATM   17  C   UNL     1      46.182  -9.359   8.548  1.00  0.00     0.001 A 
HETATM   18  C   UNL     1      45.758 -10.107   7.449  1.00  0.00     0.009 A 
ENDBRANCH  12  13
ENDBRANCH  11  12
ENDBRANCH   8  11
ENDBRANCH   1   7
BRANCH   4  19
HETATM   19  C   UNL     1      43.815 -19.267   3.808  1.00  0.00     0.010 A 
HETATM   20  C   UNL     1      43.691 -19.799   2.502  1.00  0.00     0.152 A 
HETATM   21  N   UNL     1      43.910 -21.116   2.454  1.00  0.00    -0.187 NA
HETATM   22  N   UNL     1      44.175 -21.434   3.731  1.00  0.00    -0.289 N 
HETATM   23  H   UNL     1      44.378 -22.404   3.952  1.00  0.00     0.188 HD
HETATM   24  C   UNL     1      44.133 -20.366   4.579  1.00  0.00     0.123 A 
ENDBRANCH   4  19
TORSDOF 5
ENDMDL
MODEL 3
REMARK VINA RESULT:      -7.9      4.712      7.291
REMARK  5 active torsions:
REMARK  status: ('A' for Active; 'I' for Inactive)
REMARK       I    between atoms: C_2  and  N_3 
REMARK    1  A    between atoms: C_2  and  O_16 
REMARK    2  A    between atoms: N_3  and  C_4 
REMARK    3  A    between atoms: C_7  and  C_10 
REMARK    4  A    between atoms: O_16  and  C_17 
REMARK    5  A    between atoms: C_17  and  C_18 
ROOT
HETATM    1  C   UNL     1      43.249 -13.597   5.206  1.00  0.00     0.036 A 
HETATM    2  C   UNL     1      43.575 -13.724   6.556  1.00  0.00     0.030 A 
HETATM    3  C   UNL     1      43.989 -12.608   7.296  1.00  0.00     0.014 A 
HETATM    4  C   UNL     1      44.086 -11.345   6.700  1.00  0.00    -0.023 A 
HETATM    5  C   UNL     1      43.745 -11.219   5.349  1.00  0.00     0.014 A 
HETATM    6  C   UNL     1      43.327 -12.333   4.611  1.00  0.00     0.030 A 
ENDROOT
BRANCH   1   7
HETATM    7  N   UNL     1      42.864 -14.673   4.388  1.00  0.00    -0.303 N 
HETATM    8  C   UNL     1      41.683 -15.362   4.390  1.00  0.00     0.365 C 
HETATM    9  O   UNL     1      40.691 -15.145   5.068  1.00  0.00    -0.238 OA
HETATM   10  H   UNL     1      43.540 -15.041   3.734  1.00  0.00     0.171 HD
BRANCH   8  11
HETATM   11  O   UNL     1      41.799 -16.385   3.505  1.00  0.00    -0.299 OA
BRANCH  11  12
HETATM   12  C   UNL     1      43.125 -16.674   3.043  1.00  0.00     0.219 C 
BRANCH  12  13
HETATM   13  C   UNL     1      43.410 -18.143   3.219  1.00  0.00    -0.034 A 
HETATM   14  C   UNL     1      43.945 -18.630   4.419  1.00  0.00     0.009 A 
HETATM   15  C   UNL     1      44.199 -19.994   4.578  1.00  0.00     0.001 A 
HETATM   16  C   UNL     1      43.930 -20.879   3.536  1.00  0.00     0.000 A 
HETATM   17  C   UNL     1      43.413 -20.402   2.332  1.00  0.00     0.001 A 
HETATM   18  C   UNL     1      43.158 -19.040   2.173  1.00  0.00     0.009 A 
ENDBRANCH  12  13
ENDBRANCH  11  12
ENDBRANCH   8  11
ENDBRANCH   1   7
BRANCH   4  19
HETATM   19  C   UNL     1      44.548 -10.190   7.449  1.00  0.00     0.010 A 
HETATM   20  C   UNL     1      45.858  -9.750   7.756  1.00  0.00     0.152 A 
HETATM   21  N   UNL     1      45.873  -8.623   8.473  1.00  0.00    -0.187 NA
HETATM   22  N   UNL     1      44.572  -8.336   8.630  1.00  0.00    -0.289 N 
HETATM   23  H   UNL     1      44.323  -7.503   9.154  1.00  0.00     0.188 HD
HETATM   24  C   UNL     1      43.739  -9.239   8.035  1.00  0.00     0.123 A 
ENDBRANCH   4  19
TORSDOF 5
ENDMDL
MODEL 4
REMARK VINA RESULT:      -7.8      6.046      8.903
REMARK  5 active torsions:
REMARK  status: ('A' for Active; 'I' for Inactive)
REMARK       I    between atoms: C_2  and  N_3 
REMARK    1  A    between atoms: C_2  and  O_16 
REMARK    2  A    between atoms: N_3  and  C_4 
REMARK    3  A    between atoms: C_7  and  C_10 
REMARK    4  A    between atoms: O_16  and  C_17 
REMARK    5  A    between atoms: C_17  and  C_18 
ROOT
HETATM    1  C   UNL     1      43.471 -14.537   6.351  1.00  0.00     0.036 A 
HETATM    2  C   UNL     1      42.714 -14.529   5.180  1.00  0.00     0.030 A 
HETATM    3  C   UNL     1      42.714 -15.640   4.326  1.00  0.00     0.014 A 
HETATM    4  C   UNL     1      43.471 -16.778   4.624  1.00  0.00    -0.023 A 
HETATM    5  C   UNL     1      44.219 -16.788   5.807  1.00  0.00     0.014 A 
HETATM    6  C   UNL     1      44.215 -15.680   6.664  1.00  0.00     0.030 A 
ENDROOT
BRANCH   1   7
HETATM    7  N   UNL     1      43.554 -13.451   7.239  1.00  0.00    -0.303 N 
HETATM    8  C   UNL     1      44.332 -12.331   7.140  1.00  0.00     0.365 C 
HETATM    9  O   UNL     1      45.076 -12.014   6.226  1.00  0.00    -0.238 OA
HETATM   10  H   UNL     1      43.019 -13.492   8.094  1.00  0.00     0.171 HD
BRANCH   8  11
HETATM   11  O   UNL     1      44.164 -11.609   8.278  1.00  0.00    -0.299 OA
BRANCH  11  12
HETATM   12  C   UNL     1      44.978 -10.436   8.408  1.00  0.00     0.219 C 
BRANCH  12  13
HETATM   13  C   UNL     1      44.334  -9.481   9.378  1.00  0.00    -0.034 A 
HETATM   14  C   UNL     1      43.816  -8.255   8.938  1.00  0.00     0.009 A 
HETATM   15  C   UNL     1      43.214  -7.377   9.842  1.00  0.00     0.001 A 
HETATM   16  C   UNL     1      43.132  -7.714  11.192  1.00  0.00     0.000 A 
HETATM   17  C   UNL     1      43.658  -8.924  11.642  1.00  0.00     0.001 A 
HETATM   18  C   UNL     1      44.260  -9.802  10.740  1.00  0.00     0.009 A 
ENDBRANCH  12  13
ENDBRANCH  11  12
ENDBRANCH   8  11
ENDBRANCH   1   7
BRANCH   4  19
HETATM   19  C   UNL     1      43.505 -17.920   3.727  1.00  0.00     0.010 A 
HETATM   20  C   UNL     1      44.070 -19.208   3.889  1.00  0.00     0.152 A 
HETATM   21  N   UNL     1      43.887 -19.993   2.825  1.00  0.00    -0.187 NA
HETATM   22  N   UNL     1      43.204 -19.211   1.974  1.00  0.00    -0.289 N 
HETATM   23  H   UNL     1      42.943 -19.597   1.072  1.00  0.00     0.188 HD
HETATM   24  C   UNL     1      42.949 -17.964   2.465  1.00  0.00     0.123 A 
ENDBRANCH   4  19
TORSDOF 5
ENDMDL
MODEL 5
REMARK VINA RESULT:      -7.7      2.702      7.905
REMARK  5 active torsions:
REMARK  status: ('A' for Active; 'I' for Inactive)
REMARK       I    between atoms: C_2  and  N_3 
REMARK    1  A    between atoms: C_2  and  O_16 
REMARK    2  A    between atoms: N_3  and  C_4 
REMARK    3  A    between atoms: C_7  and  C_10 
REMARK    4  A    between atoms: O_16  and  C_17 
REMARK    5  A    between atoms: C_17  and  C_18 
ROOT
HETATM    1  C   UNL     1      42.916 -15.280   2.428  1.00  0.00     0.036 A 
HETATM    2  C   UNL     1      42.907 -16.385   1.578  1.00  0.00     0.030 A 
HETATM    3  C   UNL     1      43.176 -17.667   2.076  1.00  0.00     0.014 A 
HETATM    4  C   UNL     1      43.459 -17.869   3.432  1.00  0.00    -0.023 A 
HETATM    5  C   UNL     1      43.453 -16.759   4.284  1.00  0.00     0.014 A 
HETATM    6  C   UNL     1      43.180 -15.478   3.788  1.00  0.00     0.030 A 
ENDROOT
BRANCH   1   7
HETATM    7  N   UNL     1      42.695 -13.959   2.001  1.00  0.00    -0.303 N 
HETATM    8  C   UNL     1      41.645 -13.136   2.293  1.00  0.00     0.365 C 
HETATM    9  O   UNL     1      40.703 -13.359   3.039  1.00  0.00    -0.238 OA
HETATM   10  H   UNL     1      43.356 -13.551   1.355  1.00  0.00     0.171 HD
BRANCH   8  11
HETATM   11  O   UNL     1      41.800 -11.995   1.574  1.00  0.00    -0.299 OA
BRANCH  11  12
HETATM   12  C   UNL     1      40.645 -11.536   0.860  1.00  0.00     0.219 C 
BRANCH  12  13
HETATM   13  C   UNL     1      40.474 -12.351  -0.396  1.00  0.00    -0.034 A 
HETATM   14  C   UNL     1      41.064 -11.942  -1.600  1.00  0.00     0.009 A 
HETATM   15  C   UNL     1      40.908 -12.706  -2.759  1.00  0.00     0.001 A 
HETATM   16  C   UNL     1      40.154 -13.877  -2.725  1.00  0.00     0.000 A 
HETATM   17  C   UNL     1      39.549 -14.283  -1.537  1.00  0.00     0.001 A 
HETATM   18  C   UNL     1      39.705 -13.521  -0.378  1.00  0.00     0.009 A 
ENDBRANCH  12  13
ENDBRANCH  11  12
ENDBRANCH   8  11
ENDBRANCH   1   7
BRANCH   4  19
HETATM   19  C   UNL     1      43.773 -19.188   3.949  1.00  0.00     0.010 A 
HETATM   20  C   UNL     1      44.098 -19.615   5.260  1.00  0.00     0.152 A 
HETATM   21  N   UNL     1      44.320 -20.930   5.338  1.00  0.00    -0.187 NA
HETATM   22  N   UNL     1      44.140 -21.352   4.077  1.00  0.00    -0.289 N 
HETATM   23  H   UNL     1      44.258 -22.341   3.880  1.00  0.00     0.188 HD
HETATM   24  C   UNL     1      43.810 -20.352   3.209  1.00  0.00     0.123 A 
ENDBRANCH   4  19
TORSDOF 5
ENDMDL
MODEL 6
REMARK VINA RESULT:      -7.1      3.795      7.609
REMARK  5 active torsions:
REMARK  status: ('A' for Active; 'I' for Inactive)
REMARK       I    between atoms: C_2  and  N_3 
REMARK    1  A    between atoms: C_2  and  O_16 
REMARK    2  A    between atoms: N_3  and  C_4 
REMARK    3  A    between atoms: C_7  and  C_10 
REMARK    4  A    between atoms: O_16  and  C_17 
REMARK    5  A    between atoms: C_17  and  C_18 
ROOT
HETATM    1  C   UNL     1      42.800 -15.086   2.771  1.00  0.00     0.036 A 
HETATM    2  C   UNL     1      43.173 -15.537   4.037  1.00  0.00     0.030 A 
HETATM    3  C   UNL     1      43.484 -16.886   4.249  1.00  0.00     0.014 A 
HETATM    4  C   UNL     1      43.427 -17.811   3.199  1.00  0.00    -0.023 A 
HETATM    5  C   UNL     1      43.066 -17.353   1.928  1.00  0.00     0.014 A 
HETATM    6  C   UNL     1      42.760 -16.003   1.716  1.00  0.00     0.030 A 
ENDROOT
BRANCH   1   7
HETATM    7  N   UNL     1      42.436 -13.759   2.487  1.00  0.00    -0.303 N 
HETATM    8  C   UNL     1      41.373 -13.047   2.968  1.00  0.00     0.365 C 
HETATM    9  O   UNL     1      40.548 -13.402   3.795  1.00  0.00    -0.238 OA
HETATM   10  H   UNL     1      42.983 -13.250   1.807  1.00  0.00     0.171 HD
BRANCH   8  11
HETATM   11  O   UNL     1      41.359 -11.845   2.337  1.00  0.00    -0.299 OA
BRANCH  11  12
HETATM   12  C   UNL     1      42.453 -10.965   2.628  1.00  0.00     0.219 C 
BRANCH  12  13
HETATM   13  C   UNL     1      42.574 -10.789   4.119  1.00  0.00    -0.034 A 
HETATM   14  C   UNL     1      41.664  -9.985   4.820  1.00  0.00     0.009 A 
HETATM   15  C   UNL     1      41.777  -9.831   6.203  1.00  0.00     0.001 A 
HETATM   16  C   UNL     1      42.805 -10.471   6.894  1.00  0.00     0.000 A 
HETATM   17  C   UNL     1      43.724 -11.259   6.203  1.00  0.00     0.001 A 
HETATM   18  C   UNL     1      43.612 -11.414   4.821  1.00  0.00     0.009 A 
ENDBRANCH  12  13
ENDBRANCH  11  12
ENDBRANCH   8  11
ENDBRANCH   1   7
BRANCH   4  19
HETATM   19  C   UNL     1      43.713 -19.218   3.417  1.00  0.00     0.010 A 
HETATM   20  C   UNL     1      43.569 -20.335   2.559  1.00  0.00     0.152 A 
HETATM   21  N   UNL     1      43.950 -21.481   3.129  1.00  0.00    -0.187 NA
HETATM   22  N   UNL     1      44.338 -21.104   4.357  1.00  0.00    -0.289 N 
HETATM   23  H   UNL     1      44.677 -21.819   4.994  1.00  0.00     0.188 HD
HETATM   24  C   UNL     1      44.219 -19.763   4.579  1.00  0.00     0.123 A 
ENDBRANCH   4  19
TORSDOF 5
ENDMDL
MODEL 7
REMARK VINA RESULT:      -7.1      5.629      8.518
REMARK  5 active torsions:
REMARK  status: ('A' for Active; 'I' for Inactive)
REMARK       I    between atoms: C_2  and  N_3 
REMARK    1  A    between atoms: C_2  and  O_16 
REMARK    2  A    between atoms: N_3  and  C_4 
REMARK    3  A    between atoms: C_7  and  C_10 
REMARK    4  A    between atoms: O_16  and  C_17 
REMARK    5  A    between atoms: C_17  and  C_18 
ROOT
HETATM    1  C   UNL     1      42.449 -13.560   5.995  1.00  0.00     0.036 A 
HETATM    2  C   UNL     1      43.291 -14.438   6.677  1.00  0.00     0.030 A 
HETATM    3  C   UNL     1      43.671 -15.655   6.096  1.00  0.00     0.014 A 
HETATM    4  C   UNL     1      43.214 -16.020   4.824  1.00  0.00    -0.023 A 
HETATM    5  C   UNL     1      42.380 -15.131   4.137  1.00  0.00     0.014 A 
HETATM    6  C   UNL     1      42.005 -13.912   4.715  1.00  0.00     0.030 A 
ENDROOT
BRANCH   1   7
HETATM    7  N   UNL     1      41.992 -12.341   6.523  1.00  0.00    -0.303 N 
HETATM    8  C   UNL     1      42.366 -11.072   6.178  1.00  0.00     0.365 C 
HETATM    9  O   UNL     1      43.137 -10.733   5.294  1.00  0.00    -0.238 OA
HETATM   10  H   UNL     1      41.337 -12.369   7.291  1.00  0.00     0.171 HD
BRANCH   8  11
HETATM   11  O   UNL     1      41.745 -10.212   7.026  1.00  0.00    -0.299 OA
BRANCH  11  12
HETATM   12  C   UNL     1      42.458  -9.008   7.338  1.00  0.00     0.219 C 
BRANCH  12  13
HETATM   13  C   UNL     1      43.453  -9.283   8.435  1.00  0.00    -0.034 A 
HETATM   14  C   UNL     1      44.826  -9.104   8.217  1.00  0.00     0.009 A 
HETATM   15  C   UNL     1      45.743  -9.353   9.240  1.00  0.00     0.001 A 
HETATM   16  C   UNL     1      45.296  -9.791  10.486  1.00  0.00     0.000 A 
HETATM   17  C   UNL     1      43.934  -9.988  10.708  1.00  0.00     0.001 A 
HETATM   18  C   UNL     1      43.017  -9.739   9.686  1.00  0.00     0.009 A 
ENDBRANCH  12  13
ENDBRANCH  11  12
ENDBRANCH   8  11
ENDBRANCH   1   7
BRANCH   4  19
HETATM   19  C   UNL     1      43.574 -17.295   4.230  1.00  0.00     0.010 A 
HETATM   20  C   UNL     1      43.414 -17.777   2.908  1.00  0.00     0.152 A 
HETATM   21  N   UNL     1      43.882 -19.018   2.748  1.00  0.00    -0.187 NA
HETATM   22  N   UNL     1      44.343 -19.337   3.967  1.00  0.00    -0.289 N 
HETATM   23  H   UNL     1      44.757 -20.255   4.099  1.00  0.00     0.188 HD
HETATM   24  C   UNL     1      44.185 -18.342   4.888  1.00  0.00     0.123 A 
ENDBRANCH   4  19
TORSDOF 5
ENDMDL
MODEL 8
REMARK VINA RESULT:      -7.1      3.747      8.686
REMARK  5 active torsions:
REMARK  status: ('A' for Active; 'I' for Inactive)
REMARK       I    between atoms: C_2  and  N_3 
REMARK    1  A    between atoms: C_2  and  O_16 
REMARK    2  A    between atoms: N_3  and  C_4 
REMARK    3  A    between atoms: C_7  and  C_10 
REMARK    4  A    between atoms: O_16  and  C_17 
REMARK    5  A    between atoms: C_17  and  C_18 
ROOT
HETATM    1  C   UNL     1      41.757 -14.634   1.558  1.00  0.00     0.036 A 
HETATM    2  C   UNL     1      43.119 -14.924   1.485  1.00  0.00     0.030 A 
HETATM    3  C   UNL     1      43.597 -16.189   1.852  1.00  0.00     0.014 A 
HETATM    4  C   UNL     1      42.724 -17.187   2.299  1.00  0.00    -0.023 A 
HETATM    5  C   UNL     1      41.357 -16.897   2.358  1.00  0.00     0.014 A 
HETATM    6  C   UNL     1      40.878 -15.634   1.987  1.00  0.00     0.030 A 
ENDROOT
BRANCH   1   7
HETATM    7  N   UNL     1      41.205 -13.380   1.246  1.00  0.00    -0.303 N 
HETATM    8  C   UNL     1      40.634 -12.971   0.073  1.00  0.00     0.365 C 
HETATM    9  O   UNL     1      40.433 -13.634  -0.932  1.00  0.00    -0.238 OA
HETATM   10  H   UNL     1      41.261 -12.648   1.940  1.00  0.00     0.171 HD
BRANCH   8  11
HETATM   11  O   UNL     1      40.339 -11.651   0.194  1.00  0.00    -0.299 OA
BRANCH  11  12
HETATM   12  C   UNL     1      41.458 -10.756   0.247  1.00  0.00     0.219 C 
BRANCH  12  13
HETATM   13  C   UNL     1      41.483  -9.908  -0.998  1.00  0.00    -0.034 A 
HETATM   14  C   UNL     1      42.342  -8.804  -1.094  1.00  0.00     0.009 A 
HETATM   15  C   UNL     1      42.365  -8.026  -2.253  1.00  0.00     0.001 A 
HETATM   16  C   UNL     1      41.527  -8.340  -3.321  1.00  0.00     0.000 A 
HETATM   17  C   UNL     1      40.658  -9.427  -3.229  1.00  0.00     0.001 A 
HETATM   18  C   UNL     1      40.633 -10.205  -2.071  1.00  0.00     0.009 A 
ENDBRANCH  12  13
ENDBRANCH  11  12
ENDBRANCH   8  11
ENDBRANCH   1   7
BRANCH   4  19
HETATM   19  C   UNL     1      43.215 -18.489   2.715  1.00  0.00     0.010 A 
HETATM   20  C   UNL     1      43.174 -19.745   2.062  1.00  0.00     0.152 A 
HETATM   21  N   UNL     1      43.744 -20.720   2.775  1.00  0.00    -0.187 NA
HETATM   22  N   UNL     1      44.151 -20.094   3.890  1.00  0.00    -0.289 N 
HETATM   23  H   UNL     1      44.623 -20.641   4.603  1.00  0.00     0.188 HD
HETATM   24  C   UNL     1      43.861 -18.760   3.903  1.00  0.00     0.123 A 
ENDBRANCH   4  19
TORSDOF 5
ENDMDL
MODEL 9
REMARK VINA RESULT:      -7.0      6.166      8.877
REMARK  5 active torsions:
REMARK  status: ('A' for Active; 'I' for Inactive)
REMARK       I    between atoms: C_2  and  N_3 
REMARK    1  A    between atoms: C_2  and  O_16 
REMARK    2  A    between atoms: N_3  and  C_4 
REMARK    3  A    between atoms: C_7  and  C_10 
REMARK    4  A    between atoms: O_16  and  C_17 
REMARK    5  A    between atoms: C_17  and  C_18 
ROOT
HETATM    1  C   UNL     1      42.997 -13.329   6.229  1.00  0.00     0.036 A 
HETATM    2  C   UNL     1      43.328 -14.528   6.859  1.00  0.00     0.030 A 
HETATM    3  C   UNL     1      43.452 -15.711   6.118  1.00  0.00     0.014 A 
HETATM    4  C   UNL     1      43.246 -15.718   4.734  1.00  0.00    -0.023 A 
HETATM    5  C   UNL     1      42.928 -14.511   4.102  1.00  0.00     0.014 A 
HETATM    6  C   UNL     1      42.809 -13.327   4.842  1.00  0.00     0.030 A 
ENDROOT
BRANCH   1   7
HETATM    7  N   UNL     1      42.816 -12.111   6.905  1.00  0.00    -0.303 N 
HETATM    8  C   UNL     1      43.769 -11.253   7.381  1.00  0.00     0.365 C 
HETATM    9  O   UNL     1      44.981 -11.342   7.264  1.00  0.00    -0.238 OA
HETATM   10  H   UNL     1      41.874 -11.823   7.126  1.00  0.00     0.171 HD
BRANCH   8  11
HETATM   11  O   UNL     1      43.134 -10.262   8.057  1.00  0.00    -0.299 OA
BRANCH  11  12
HETATM   12  C   UNL     1      43.835  -9.714   9.181  1.00  0.00     0.219 C 
BRANCH  12  13
HETATM   13  C   UNL     1      42.953  -9.768  10.400  1.00  0.00    -0.034 A 
HETATM   14  C   UNL     1      43.426 -10.310  11.603  1.00  0.00     0.009 A 
HETATM   15  C   UNL     1      42.605 -10.351  12.732  1.00  0.00     0.001 A 
HETATM   16  C   UNL     1      41.303  -9.859  12.665  1.00  0.00     0.000 A 
HETATM   17  C   UNL     1      40.817  -9.333  11.469  1.00  0.00     0.001 A 
HETATM   18  C   UNL     1      41.637  -9.291  10.341  1.00  0.00     0.009 A 
ENDBRANCH  12  13
ENDBRANCH  11  12
ENDBRANCH   8  11
ENDBRANCH   1   7
BRANCH   4  19
HETATM   19  C   UNL     1      43.338 -16.945   3.963  1.00  0.00     0.010 A 
HETATM   20  C   UNL     1      42.790 -17.290   2.704  1.00  0.00     0.152 A 
HETATM   21  N   UNL     1      43.107 -18.530   2.322  1.00  0.00    -0.187 NA
HETATM   22  N   UNL     1      43.858 -18.987   3.335  1.00  0.00    -0.289 N 
HETATM   23  H   UNL     1      44.225 -19.931   3.274  1.00  0.00     0.188 HD
HETATM   24  C   UNL     1      44.029 -18.079   4.340  1.00  0.00     0.123 A 
ENDBRANCH   4  19
TORSDOF 5
ENDMDL
MODEL 10
REMARK VINA RESULT:      -7.0      3.862      4.665
REMARK  5 active torsions:
REMARK  status: ('A' for Active; 'I' for Inactive)
REMARK       I    between atoms: C_2  and  N_3 
REMARK    1  A    between atoms: C_2  and  O_16 
REMARK    2  A    between atoms: N_3  and  C_4 
REMARK    3  A    between atoms: C_7  and  C_10 
REMARK    4  A    between atoms: O_16  and  C_17 
REMARK    5  A    between atoms: C_17  and  C_18 
ROOT
HETATM    1  C   UNL     1      41.268 -13.779   5.156  1.00  0.00     0.036 A 
HETATM    2  C   UNL     1      40.290 -13.319   6.036  1.00  0.00     0.030 A 
HETATM    3  C   UNL     1      39.498 -12.212   5.705  1.00  0.00     0.014 A 
HETATM    4  C   UNL     1      39.670 -11.541   4.489  1.00  0.00    -0.023 A 
HETATM    5  C   UNL     1      40.644 -12.013   3.602  1.00  0.00     0.014 A 
HETATM    6  C   UNL     1      41.432 -13.123   3.930  1.00  0.00     0.030 A 
ENDROOT
BRANCH   1   7
HETATM    7  N   UNL     1      42.127 -14.857   5.430  1.00  0.00    -0.303 N 
HETATM    8  C   UNL     1      41.814 -16.180   5.565  1.00  0.00     0.365 C 
HETATM    9  O   UNL     1      40.723 -16.710   5.416  1.00  0.00    -0.238 OA
HETATM   10  H   UNL     1      43.102 -14.658   5.601  1.00  0.00     0.171 HD
BRANCH   8  11
HETATM   11  O   UNL     1      42.942 -16.838   5.934  1.00  0.00    -0.299 OA
BRANCH  11  12
HETATM   12  C   UNL     1      43.963 -16.951   4.934  1.00  0.00     0.219 C 
BRANCH  12  13
HETATM   13  C   UNL     1      43.898 -18.316   4.301  1.00  0.00    -0.034 A 
HETATM   14  C   UNL     1      44.098 -19.472   5.069  1.00  0.00     0.009 A 
HETATM   15  C   UNL     1      44.030 -20.735   4.477  1.00  0.00     0.001 A 
HETATM   16  C   UNL     1      43.770 -20.852   3.113  1.00  0.00     0.000 A 
HETATM   17  C   UNL     1      43.586 -19.709   2.337  1.00  0.00     0.001 A 
HETATM   18  C   UNL     1      43.654 -18.446   2.927  1.00  0.00     0.009 A 
ENDBRANCH  12  13
ENDBRANCH  11  12
ENDBRANCH   8  11
ENDBRANCH   1   7
BRANCH   4  19
HETATM   19  C   UNL     1      38.879 -10.371   4.153  1.00  0.00     0.010 A 
HETATM   20  C   UNL     1      38.528  -9.239   4.927  1.00  0.00     0.152 A 
HETATM   21  N   UNL     1      37.780  -8.360   4.253  1.00  0.00    -0.187 NA
HETATM   22  N   UNL     1      37.649  -8.926   3.043  1.00  0.00    -0.289 N 
HETATM   23  H   UNL     1      37.108  -8.434   2.339  1.00  0.00     0.188 HD
HETATM   24  C   UNL     1      38.288 -10.127   2.931  1.00  0.00     0.123 A 
ENDBRANCH   4  19
TORSDOF 5
ENDMDL
