MODEL 1
REMARK VINA RESULT:      -7.8      0.000      0.000
REMARK  4 active torsions:
REMARK  status: ('A' for Active; 'I' for Inactive)
REMARK    1  A    between atoms: C_6  and  C_7 
REMARK    2  A    between atoms: C_7  and  N_8 
REMARK    3  A    between atoms: C_12  and  C_13 
REMARK    4  A    between atoms: C_15  and  C_16 
ROOT
HETATM    1  N   UNL     1      42.223 -12.888   6.682  1.00  0.00    -0.067 N 
HETATM    2  H   UNL     1      41.980 -12.677   7.656  1.00  0.00     0.280 HD
HETATM    3  C   UNL     1      40.932 -13.039   5.910  1.00  0.00     0.236 C 
HETATM    4  C   UNL     1      40.144 -14.238   6.427  1.00  0.00     0.040 C 
HETATM    5  C   UNL     1      40.952 -15.539   6.419  1.00  0.00     0.058 C 
HETATM    6  C   UNL     1      42.275 -15.334   7.164  1.00  0.00     0.040 C 
HETATM    7  C   UNL     1      43.069 -14.137   6.656  1.00  0.00     0.236 C 
ENDROOT
BRANCH   5   8
HETATM    8  C   UNL     1      41.186 -16.012   5.016  1.00  0.00     0.108 A 
HETATM    9  N   UNL     1      42.234 -16.692   4.604  1.00  0.00    -0.229 NA
HETATM   10  C   UNL     1      42.062 -16.893   3.237  1.00  0.00     0.157 A 
HETATM   11  C   UNL     1      40.866 -16.316   2.848  1.00  0.00     0.126 A 
HETATM   12  N   UNL     1      40.323 -15.766   3.978  1.00  0.00    -0.352 N 
HETATM   13  H   UNL     1      39.447 -15.262   4.029  1.00  0.00     0.166 HD
BRANCH  10  14
HETATM   14  C   UNL     1      43.069 -17.626   2.390  1.00  0.00     0.436 C 
HETATM   15  F   UNL     1      42.565 -18.789   1.892  1.00  0.00    -0.165 F 
HETATM   16  F   UNL     1      43.471 -16.883   1.328  1.00  0.00    -0.165 F 
HETATM   17  F   UNL     1      44.181 -17.951   3.098  1.00  0.00    -0.165 F 
ENDBRANCH  10  14
ENDBRANCH   5   8
BRANCH   1  18
HETATM   18  C   UNL     1      43.038 -11.703   6.189  1.00  0.00     0.275 C 
BRANCH  18  19
HETATM   19  C   UNL     1      43.996 -11.189   7.198  1.00  0.00    -0.001 A 
HETATM   20  C   UNL     1      45.372 -11.088   7.065  1.00  0.00     0.057 A 
HETATM   21  O   UNL     1      45.915 -10.547   8.186  1.00  0.00    -0.320 OA
HETATM   22  C   UNL     1      46.325 -11.436   5.987  1.00  0.00     0.077 C 
HETATM   23  C   UNL     1      44.904 -10.318   9.063  1.00  0.00     0.050 A 
HETATM   24  C   UNL     1      45.283  -9.740  10.370  1.00  0.00     0.076 C 
HETATM   25  C   UNL     1      43.703 -10.699   8.506  1.00  0.00     0.043 A 
ENDBRANCH  18  19
ENDBRANCH   1  18
TORSDOF 4
ENDMDL
MODEL 2
REMARK VINA RESULT:      -7.8      4.801      6.816
REMARK  4 active torsions:
REMARK  status: ('A' for Active; 'I' for Inactive)
REMARK    1  A    between atoms: C_6  and  C_7 
REMARK    2  A    between atoms: C_7  and  N_8 
REMARK    3  A    between atoms: C_12  and  C_13 
REMARK    4  A    between atoms: C_15  and  C_16 
ROOT
HETATM    1  N   UNL     1      42.044 -15.578   3.136  1.00  0.00    -0.067 N 
HETATM    2  H   UNL     1      41.713 -15.873   4.061  1.00  0.00     0.280 HD
HETATM    3  C   UNL     1      42.094 -14.067   3.128  1.00  0.00     0.236 C 
HETATM    4  C   UNL     1      40.691 -13.490   3.290  1.00  0.00     0.040 C 
HETATM    5  C   UNL     1      39.700 -14.019   2.250  1.00  0.00     0.058 C 
HETATM    6  C   UNL     1      39.714 -15.551   2.248  1.00  0.00     0.040 C 
HETATM    7  C   UNL     1      41.111 -16.136   2.089  1.00  0.00     0.236 C 
ENDROOT
BRANCH   5   8
HETATM    8  C   UNL     1      40.013 -13.472   0.890  1.00  0.00     0.108 A 
HETATM    9  N   UNL     1      39.737 -14.061  -0.254  1.00  0.00    -0.229 NA
HETATM   10  C   UNL     1      40.225 -13.228  -1.256  1.00  0.00     0.157 A 
HETATM   11  C   UNL     1      40.795 -12.111  -0.670  1.00  0.00     0.126 A 
HETATM   12  N   UNL     1      40.653 -12.275   0.681  1.00  0.00    -0.352 N 
HETATM   13  H   UNL     1      40.973 -11.631   1.393  1.00  0.00     0.166 HD
BRANCH  10  14
HETATM   14  C   UNL     1      40.115 -13.566  -2.720  1.00  0.00     0.436 C 
HETATM   15  F   UNL     1      41.327 -13.546  -3.339  1.00  0.00    -0.165 F 
HETATM   16  F   UNL     1      39.593 -14.804  -2.914  1.00  0.00    -0.165 F 
HETATM   17  F   UNL     1      39.320 -12.686  -3.381  1.00  0.00    -0.165 F 
ENDBRANCH  10  14
ENDBRANCH   5   8
BRANCH   1  18
HETATM   18  C   UNL     1      43.427 -16.187   2.972  1.00  0.00     0.275 C 
BRANCH  18  19
HETATM   19  C   UNL     1      43.696 -17.296   3.919  1.00  0.00    -0.001 A 
HETATM   20  C   UNL     1      43.861 -17.199   5.291  1.00  0.00     0.057 A 
HETATM   21  O   UNL     1      44.066 -18.429   5.830  1.00  0.00    -0.320 OA
HETATM   22  C   UNL     1      43.856 -16.067   6.246  1.00  0.00     0.077 C 
HETATM   23  C   UNL     1      44.062 -19.329   4.813  1.00  0.00     0.050 A 
HETATM   24  C   UNL     1      44.288 -20.742   5.182  1.00  0.00     0.076 C 
HETATM   25  C   UNL     1      43.843 -18.683   3.616  1.00  0.00     0.043 A 
ENDBRANCH  18  19
ENDBRANCH   1  18
TORSDOF 4
ENDMDL
MODEL 3
REMARK VINA RESULT:      -7.7      2.388      4.161
REMARK  4 active torsions:
REMARK  status: ('A' for Active; 'I' for Inactive)
REMARK    1  A    between atoms: C_6  and  C_7 
REMARK    2  A    between atoms: C_7  and  N_8 
REMARK    3  A    between atoms: C_12  and  C_13 
REMARK    4  A    between atoms: C_15  and  C_16 
ROOT
HETATM    1  N   UNL     1      41.457 -14.318   3.259  1.00  0.00    -0.067 N 
HETATM    2  H   UNL     1      41.129 -13.812   2.429  1.00  0.00     0.280 HD
HETATM    3  C   UNL     1      42.965 -14.395   3.182  1.00  0.00     0.236 C 
HETATM    4  C   UNL     1      43.391 -15.223   1.974  1.00  0.00     0.040 C 
HETATM    5  C   UNL     1      42.761 -16.619   1.949  1.00  0.00     0.058 C 
HETATM    6  C   UNL     1      41.239 -16.506   2.082  1.00  0.00     0.040 C 
HETATM    7  C   UNL     1      40.803 -15.678   3.285  1.00  0.00     0.236 C 
ENDROOT
BRANCH   5   8
HETATM    8  C   UNL     1      43.337 -17.483   3.029  1.00  0.00     0.108 A 
HETATM    9  N   UNL     1      43.340 -18.799   3.037  1.00  0.00    -0.229 NA
HETATM   10  C   UNL     1      43.940 -19.186   4.231  1.00  0.00     0.157 A 
HETATM   11  C   UNL     1      44.307 -18.053   4.935  1.00  0.00     0.126 A 
HETATM   12  N   UNL     1      43.925 -16.987   4.167  1.00  0.00    -0.352 N 
HETATM   13  H   UNL     1      44.046 -16.011   4.405  1.00  0.00     0.166 HD
BRANCH  10  14
HETATM   14  C   UNL     1      44.117 -20.631   4.621  1.00  0.00     0.436 C 
HETATM   15  F   UNL     1      43.963 -21.467   3.559  1.00  0.00    -0.165 F 
HETATM   16  F   UNL     1      45.351 -20.867   5.135  1.00  0.00    -0.165 F 
HETATM   17  F   UNL     1      43.212 -21.013   5.557  1.00  0.00    -0.165 F 
ENDBRANCH  10  14
ENDBRANCH   5   8
BRANCH   1  18
HETATM   18  C   UNL     1      40.995 -13.502   4.456  1.00  0.00     0.275 C 
BRANCH  18  19
HETATM   19  C   UNL     1      42.061 -13.284   5.464  1.00  0.00    -0.001 A 
HETATM   20  C   UNL     1      42.452 -14.159   6.466  1.00  0.00     0.057 A 
HETATM   21  O   UNL     1      43.477 -13.628   7.181  1.00  0.00    -0.320 OA
HETATM   22  C   UNL     1      41.993 -15.501   6.890  1.00  0.00     0.077 C 
HETATM   23  C   UNL     1      43.742 -12.399   6.670  1.00  0.00     0.050 A 
HETATM   24  C   UNL     1      44.826 -11.632   7.321  1.00  0.00     0.076 C 
HETATM   25  C   UNL     1      42.896 -12.137   5.614  1.00  0.00     0.043 A 
ENDBRANCH  18  19
ENDBRANCH   1  18
TORSDOF 4
ENDMDL
MODEL 4
REMARK VINA RESULT:      -7.5      4.811      6.968
REMARK  4 active torsions:
REMARK  status: ('A' for Active; 'I' for Inactive)
REMARK    1  A    between atoms: C_6  and  C_7 
REMARK    2  A    between atoms: C_7  and  N_8 
REMARK    3  A    between atoms: C_12  and  C_13 
REMARK    4  A    between atoms: C_15  and  C_16 
ROOT
HETATM    1  N   UNL     1      41.147 -14.765   1.764  1.00  0.00    -0.067 N 
HETATM    2  H   UNL     1      40.729 -13.879   2.067  1.00  0.00     0.280 HD
HETATM    3  C   UNL     1      40.559 -15.865   2.618  1.00  0.00     0.236 C 
HETATM    4  C   UNL     1      40.960 -15.674   4.078  1.00  0.00     0.040 C 
HETATM    5  C   UNL     1      42.474 -15.566   4.276  1.00  0.00     0.058 C 
HETATM    6  C   UNL     1      43.044 -14.480   3.358  1.00  0.00     0.040 C 
HETATM    7  C   UNL     1      42.647 -14.661   1.898  1.00  0.00     0.236 C 
ENDROOT
BRANCH   5   8
HETATM    8  C   UNL     1      43.138 -16.887   4.031  1.00  0.00     0.108 A 
HETATM    9  N   UNL     1      42.739 -17.795   3.167  1.00  0.00    -0.229 NA
HETATM   10  C   UNL     1      43.616 -18.869   3.288  1.00  0.00     0.157 A 
HETATM   11  C   UNL     1      44.563 -18.567   4.251  1.00  0.00     0.126 A 
HETATM   12  N   UNL     1      44.253 -17.315   4.709  1.00  0.00    -0.352 N 
HETATM   13  H   UNL     1      44.753 -16.806   5.427  1.00  0.00     0.166 HD
BRANCH  10  14
HETATM   14  C   UNL     1      43.481 -20.126   2.468  1.00  0.00     0.436 C 
HETATM   15  F   UNL     1      42.261 -20.217   1.873  1.00  0.00    -0.165 F 
HETATM   16  F   UNL     1      44.409 -20.186   1.480  1.00  0.00    -0.165 F 
HETATM   17  F   UNL     1      43.632 -21.240   3.229  1.00  0.00    -0.165 F 
ENDBRANCH  10  14
ENDBRANCH   5   8
BRANCH   1  18
HETATM   18  C   UNL     1      40.770 -14.927   0.300  1.00  0.00     0.275 C 
BRANCH  18  19
HETATM   19  C   UNL     1      39.825 -13.890  -0.181  1.00  0.00    -0.001 A 
HETATM   20  C   UNL     1      39.078 -13.920  -1.347  1.00  0.00     0.057 A 
HETATM   21  O   UNL     1      38.306 -12.807  -1.441  1.00  0.00    -0.320 OA
HETATM   22  C   UNL     1      38.958 -14.888  -2.462  1.00  0.00     0.077 C 
HETATM   23  C   UNL     1      38.564 -12.035  -0.355  1.00  0.00     0.050 A 
HETATM   24  C   UNL     1      37.833 -10.753  -0.268  1.00  0.00     0.076 C 
HETATM   25  C   UNL     1      39.495 -12.653   0.450  1.00  0.00     0.043 A 
ENDBRANCH  18  19
ENDBRANCH   1  18
TORSDOF 4
ENDMDL
MODEL 5
REMARK VINA RESULT:      -7.3      4.922      6.921
REMARK  4 active torsions:
REMARK  status: ('A' for Active; 'I' for Inactive)
REMARK    1  A    between atoms: C_6  and  C_7 
REMARK    2  A    between atoms: C_7  and  N_8 
REMARK    3  A    between atoms: C_12  and  C_13 
REMARK    4  A    between atoms: C_15  and  C_16 
ROOT
HETATM    1  N   UNL     1      41.154 -14.832   2.646  1.00  0.00    -0.067 N 
HETATM    2  H   UNL     1      41.332 -14.396   3.558  1.00  0.00     0.280 HD
HETATM    3  C   UNL     1      42.164 -14.277   1.668  1.00  0.00     0.236 C 
HETATM    4  C   UNL     1      41.950 -12.778   1.479  1.00  0.00     0.040 C 
HETATM    5  C   UNL     1      40.519 -12.423   1.064  1.00  0.00     0.058 C 
HETATM    6  C   UNL     1      39.521 -13.045   2.045  1.00  0.00     0.040 C 
HETATM    7  C   UNL     1      39.729 -14.542   2.243  1.00  0.00     0.236 C 
ENDROOT
BRANCH   5   8
HETATM    8  C   UNL     1      40.247 -12.868  -0.342  1.00  0.00     0.108 A 
HETATM    9  N   UNL     1      39.178 -13.521  -0.743  1.00  0.00    -0.229 NA
HETATM   10  C   UNL     1      39.348 -13.759  -2.104  1.00  0.00     0.157 A 
HETATM   11  C   UNL     1      40.556 -13.216  -2.505  1.00  0.00     0.126 A 
HETATM   12  N   UNL     1      41.111 -12.656  -1.387  1.00  0.00    -0.352 N 
HETATM   13  H   UNL     1      42.004 -12.180  -1.343  1.00  0.00     0.166 HD
BRANCH  10  14
HETATM   14  C   UNL     1      38.334 -14.504  -2.932  1.00  0.00     0.436 C 
HETATM   15  F   UNL     1      38.612 -14.433  -4.262  1.00  0.00    -0.165 F 
HETATM   16  F   UNL     1      38.288 -15.822  -2.608  1.00  0.00    -0.165 F 
HETATM   17  F   UNL     1      37.083 -14.005  -2.764  1.00  0.00    -0.165 F 
ENDBRANCH  10  14
ENDBRANCH   5   8
BRANCH   1  18
HETATM   18  C   UNL     1      41.336 -16.327   2.855  1.00  0.00     0.275 C 
BRANCH  18  19
HETATM   19  C   UNL     1      42.469 -16.661   3.752  1.00  0.00    -0.001 A 
HETATM   20  C   UNL     1      43.364 -17.709   3.610  1.00  0.00     0.057 A 
HETATM   21  O   UNL     1      44.283 -17.684   4.610  1.00  0.00    -0.320 OA
HETATM   22  C   UNL     1      43.511 -18.804   2.623  1.00  0.00     0.077 C 
HETATM   23  C   UNL     1      43.978 -16.639   5.421  1.00  0.00     0.050 A 
HETATM   24  C   UNL     1      44.853 -16.439   6.596  1.00  0.00     0.076 C 
HETATM   25  C   UNL     1      42.868 -15.979   4.941  1.00  0.00     0.043 A 
ENDBRANCH  18  19
ENDBRANCH   1  18
TORSDOF 4
ENDMDL
MODEL 6
REMARK VINA RESULT:      -7.3      3.821      6.123
REMARK  4 active torsions:
REMARK  status: ('A' for Active; 'I' for Inactive)
REMARK    1  A    between atoms: C_6  and  C_7 
REMARK    2  A    between atoms: C_7  and  N_8 
REMARK    3  A    between atoms: C_12  and  C_13 
REMARK    4  A    between atoms: C_15  and  C_16 
ROOT
HETATM    1  N   UNL     1      43.090 -16.137   5.985  1.00  0.00    -0.067 N 
HETATM    2  H   UNL     1      43.128 -16.301   6.997  1.00  0.00     0.280 HD
HETATM    3  C   UNL     1      43.146 -14.643   5.762  1.00  0.00     0.236 C 
HETATM    4  C   UNL     1      41.912 -13.971   6.356  1.00  0.00     0.040 C 
HETATM    5  C   UNL     1      40.598 -14.561   5.838  1.00  0.00     0.058 C 
HETATM    6  C   UNL     1      40.596 -16.081   6.032  1.00  0.00     0.040 C 
HETATM    7  C   UNL     1      41.827 -16.760   5.443  1.00  0.00     0.236 C 
ENDROOT
BRANCH   5   8
HETATM    8  C   UNL     1      40.381 -14.197   4.400  1.00  0.00     0.108 A 
HETATM    9  N   UNL     1      40.363 -15.042   3.392  1.00  0.00    -0.229 NA
HETATM   10  C   UNL     1      40.166 -14.282   2.243  1.00  0.00     0.157 A 
HETATM   11  C   UNL     1      40.057 -12.950   2.601  1.00  0.00     0.126 A 
HETATM   12  N   UNL     1      40.192 -12.910   3.962  1.00  0.00    -0.352 N 
HETATM   13  H   UNL     1      40.166 -12.076   4.536  1.00  0.00     0.166 HD
BRANCH  10  14
HETATM   14  C   UNL     1      40.102 -14.892   0.866  1.00  0.00     0.436 C 
HETATM   15  F   UNL     1      41.341 -15.109   0.347  1.00  0.00    -0.165 F 
HETATM   16  F   UNL     1      39.461 -16.088   0.874  1.00  0.00    -0.165 F 
HETATM   17  F   UNL     1      39.444 -14.088  -0.008  1.00  0.00    -0.165 F 
ENDBRANCH  10  14
ENDBRANCH   5   8
BRANCH   1  18
HETATM   18  C   UNL     1      44.304 -16.840   5.401  1.00  0.00     0.275 C 
BRANCH  18  19
HETATM   19  C   UNL     1      43.995 -17.631   4.185  1.00  0.00    -0.001 A 
HETATM   20  C   UNL     1      43.687 -17.140   2.927  1.00  0.00     0.057 A 
HETATM   21  O   UNL     1      43.489 -18.164   2.056  1.00  0.00    -0.320 OA
HETATM   22  C   UNL     1      43.539 -15.777   2.368  1.00  0.00     0.077 C 
HETATM   23  C   UNL     1      43.641 -19.324   2.745  1.00  0.00     0.050 A 
HETATM   24  C   UNL     1      43.449 -20.575   1.981  1.00  0.00     0.076 C 
HETATM   25  C   UNL     1      43.949 -19.052   4.061  1.00  0.00     0.043 A 
ENDBRANCH  18  19
ENDBRANCH   1  18
TORSDOF 4
ENDMDL
MODEL 7
REMARK VINA RESULT:      -7.2      3.884      5.024
REMARK  4 active torsions:
REMARK  status: ('A' for Active; 'I' for Inactive)
REMARK    1  A    between atoms: C_6  and  C_7 
REMARK    2  A    between atoms: C_7  and  N_8 
REMARK    3  A    between atoms: C_12  and  C_13 
REMARK    4  A    between atoms: C_15  and  C_16 
ROOT
HETATM    1  N   UNL     1      41.872 -13.881   3.892  1.00  0.00    -0.067 N 
HETATM    2  H   UNL     1      42.276 -14.596   4.507  1.00  0.00     0.280 HD
HETATM    3  C   UNL     1      40.489 -14.346   3.496  1.00  0.00     0.236 C 
HETATM    4  C   UNL     1      40.576 -15.627   2.673  1.00  0.00     0.040 C 
HETATM    5  C   UNL     1      41.489 -15.495   1.450  1.00  0.00     0.058 C 
HETATM    6  C   UNL     1      42.863 -14.973   1.880  1.00  0.00     0.040 C 
HETATM    7  C   UNL     1      42.786 -13.694   2.705  1.00  0.00     0.236 C 
ENDROOT
BRANCH   5   8
HETATM    8  C   UNL     1      40.869 -14.605   0.416  1.00  0.00     0.108 A 
HETATM    9  N   UNL     1      39.841 -14.916  -0.345  1.00  0.00    -0.229 NA
HETATM   10  C   UNL     1      39.619 -13.822  -1.176  1.00  0.00     0.157 A 
HETATM   11  C   UNL     1      40.545 -12.839  -0.877  1.00  0.00     0.126 A 
HETATM   12  N   UNL     1      41.325 -13.343   0.128  1.00  0.00    -0.352 N 
HETATM   13  H   UNL     1      42.103 -12.868   0.569  1.00  0.00     0.166 HD
BRANCH  10  14
HETATM   14  C   UNL     1      38.527 -13.798  -2.213  1.00  0.00     0.436 C 
HETATM   15  F   UNL     1      37.369 -13.280  -1.720  1.00  0.00    -0.165 F 
HETATM   16  F   UNL     1      38.870 -13.046  -3.289  1.00  0.00    -0.165 F 
HETATM   17  F   UNL     1      38.238 -15.044  -2.669  1.00  0.00    -0.165 F 
ENDBRANCH  10  14
ENDBRANCH   5   8
BRANCH   1  18
HETATM   18  C   UNL     1      41.823 -12.602   4.711  1.00  0.00     0.275 C 
BRANCH  18  19
HETATM   19  C   UNL     1      42.993 -12.434   5.607  1.00  0.00    -0.001 A 
HETATM   20  C   UNL     1      43.422 -13.310   6.590  1.00  0.00     0.057 A 
HETATM   21  O   UNL     1      44.544 -12.833   7.190  1.00  0.00    -0.320 OA
HETATM   22  C   UNL     1      42.923 -14.611   7.092  1.00  0.00     0.077 C 
HETATM   23  C   UNL     1      44.835 -11.635   6.622  1.00  0.00     0.050 A 
HETATM   24  C   UNL     1      46.023 -10.927   7.146  1.00  0.00     0.076 C 
HETATM   25  C   UNL     1      43.909 -11.340   5.645  1.00  0.00     0.043 A 
ENDBRANCH  18  19
ENDBRANCH   1  18
TORSDOF 4
ENDMDL
MODEL 8
REMARK VINA RESULT:      -7.2      3.035      4.599
REMARK  4 active torsions:
REMARK  status: ('A' for Active; 'I' for Inactive)
REMARK    1  A    between atoms: C_6  and  C_7 
REMARK    2  A    between atoms: C_7  and  N_8 
REMARK    3  A    between atoms: C_12  and  C_13 
REMARK    4  A    between atoms: C_15  and  C_16 
ROOT
HETATM    1  N   UNL     1      41.916 -13.900   2.035  1.00  0.00    -0.067 N 
HETATM    2  H   UNL     1      41.653 -13.843   1.046  1.00  0.00     0.280 HD
HETATM    3  C   UNL     1      43.349 -14.380   2.101  1.00  0.00     0.236 C 
HETATM    4  C   UNL     1      43.460 -15.794   1.541  1.00  0.00     0.040 C 
HETATM    5  C   UNL     1      42.510 -16.786   2.218  1.00  0.00     0.058 C 
HETATM    6  C   UNL     1      41.077 -16.244   2.180  1.00  0.00     0.040 C 
HETATM    7  C   UNL     1      40.956 -14.831   2.736  1.00  0.00     0.236 C 
ENDROOT
BRANCH   5   8
HETATM    8  C   UNL     1      42.947 -17.066   3.624  1.00  0.00     0.108 A 
HETATM    9  N   UNL     1      42.720 -16.292   4.664  1.00  0.00    -0.229 NA
HETATM   10  C   UNL     1      43.323 -16.911   5.756  1.00  0.00     0.157 A 
HETATM   11  C   UNL     1      43.910 -18.090   5.333  1.00  0.00     0.126 A 
HETATM   12  N   UNL     1      43.664 -18.178   3.990  1.00  0.00    -0.352 N 
HETATM   13  H   UNL     1      43.969 -18.926   3.379  1.00  0.00     0.166 HD
BRANCH  10  14
HETATM   14  C   UNL     1      43.298 -16.319   7.141  1.00  0.00     0.436 C 
HETATM   15  F   UNL     1      44.008 -17.069   8.027  1.00  0.00    -0.165 F 
HETATM   16  F   UNL     1      43.828 -15.070   7.166  1.00  0.00    -0.165 F 
HETATM   17  F   UNL     1      42.033 -16.229   7.626  1.00  0.00    -0.165 F 
ENDBRANCH  10  14
ENDBRANCH   5   8
BRANCH   1  18
HETATM   18  C   UNL     1      41.768 -12.493   2.591  1.00  0.00     0.275 C 
BRANCH  18  19
HETATM   19  C   UNL     1      42.553 -12.265   3.828  1.00  0.00    -0.001 A 
HETATM   20  C   UNL     1      42.170 -12.568   5.125  1.00  0.00     0.057 A 
HETATM   21  O   UNL     1      43.159 -12.239   5.997  1.00  0.00    -0.320 OA
HETATM   22  C   UNL     1      40.950 -13.156   5.722  1.00  0.00     0.077 C 
HETATM   23  C   UNL     1      44.176 -11.698   5.280  1.00  0.00     0.050 A 
HETATM   24  C   UNL     1      45.359 -11.251   6.046  1.00  0.00     0.076 C 
HETATM   25  C   UNL     1      43.852 -11.686   3.940  1.00  0.00     0.043 A 
ENDBRANCH  18  19
ENDBRANCH   1  18
TORSDOF 4
ENDMDL
MODEL 9
REMARK VINA RESULT:      -7.0      4.616      7.750
REMARK  4 active torsions:
REMARK  status: ('A' for Active; 'I' for Inactive)
REMARK    1  A    between atoms: C_6  and  C_7 
REMARK    2  A    between atoms: C_7  and  N_8 
REMARK    3  A    between atoms: C_12  and  C_13 
REMARK    4  A    between atoms: C_15  and  C_16 
ROOT
HETATM    1  N   UNL     1      41.397 -14.928   1.414  1.00  0.00    -0.067 N 
HETATM    2  H   UNL     1      41.325 -15.316   0.467  1.00  0.00     0.280 HD
HETATM    3  C   UNL     1      42.849 -14.589   1.661  1.00  0.00     0.236 C 
HETATM    4  C   UNL     1      43.698 -15.856   1.647  1.00  0.00     0.040 C 
HETATM    5  C   UNL     1      43.202 -16.924   2.626  1.00  0.00     0.058 C 
HETATM    6  C   UNL     1      41.716 -17.204   2.382  1.00  0.00     0.040 C 
HETATM    7  C   UNL     1      40.860 -15.944   2.393  1.00  0.00     0.236 C 
ENDROOT
BRANCH   5   8
HETATM    8  C   UNL     1      43.450 -16.503   4.043  1.00  0.00     0.108 A 
HETATM    9  N   UNL     1      43.022 -15.389   4.596  1.00  0.00    -0.229 NA
HETATM   10  C   UNL     1      43.502 -15.386   5.902  1.00  0.00     0.157 A 
HETATM   11  C   UNL     1      44.226 -16.546   6.115  1.00  0.00     0.126 A 
HETATM   12  N   UNL     1      44.183 -17.242   4.938  1.00  0.00    -0.352 N 
HETATM   13  H   UNL     1      44.625 -18.136   4.762  1.00  0.00     0.166 HD
BRANCH  10  14
HETATM   14  C   UNL     1      43.236 -14.257   6.863  1.00  0.00     0.436 C 
HETATM   15  F   UNL     1      43.094 -14.700   8.142  1.00  0.00    -0.165 F 
HETATM   16  F   UNL     1      44.245 -13.350   6.869  1.00  0.00    -0.165 F 
HETATM   17  F   UNL     1      42.097 -13.588   6.550  1.00  0.00    -0.165 F 
ENDBRANCH  10  14
ENDBRANCH   5   8
BRANCH   1  18
HETATM   18  C   UNL     1      40.519 -13.687   1.426  1.00  0.00     0.275 C 
BRANCH  18  19
HETATM   19  C   UNL     1      39.717 -13.523   0.190  1.00  0.00    -0.001 A 
HETATM   20  C   UNL     1      38.867 -12.473  -0.119  1.00  0.00     0.057 A 
HETATM   21  O   UNL     1      38.323 -12.653  -1.351  1.00  0.00    -0.320 OA
HETATM   22  C   UNL     1      38.456 -11.243   0.596  1.00  0.00     0.077 C 
HETATM   23  C   UNL     1      38.792 -13.830  -1.838  1.00  0.00     0.050 A 
HETATM   24  C   UNL     1      38.305 -14.231  -3.175  1.00  0.00     0.076 C 
HETATM   25  C   UNL     1      39.650 -14.408  -0.928  1.00  0.00     0.043 A 
ENDBRANCH  18  19
ENDBRANCH   1  18
TORSDOF 4
ENDMDL
MODEL 10
REMARK VINA RESULT:      -6.9      3.400      5.244
REMARK  4 active torsions:
REMARK  status: ('A' for Active; 'I' for Inactive)
REMARK    1  A    between atoms: C_6  and  C_7 
REMARK    2  A    between atoms: C_7  and  N_8 
REMARK    3  A    between atoms: C_12  and  C_13 
REMARK    4  A    between atoms: C_15  and  C_16 
ROOT
HETATM    1  N   UNL     1      42.220 -13.453   6.326  1.00  0.00    -0.067 N 
HETATM    2  H   UNL     1      42.150 -13.057   7.270  1.00  0.00     0.280 HD
HETATM    3  C   UNL     1      42.358 -12.302   5.356  1.00  0.00     0.236 C 
HETATM    4  C   UNL     1      41.098 -11.443   5.372  1.00  0.00     0.040 C 
HETATM    5  C   UNL     1      39.820 -12.244   5.106  1.00  0.00     0.058 C 
HETATM    6  C   UNL     1      39.740 -13.432   6.070  1.00  0.00     0.040 C 
HETATM    7  C   UNL     1      40.995 -14.295   6.063  1.00  0.00     0.236 C 
ENDROOT
BRANCH   5   8
HETATM    8  C   UNL     1      39.764 -12.699   3.679  1.00  0.00     0.108 A 
HETATM    9  N   UNL     1      40.082 -13.900   3.246  1.00  0.00    -0.229 NA
HETATM   10  C   UNL     1      39.918 -13.879   1.865  1.00  0.00     0.157 A 
HETATM   11  C   UNL     1      39.479 -12.623   1.486  1.00  0.00     0.126 A 
HETATM   12  N   UNL     1      39.384 -11.890   2.637  1.00  0.00    -0.352 N 
HETATM   13  H   UNL     1      39.095 -10.921   2.701  1.00  0.00     0.166 HD
BRANCH  10  14
HETATM   14  C   UNL     1      40.200 -15.076   0.994  1.00  0.00     0.436 C 
HETATM   15  F   UNL     1      39.504 -15.031  -0.175  1.00  0.00    -0.165 F 
HETATM   16  F   UNL     1      41.515 -15.163   0.667  1.00  0.00    -0.165 F 
HETATM   17  F   UNL     1      39.862 -16.237   1.610  1.00  0.00    -0.165 F 
ENDBRANCH  10  14
ENDBRANCH   5   8
BRANCH   1  18
HETATM   18  C   UNL     1      43.459 -14.334   6.333  1.00  0.00     0.275 C 
BRANCH  18  19
HETATM   19  C   UNL     1      43.344 -15.516   5.445  1.00  0.00    -0.001 A 
HETATM   20  C   UNL     1      43.321 -16.848   5.828  1.00  0.00     0.057 A 
HETATM   21  O   UNL     1      43.180 -17.649   4.740  1.00  0.00    -0.320 OA
HETATM   22  C   UNL     1      43.414 -17.540   7.133  1.00  0.00     0.077 C 
HETATM   23  C   UNL     1      43.136 -16.849   3.644  1.00  0.00     0.050 A 
HETATM   24  C   UNL     1      43.000 -17.527   2.337  1.00  0.00     0.076 C 
HETATM   25  C   UNL     1      43.237 -15.528   4.022  1.00  0.00     0.043 A 
ENDBRANCH  18  19
ENDBRANCH   1  18
TORSDOF 4
ENDMDL
