MODEL 1
REMARK VINA RESULT:      -8.0      0.000      0.000
REMARK  5 active torsions:
REMARK  status: ('A' for Active; 'I' for Inactive)
REMARK    1  A    between atoms: C_6  and  N_7 
REMARK       I    between atoms: N_7  and  C_8 
REMARK    2  A    between atoms: C_8  and  C_9 
REMARK    3  A    between atoms: C_11  and  O_12 
REMARK    4  A    between atoms: C_15  and  O_16 
REMARK    5  A    between atoms: C_20  and  C_21 
ROOT
HETATM    1  C   UNL     1      43.213 -19.577   2.257  1.00  0.00     0.073 C 
HETATM    2  C   UNL     1      43.559 -18.574   3.295  1.00  0.00     0.065 A 
HETATM    3  N   UNL     1      44.321 -18.927   4.338  1.00  0.00    -0.177 NA
HETATM    4  N   UNL     1      44.397 -17.807   5.078  1.00  0.00    -0.262 N 
HETATM    5  H   UNL     1      44.914 -17.812   5.953  1.00  0.00     0.191 HD
HETATM    6  C   UNL     1      43.740 -16.736   4.527  1.00  0.00     0.137 A 
HETATM    7  C   UNL     1      43.164 -17.209   3.365  1.00  0.00     0.046 A 
ENDROOT
BRANCH   6   8
HETATM    8  N   UNL     1      43.715 -15.474   5.091  1.00  0.00    -0.307 N 
HETATM    9  C   UNL     1      42.585 -14.970   5.705  1.00  0.00     0.257 C 
HETATM   10  O   UNL     1      41.511 -15.551   5.820  1.00  0.00    -0.267 OA
HETATM   11  H   UNL     1      44.534 -14.888   4.972  1.00  0.00     0.170 HD
BRANCH   9  12
HETATM   12  C   UNL     1      42.735 -13.585   6.200  1.00  0.00     0.037 A 
HETATM   13  C   UNL     1      41.761 -12.645   5.860  1.00  0.00     0.054 A 
HETATM   14  C   UNL     1      41.914 -11.316   6.249  1.00  0.00     0.071 A 
HETATM   15  C   UNL     1      43.023 -10.952   7.016  1.00  0.00     0.073 A 
HETATM   16  C   UNL     1      43.983 -11.902   7.390  1.00  0.00     0.071 A 
HETATM   17  C   UNL     1      43.847 -13.224   6.971  1.00  0.00     0.054 A 
BRANCH  14  18
HETATM   18  O   UNL     1      40.923 -10.477   5.820  1.00  0.00    -0.356 OA
HETATM   19  C   UNL     1      39.585 -10.858   6.120  1.00  0.00     0.210 C 
ENDBRANCH  14  18
BRANCH  16  20
HETATM   20  O   UNL     1      45.008 -11.406   8.149  1.00  0.00    -0.356 OA
HETATM   21  C   UNL     1      45.982 -10.611   7.482  1.00  0.00     0.210 C 
ENDBRANCH  16  20
ENDBRANCH   9  12
ENDBRANCH   6   8
BRANCH   7  22
HETATM   22  C   UNL     1      42.336 -16.420   2.474  1.00  0.00    -0.020 A 
HETATM   23  C   UNL     1      40.945 -16.572   2.486  1.00  0.00     0.014 A 
HETATM   24  C   UNL     1      40.148 -15.814   1.623  1.00  0.00     0.020 A 
HETATM   25  C   UNL     1      40.743 -14.903   0.752  1.00  0.00     0.011 A 
HETATM   26 BR   UNL     1      39.664 -13.881  -0.417  1.00  0.00    -0.051 Br
HETATM   27  C   UNL     1      42.127 -14.739   0.735  1.00  0.00     0.020 A 
HETATM   28  C   UNL     1      42.922 -15.496   1.599  1.00  0.00     0.014 A 
ENDBRANCH   7  22
TORSDOF 5
ENDMDL
MODEL 2
REMARK VINA RESULT:      -7.9      0.540      2.335
REMARK  5 active torsions:
REMARK  status: ('A' for Active; 'I' for Inactive)
REMARK    1  A    between atoms: C_6  and  N_7 
REMARK       I    between atoms: N_7  and  C_8 
REMARK    2  A    between atoms: C_8  and  C_9 
REMARK    3  A    between atoms: C_11  and  O_12 
REMARK    4  A    between atoms: C_15  and  O_16 
REMARK    5  A    between atoms: C_20  and  C_21 
ROOT
HETATM    1  C   UNL     1      43.213 -19.500   2.339  1.00  0.00     0.073 C 
HETATM    2  C   UNL     1      43.557 -18.454   3.334  1.00  0.00     0.065 A 
HETATM    3  N   UNL     1      44.329 -18.759   4.386  1.00  0.00    -0.177 NA
HETATM    4  N   UNL     1      44.399 -17.609   5.081  1.00  0.00    -0.262 N 
HETATM    5  H   UNL     1      44.922 -17.576   5.952  1.00  0.00     0.191 HD
HETATM    6  C   UNL     1      43.729 -16.567   4.492  1.00  0.00     0.137 A 
HETATM    7  C   UNL     1      43.150 -17.090   3.353  1.00  0.00     0.046 A 
ENDROOT
BRANCH   6   8
HETATM    8  N   UNL     1      43.696 -15.284   5.007  1.00  0.00    -0.307 N 
HETATM    9  C   UNL     1      42.593 -14.796   5.681  1.00  0.00     0.257 C 
HETATM   10  O   UNL     1      41.554 -15.409   5.897  1.00  0.00    -0.267 OA
HETATM   11  H   UNL     1      44.481 -14.675   4.805  1.00  0.00     0.170 HD
BRANCH   9  12
HETATM   12  C   UNL     1      42.725 -13.386   6.109  1.00  0.00     0.037 A 
HETATM   13  C   UNL     1      43.806 -13.032   6.917  1.00  0.00     0.054 A 
HETATM   14  C   UNL     1      43.916 -11.728   7.396  1.00  0.00     0.071 A 
HETATM   15  C   UNL     1      42.962 -10.780   7.022  1.00  0.00     0.073 A 
HETATM   16  C   UNL     1      41.896 -11.125   6.179  1.00  0.00     0.071 A 
HETATM   17  C   UNL     1      41.768 -12.437   5.729  1.00  0.00     0.054 A 
BRANCH  14  18
HETATM   18  O   UNL     1      44.989 -11.509   8.216  1.00  0.00    -0.356 OA
HETATM   19  C   UNL     1      45.871 -10.455   7.850  1.00  0.00     0.210 C 
ENDBRANCH  14  18
BRANCH  16  20
HETATM   20  O   UNL     1      41.045 -10.093   5.887  1.00  0.00    -0.356 OA
HETATM   21  C   UNL     1      41.485  -9.147   4.919  1.00  0.00     0.210 C 
ENDBRANCH  16  20
ENDBRANCH   9  12
ENDBRANCH   6   8
BRANCH   7  22
HETATM   22  C   UNL     1      42.309 -16.345   2.438  1.00  0.00    -0.020 A 
HETATM   23  C   UNL     1      40.927 -16.561   2.416  1.00  0.00     0.014 A 
HETATM   24  C   UNL     1      40.118 -15.844   1.529  1.00  0.00     0.020 A 
HETATM   25  C   UNL     1      40.691 -14.910   0.668  1.00  0.00     0.011 A 
HETATM   26 BR   UNL     1      39.597 -13.945  -0.533  1.00  0.00    -0.051 Br
HETATM   27  C   UNL     1      42.066 -14.683   0.685  1.00  0.00     0.020 A 
HETATM   28  C   UNL     1      42.874 -15.398   1.572  1.00  0.00     0.014 A 
ENDBRANCH   7  22
TORSDOF 5
ENDMDL
MODEL 3
REMARK VINA RESULT:      -7.8      3.744      6.941
REMARK  5 active torsions:
REMARK  status: ('A' for Active; 'I' for Inactive)
REMARK    1  A    between atoms: C_6  and  N_7 
REMARK       I    between atoms: N_7  and  C_8 
REMARK    2  A    between atoms: C_8  and  C_9 
REMARK    3  A    between atoms: C_11  and  O_12 
REMARK    4  A    between atoms: C_15  and  O_16 
REMARK    5  A    between atoms: C_20  and  C_21 
ROOT
HETATM    1  C   UNL     1      43.552 -15.318   6.960  1.00  0.00     0.073 C 
HETATM    2  C   UNL     1      43.054 -14.563   5.784  1.00  0.00     0.065 A 
HETATM    3  N   UNL     1      42.711 -13.275   5.912  1.00  0.00    -0.177 NA
HETATM    4  N   UNL     1      42.279 -12.931   4.685  1.00  0.00    -0.262 N 
HETATM    5  H   UNL     1      41.937 -11.989   4.515  1.00  0.00     0.191 HD
HETATM    6  C   UNL     1      42.368 -13.944   3.765  1.00  0.00     0.137 A 
HETATM    7  C   UNL     1      42.856 -15.035   4.456  1.00  0.00     0.046 A 
ENDROOT
BRANCH   6   8
HETATM    8  N   UNL     1      42.018 -13.809   2.434  1.00  0.00    -0.307 N 
HETATM    9  C   UNL     1      40.734 -13.476   2.047  1.00  0.00     0.257 C 
HETATM   10  O   UNL     1      39.788 -13.270   2.798  1.00  0.00    -0.267 OA
HETATM   11  H   UNL     1      42.716 -14.041   1.737  1.00  0.00     0.170 HD
BRANCH   9  12
HETATM   12  C   UNL     1      40.540 -13.432   0.581  1.00  0.00     0.037 A 
HETATM   13  C   UNL     1      41.077 -12.359  -0.131  1.00  0.00     0.054 A 
HETATM   14  C   UNL     1      40.847 -12.251  -1.501  1.00  0.00     0.071 A 
HETATM   15  C   UNL     1      40.117 -13.248  -2.152  1.00  0.00     0.073 A 
HETATM   16  C   UNL     1      39.608 -14.346  -1.444  1.00  0.00     0.071 A 
HETATM   17  C   UNL     1      39.809 -14.435  -0.069  1.00  0.00     0.054 A 
BRANCH  14  18
HETATM   18  O   UNL     1      41.382 -11.136  -2.085  1.00  0.00    -0.356 OA
HETATM   19  C   UNL     1      40.505 -10.344  -2.878  1.00  0.00     0.210 C 
ENDBRANCH  14  18
BRANCH  16  20
HETATM   20  O   UNL     1      38.924 -15.250  -2.211  1.00  0.00    -0.356 OA
HETATM   21  C   UNL     1      38.298 -14.754  -3.390  1.00  0.00     0.210 C 
ENDBRANCH  16  20
ENDBRANCH   9  12
ENDBRANCH   6   8
BRANCH   7  22
HETATM   22  C   UNL     1      43.075 -16.347   3.879  1.00  0.00    -0.020 A 
HETATM   23  C   UNL     1      44.060 -17.192   4.403  1.00  0.00     0.014 A 
HETATM   24  C   UNL     1      44.271 -18.455   3.843  1.00  0.00     0.020 A 
HETATM   25  C   UNL     1      43.497 -18.873   2.763  1.00  0.00     0.011 A 
HETATM   26 BR   UNL     1      43.788 -20.580   2.004  1.00  0.00    -0.051 Br
HETATM   27  C   UNL     1      42.510 -18.042   2.236  1.00  0.00     0.020 A 
HETATM   28  C   UNL     1      42.297 -16.781   2.797  1.00  0.00     0.014 A 
ENDBRANCH   7  22
TORSDOF 5
ENDMDL
MODEL 4
REMARK VINA RESULT:      -7.6      3.501      6.753
REMARK  5 active torsions:
REMARK  status: ('A' for Active; 'I' for Inactive)
REMARK    1  A    between atoms: C_6  and  N_7 
REMARK       I    between atoms: N_7  and  C_8 
REMARK    2  A    between atoms: C_8  and  C_9 
REMARK    3  A    between atoms: C_11  and  O_12 
REMARK    4  A    between atoms: C_15  and  O_16 
REMARK    5  A    between atoms: C_20  and  C_21 
ROOT
HETATM    1  C   UNL     1      39.052 -11.536  -0.094  1.00  0.00     0.073 C 
HETATM    2  C   UNL     1      39.610 -12.869   0.246  1.00  0.00     0.065 A 
HETATM    3  N   UNL     1      39.487 -13.886  -0.617  1.00  0.00    -0.177 NA
HETATM    4  N   UNL     1      40.059 -14.923   0.020  1.00  0.00    -0.262 N 
HETATM    5  H   UNL     1      40.080 -15.838  -0.422  1.00  0.00     0.191 HD
HETATM    6  C   UNL     1      40.579 -14.598   1.246  1.00  0.00     0.137 A 
HETATM    7  C   UNL     1      40.287 -13.262   1.434  1.00  0.00     0.046 A 
ENDROOT
BRANCH   6   8
HETATM    8  N   UNL     1      41.247 -15.494   2.061  1.00  0.00    -0.307 N 
HETATM    9  C   UNL     1      42.621 -15.468   2.204  1.00  0.00     0.257 C 
HETATM   10  O   UNL     1      43.386 -14.686   1.650  1.00  0.00    -0.267 OA
HETATM   11  H   UNL     1      40.704 -16.231   2.496  1.00  0.00     0.170 HD
BRANCH   9  12
HETATM   12  C   UNL     1      43.156 -16.537   3.075  1.00  0.00     0.037 A 
HETATM   13  C   UNL     1      43.552 -16.206   4.371  1.00  0.00     0.054 A 
HETATM   14  C   UNL     1      44.128 -17.177   5.189  1.00  0.00     0.071 A 
HETATM   15  C   UNL     1      44.260 -18.482   4.711  1.00  0.00     0.073 A 
HETATM   16  C   UNL     1      43.828 -18.824   3.422  1.00  0.00     0.071 A 
HETATM   17  C   UNL     1      43.284 -17.846   2.593  1.00  0.00     0.054 A 
BRANCH  14  18
HETATM   18  O   UNL     1      44.520 -16.728   6.420  1.00  0.00    -0.356 OA
HETATM   19  C   UNL     1      43.497 -16.544   7.391  1.00  0.00     0.210 C 
ENDBRANCH  14  18
BRANCH  16  20
HETATM   20  O   UNL     1      44.009 -20.141   3.093  1.00  0.00    -0.356 OA
HETATM   21  C   UNL     1      43.668 -20.529   1.767  1.00  0.00     0.210 C 
ENDBRANCH  16  20
ENDBRANCH   9  12
ENDBRANCH   6   8
BRANCH   7  22
HETATM   22  C   UNL     1      40.620 -12.504   2.624  1.00  0.00    -0.020 A 
HETATM   23  C   UNL     1      41.756 -11.687   2.644  1.00  0.00     0.014 A 
HETATM   24  C   UNL     1      42.078 -10.959   3.793  1.00  0.00     0.020 A 
HETATM   25  C   UNL     1      41.263 -11.048   4.920  1.00  0.00     0.011 A 
HETATM   26 BR   UNL     1      41.702 -10.067   6.476  1.00  0.00    -0.051 Br
HETATM   27  C   UNL     1      40.126 -11.854   4.910  1.00  0.00     0.020 A 
HETATM   28  C   UNL     1      39.804 -12.579   3.761  1.00  0.00     0.014 A 
ENDBRANCH   7  22
TORSDOF 5
ENDMDL
MODEL 5
REMARK VINA RESULT:      -7.5      3.767      6.714
REMARK  5 active torsions:
REMARK  status: ('A' for Active; 'I' for Inactive)
REMARK    1  A    between atoms: C_6  and  N_7 
REMARK       I    between atoms: N_7  and  C_8 
REMARK    2  A    between atoms: C_8  and  C_9 
REMARK    3  A    between atoms: C_11  and  O_12 
REMARK    4  A    between atoms: C_15  and  O_16 
REMARK    5  A    between atoms: C_20  and  C_21 
ROOT
HETATM    1  C   UNL     1      38.066 -11.817  -1.452  1.00  0.00     0.073 C 
HETATM    2  C   UNL     1      38.850 -13.003  -1.026  1.00  0.00     0.065 A 
HETATM    3  N   UNL     1      38.769 -14.144  -1.722  1.00  0.00    -0.177 NA
HETATM    4  N   UNL     1      39.561 -14.994  -1.045  1.00  0.00    -0.262 N 
HETATM    5  H   UNL     1      39.660 -15.955  -1.362  1.00  0.00     0.191 HD
HETATM    6  C   UNL     1      40.178 -14.427   0.041  1.00  0.00     0.137 A 
HETATM    7  C   UNL     1      39.721 -13.126   0.093  1.00  0.00     0.046 A 
ENDROOT
BRANCH   6   8
HETATM    8  N   UNL     1      41.066 -15.099   0.860  1.00  0.00    -0.307 N 
HETATM    9  C   UNL     1      40.648 -15.780   1.988  1.00  0.00     0.257 C 
HETATM   10  O   UNL     1      39.491 -15.868   2.386  1.00  0.00    -0.267 OA
HETATM   11  H   UNL     1      42.055 -15.013   0.655  1.00  0.00     0.170 HD
BRANCH   9  12
HETATM   12  C   UNL     1      41.748 -16.390   2.766  1.00  0.00     0.037 A 
HETATM   13  C   UNL     1      42.191 -15.739   3.918  1.00  0.00     0.054 A 
HETATM   14  C   UNL     1      43.275 -16.250   4.629  1.00  0.00     0.071 A 
HETATM   15  C   UNL     1      43.875 -17.437   4.202  1.00  0.00     0.073 A 
HETATM   16  C   UNL     1      43.406 -18.112   3.065  1.00  0.00     0.071 A 
HETATM   17  C   UNL     1      42.346 -17.581   2.335  1.00  0.00     0.054 A 
BRANCH  14  18
HETATM   18  O   UNL     1      43.650 -15.505   5.713  1.00  0.00    -0.356 OA
HETATM   19  C   UNL     1      43.054 -14.220   5.845  1.00  0.00     0.210 C 
ENDBRANCH  14  18
BRANCH  16  20
HETATM   20  O   UNL     1      44.081 -19.265   2.771  1.00  0.00    -0.356 OA
HETATM   21  C   UNL     1      43.403 -20.225   1.969  1.00  0.00     0.210 C 
ENDBRANCH  16  20
ENDBRANCH   9  12
ENDBRANCH   6   8
BRANCH   7  22
HETATM   22  C   UNL     1      40.086 -12.163   1.113  1.00  0.00    -0.020 A 
HETATM   23  C   UNL     1      41.224 -11.363   0.952  1.00  0.00     0.014 A 
HETATM   24  C   UNL     1      41.577 -10.438   1.938  1.00  0.00     0.020 A 
HETATM   25  C   UNL     1      40.792 -10.311   3.083  1.00  0.00     0.011 A 
HETATM   26 BR   UNL     1      41.274  -9.063   4.418  1.00  0.00    -0.051 Br
HETATM   27  C   UNL     1      39.654 -11.098   3.251  1.00  0.00     0.020 A 
HETATM   28  C   UNL     1      39.300 -12.021   2.265  1.00  0.00     0.014 A 
ENDBRANCH   7  22
TORSDOF 5
ENDMDL
MODEL 6
REMARK VINA RESULT:      -7.5      3.612      6.586
REMARK  5 active torsions:
REMARK  status: ('A' for Active; 'I' for Inactive)
REMARK    1  A    between atoms: C_6  and  N_7 
REMARK       I    between atoms: N_7  and  C_8 
REMARK    2  A    between atoms: C_8  and  C_9 
REMARK    3  A    between atoms: C_11  and  O_12 
REMARK    4  A    between atoms: C_15  and  O_16 
REMARK    5  A    between atoms: C_20  and  C_21 
ROOT
HETATM    1  C   UNL     1      38.424 -11.534  -0.663  1.00  0.00     0.073 C 
HETATM    2  C   UNL     1      39.213 -12.752  -0.351  1.00  0.00     0.065 A 
HETATM    3  N   UNL     1      39.154 -13.814  -1.165  1.00  0.00    -0.177 NA
HETATM    4  N   UNL     1      39.944 -14.724  -0.568  1.00  0.00    -0.262 N 
HETATM    5  H   UNL     1      40.057 -15.645  -0.982  1.00  0.00     0.191 HD
HETATM    6  C   UNL     1      40.538 -14.270   0.582  1.00  0.00     0.137 A 
HETATM    7  C   UNL     1      40.067 -12.985   0.763  1.00  0.00     0.046 A 
ENDROOT
BRANCH   6   8
HETATM    8  N   UNL     1      41.419 -15.018   1.341  1.00  0.00    -0.307 N 
HETATM    9  C   UNL     1      40.991 -15.812   2.387  1.00  0.00     0.257 C 
HETATM   10  O   UNL     1      39.830 -15.945   2.758  1.00  0.00    -0.267 OA
HETATM   11  H   UNL     1      42.410 -14.906   1.159  1.00  0.00     0.170 HD
BRANCH   9  12
HETATM   12  C   UNL     1      42.084 -16.492   3.114  1.00  0.00     0.037 A 
HETATM   13  C   UNL     1      42.693 -17.598   2.520  1.00  0.00     0.054 A 
HETATM   14  C   UNL     1      43.676 -18.304   3.213  1.00  0.00     0.071 A 
HETATM   15  C   UNL     1      44.069 -17.864   4.478  1.00  0.00     0.073 A 
HETATM   16  C   UNL     1      43.484 -16.730   5.061  1.00  0.00     0.071 A 
HETATM   17  C   UNL     1      42.478 -16.046   4.382  1.00  0.00     0.054 A 
BRANCH  14  18
HETATM   18  O   UNL     1      44.167 -19.396   2.552  1.00  0.00    -0.356 OA
HETATM   19  C   UNL     1      43.214 -20.276   1.969  1.00  0.00     0.210 C 
ENDBRANCH  14  18
BRANCH  16  20
HETATM   20  O   UNL     1      43.975 -16.410   6.297  1.00  0.00    -0.356 OA
HETATM   21  C   UNL     1      43.025 -16.193   7.334  1.00  0.00     0.210 C 
ENDBRANCH  16  20
ENDBRANCH   9  12
ENDBRANCH   6   8
BRANCH   7  22
HETATM   22  C   UNL     1      40.407 -12.132   1.885  1.00  0.00    -0.020 A 
HETATM   23  C   UNL     1      39.679 -12.213   3.078  1.00  0.00     0.014 A 
HETATM   24  C   UNL     1      40.005 -11.387   4.158  1.00  0.00     0.020 A 
HETATM   25  C   UNL     1      41.060 -10.483   4.044  1.00  0.00     0.011 A 
HETATM   26 BR   UNL     1      41.497  -9.364   5.503  1.00  0.00    -0.051 Br
HETATM   27  C   UNL     1      41.795 -10.398   2.864  1.00  0.00     0.020 A 
HETATM   28  C   UNL     1      41.470 -11.225   1.786  1.00  0.00     0.014 A 
ENDBRANCH   7  22
TORSDOF 5
ENDMDL
MODEL 7
REMARK VINA RESULT:      -7.4      3.970      6.711
REMARK  5 active torsions:
REMARK  status: ('A' for Active; 'I' for Inactive)
REMARK    1  A    between atoms: C_6  and  N_7 
REMARK       I    between atoms: N_7  and  C_8 
REMARK    2  A    between atoms: C_8  and  C_9 
REMARK    3  A    between atoms: C_11  and  O_12 
REMARK    4  A    between atoms: C_15  and  O_16 
REMARK    5  A    between atoms: C_20  and  C_21 
ROOT
HETATM    1  C   UNL     1      43.490 -17.040   5.309  1.00  0.00     0.073 C 
HETATM    2  C   UNL     1      43.217 -16.622   3.911  1.00  0.00     0.065 A 
HETATM    3  N   UNL     1      43.589 -17.410   2.893  1.00  0.00    -0.177 NA
HETATM    4  N   UNL     1      43.228 -16.717   1.799  1.00  0.00    -0.262 N 
HETATM    5  H   UNL     1      43.420 -17.094   0.874  1.00  0.00     0.191 HD
HETATM    6  C   UNL     1      42.604 -15.528   2.079  1.00  0.00     0.137 A 
HETATM    7  C   UNL     1      42.596 -15.426   3.456  1.00  0.00     0.046 A 
ENDROOT
BRANCH   6   8
HETATM    8  N   UNL     1      42.113 -14.669   1.113  1.00  0.00    -0.307 N 
HETATM    9  C   UNL     1      40.780 -14.665   0.748  1.00  0.00     0.257 C 
HETATM   10  O   UNL     1      39.906 -15.389   1.212  1.00  0.00    -0.267 OA
HETATM   11  H   UNL     1      42.779 -14.090   0.615  1.00  0.00     0.170 HD
BRANCH   9  12
HETATM   12  C   UNL     1      40.457 -13.716  -0.338  1.00  0.00     0.037 A 
HETATM   13  C   UNL     1      39.943 -14.219  -1.534  1.00  0.00     0.054 A 
HETATM   14  C   UNL     1      39.698 -13.357  -2.601  1.00  0.00     0.071 A 
HETATM   15  C   UNL     1      39.931 -11.989  -2.442  1.00  0.00     0.073 A 
HETATM   16  C   UNL     1      40.412 -11.477  -1.229  1.00  0.00     0.071 A 
HETATM   17  C   UNL     1      40.688 -12.344  -0.175  1.00  0.00     0.054 A 
BRANCH  14  18
HETATM   18  O   UNL     1      39.240 -13.968  -3.736  1.00  0.00    -0.356 OA
HETATM   19  C   UNL     1      38.074 -14.772  -3.606  1.00  0.00     0.210 C 
ENDBRANCH  14  18
BRANCH  16  20
HETATM   20  O   UNL     1      40.581 -10.119  -1.213  1.00  0.00    -0.356 OA
HETATM   21  C   UNL     1      41.816  -9.627  -0.705  1.00  0.00     0.210 C 
ENDBRANCH  16  20
ENDBRANCH   9  12
ENDBRANCH   6   8
BRANCH   7  22
HETATM   22  C   UNL     1      42.063 -14.300   4.196  1.00  0.00    -0.020 A 
HETATM   23  C   UNL     1      42.911 -13.269   4.618  1.00  0.00     0.014 A 
HETATM   24  C   UNL     1      42.396 -12.185   5.336  1.00  0.00     0.020 A 
HETATM   25  C   UNL     1      41.035 -12.133   5.629  1.00  0.00     0.011 A 
HETATM   26 BR   UNL     1      40.341 -10.669   6.604  1.00  0.00    -0.051 Br
HETATM   27  C   UNL     1      40.180 -13.150   5.210  1.00  0.00     0.020 A 
HETATM   28  C   UNL     1      40.694 -14.232   4.491  1.00  0.00     0.014 A 
ENDBRANCH   7  22
TORSDOF 5
ENDMDL
MODEL 8
REMARK VINA RESULT:      -7.4      3.238      4.531
REMARK  5 active torsions:
REMARK  status: ('A' for Active; 'I' for Inactive)
REMARK    1  A    between atoms: C_6  and  N_7 
REMARK       I    between atoms: N_7  and  C_8 
REMARK    2  A    between atoms: C_8  and  C_9 
REMARK    3  A    between atoms: C_11  and  O_12 
REMARK    4  A    between atoms: C_15  and  O_16 
REMARK    5  A    between atoms: C_20  and  C_21 
ROOT
HETATM    1  C   UNL     1      39.564 -14.503  -1.084  1.00  0.00     0.073 C 
HETATM    2  C   UNL     1      39.794 -13.558   0.037  1.00  0.00     0.065 A 
HETATM    3  N   UNL     1      39.232 -12.343   0.014  1.00  0.00    -0.177 NA
HETATM    4  N   UNL     1      39.676 -11.759   1.142  1.00  0.00    -0.262 N 
HETATM    5  H   UNL     1      39.405 -10.803   1.357  1.00  0.00     0.191 HD
HETATM    6  C   UNL     1      40.474 -12.571   1.906  1.00  0.00     0.137 A 
HETATM    7  C   UNL     1      40.587 -13.753   1.203  1.00  0.00     0.046 A 
ENDROOT
BRANCH   6   8
HETATM    8  N   UNL     1      41.012 -12.197   3.124  1.00  0.00    -0.307 N 
HETATM    9  C   UNL     1      42.093 -11.341   3.213  1.00  0.00     0.257 C 
HETATM   10  O   UNL     1      42.684 -10.830   2.268  1.00  0.00    -0.267 OA
HETATM   11  H   UNL     1      40.639 -12.635   3.958  1.00  0.00     0.170 HD
BRANCH   9  12
HETATM   12  C   UNL     1      42.559 -11.102   4.596  1.00  0.00     0.037 A 
HETATM   13  C   UNL     1      41.728 -10.397   5.468  1.00  0.00     0.054 A 
HETATM   14  C   UNL     1      42.171 -10.093   6.754  1.00  0.00     0.071 A 
HETATM   15  C   UNL     1      43.428 -10.538   7.167  1.00  0.00     0.073 A 
HETATM   16  C   UNL     1      44.249 -11.278   6.304  1.00  0.00     0.071 A 
HETATM   17  C   UNL     1      43.820 -11.552   5.008  1.00  0.00     0.054 A 
BRANCH  14  18
HETATM   18  O   UNL     1      41.292  -9.360   7.503  1.00  0.00    -0.356 OA
HETATM   19  C   UNL     1      39.941  -9.805   7.524  1.00  0.00     0.210 C 
ENDBRANCH  14  18
BRANCH  16  20
HETATM   20  O   UNL     1      45.447 -11.658   6.846  1.00  0.00    -0.356 OA
HETATM   21  C   UNL     1      46.183 -10.664   7.550  1.00  0.00     0.210 C 
ENDBRANCH  16  20
ENDBRANCH   9  12
ENDBRANCH   6   8
BRANCH   7  22
HETATM   22  C   UNL     1      41.377 -14.892   1.625  1.00  0.00    -0.020 A 
HETATM   23  C   UNL     1      42.769 -14.877   1.480  1.00  0.00     0.014 A 
HETATM   24  C   UNL     1      43.530 -15.978   1.885  1.00  0.00     0.020 A 
HETATM   25  C   UNL     1      42.898 -17.092   2.435  1.00  0.00     0.011 A 
HETATM   26 BR   UNL     1      43.928 -18.582   2.977  1.00  0.00    -0.051 Br
HETATM   27  C   UNL     1      41.514 -17.117   2.589  1.00  0.00     0.020 A 
HETATM   28  C   UNL     1      40.754 -16.015   2.187  1.00  0.00     0.014 A 
ENDBRANCH   7  22
TORSDOF 5
ENDMDL
MODEL 9
REMARK VINA RESULT:      -7.2      1.639      3.408
REMARK  5 active torsions:
REMARK  status: ('A' for Active; 'I' for Inactive)
REMARK    1  A    between atoms: C_6  and  N_7 
REMARK       I    between atoms: N_7  and  C_8 
REMARK    2  A    between atoms: C_8  and  C_9 
REMARK    3  A    between atoms: C_11  and  O_12 
REMARK    4  A    between atoms: C_15  and  O_16 
REMARK    5  A    between atoms: C_20  and  C_21 
ROOT
HETATM    1  C   UNL     1      43.967 -18.214   4.315  1.00  0.00     0.073 C 
HETATM    2  C   UNL     1      43.801 -16.955   5.083  1.00  0.00     0.065 A 
HETATM    3  N   UNL     1      44.351 -16.835   6.298  1.00  0.00    -0.177 NA
HETATM    4  N   UNL     1      43.974 -15.609   6.705  1.00  0.00    -0.262 N 
HETATM    5  H   UNL     1      44.251 -15.273   7.624  1.00  0.00     0.191 HD
HETATM    6  C   UNL     1      43.234 -14.923   5.776  1.00  0.00     0.137 A 
HETATM    7  C   UNL     1      43.086 -15.783   4.707  1.00  0.00     0.046 A 
ENDROOT
BRANCH   6   8
HETATM    8  N   UNL     1      42.772 -13.633   5.960  1.00  0.00    -0.307 N 
HETATM    9  C   UNL     1      43.588 -12.625   6.436  1.00  0.00     0.257 C 
HETATM   10  O   UNL     1      44.769 -12.742   6.742  1.00  0.00    -0.267 OA
HETATM   11  H   UNL     1      41.784 -13.461   5.811  1.00  0.00     0.170 HD
BRANCH   9  12
HETATM   12  C   UNL     1      42.900 -11.328   6.617  1.00  0.00     0.037 A 
HETATM   13  C   UNL     1      43.603 -10.276   7.205  1.00  0.00     0.054 A 
HETATM   14  C   UNL     1      42.959  -9.066   7.456  1.00  0.00     0.071 A 
HETATM   15  C   UNL     1      41.625  -8.910   7.072  1.00  0.00     0.073 A 
HETATM   16  C   UNL     1      40.929  -9.954   6.447  1.00  0.00     0.071 A 
HETATM   17  C   UNL     1      41.564 -11.174   6.228  1.00  0.00     0.054 A 
BRANCH  14  18
HETATM   18  O   UNL     1      43.732  -8.125   8.077  1.00  0.00    -0.356 OA
HETATM   19  C   UNL     1      45.005  -8.550   8.550  1.00  0.00     0.210 C 
ENDBRANCH  14  18
BRANCH  16  20
HETATM   20  O   UNL     1      39.635  -9.655   6.116  1.00  0.00    -0.356 OA
HETATM   21  C   UNL     1      38.676 -10.698   6.249  1.00  0.00     0.210 C 
ENDBRANCH  16  20
ENDBRANCH   9  12
ENDBRANCH   6   8
BRANCH   7  22
HETATM   22  C   UNL     1      42.334 -15.484   3.505  1.00  0.00    -0.020 A 
HETATM   23  C   UNL     1      42.887 -14.666   2.512  1.00  0.00     0.014 A 
HETATM   24  C   UNL     1      42.159 -14.375   1.355  1.00  0.00     0.020 A 
HETATM   25  C   UNL     1      40.880 -14.903   1.190  1.00  0.00     0.011 A 
HETATM   26 BR   UNL     1      39.894 -14.505  -0.372  1.00  0.00    -0.051 Br
HETATM   27  C   UNL     1      40.321 -15.722   2.169  1.00  0.00     0.020 A 
HETATM   28  C   UNL     1      41.049 -16.015   3.324  1.00  0.00     0.014 A 
ENDBRANCH   7  22
TORSDOF 5
ENDMDL
MODEL 10
REMARK VINA RESULT:      -7.2      4.692      7.913
REMARK  5 active torsions:
REMARK  status: ('A' for Active; 'I' for Inactive)
REMARK    1  A    between atoms: C_6  and  N_7 
REMARK       I    between atoms: N_7  and  C_8 
REMARK    2  A    between atoms: C_8  and  C_9 
REMARK    3  A    between atoms: C_11  and  O_12 
REMARK    4  A    between atoms: C_15  and  O_16 
REMARK    5  A    between atoms: C_20  and  C_21 
ROOT
HETATM    1  C   UNL     1      44.222 -12.171   5.588  1.00  0.00     0.073 C 
HETATM    2  C   UNL     1      43.362 -11.738   4.459  1.00  0.00     0.065 A 
HETATM    3  N   UNL     1      43.018 -10.449   4.337  1.00  0.00    -0.177 NA
HETATM    4  N   UNL     1      42.224 -10.427   3.251  1.00  0.00    -0.262 N 
HETATM    5  H   UNL     1      41.806  -9.552   2.948  1.00  0.00     0.191 HD
HETATM    6  C   UNL     1      42.077 -11.651   2.651  1.00  0.00     0.137 A 
HETATM    7  C   UNL     1      42.796 -12.537   3.427  1.00  0.00     0.046 A 
ENDROOT
BRANCH   6   8
HETATM    8  N   UNL     1      41.338 -11.861   1.501  1.00  0.00    -0.307 N 
HETATM    9  C   UNL     1      41.366 -10.974   0.442  1.00  0.00     0.257 C 
HETATM   10  O   UNL     1      42.018  -9.936   0.392  1.00  0.00    -0.267 OA
HETATM   11  H   UNL     1      40.705 -12.652   1.485  1.00  0.00     0.170 HD
BRANCH   9  12
HETATM   12  C   UNL     1      40.470 -11.341  -0.675  1.00  0.00     0.037 A 
HETATM   13  C   UNL     1      40.067 -12.672  -0.798  1.00  0.00     0.054 A 
HETATM   14  C   UNL     1      39.283 -13.061  -1.883  1.00  0.00     0.071 A 
HETATM   15  C   UNL     1      38.873 -12.101  -2.810  1.00  0.00     0.073 A 
HETATM   16  C   UNL     1      39.246 -10.757  -2.667  1.00  0.00     0.071 A 
HETATM   17  C   UNL     1      40.058 -10.375  -1.602  1.00  0.00     0.054 A 
BRANCH  14  18
HETATM   18  O   UNL     1      38.988 -14.396  -1.924  1.00  0.00    -0.356 OA
HETATM   19  C   UNL     1      38.432 -14.893  -3.136  1.00  0.00     0.210 C 
ENDBRANCH  14  18
BRANCH  16  20
HETATM   20  O   UNL     1      38.764  -9.927  -3.643  1.00  0.00    -0.356 OA
HETATM   21  C   UNL     1      37.351  -9.865  -3.799  1.00  0.00     0.210 C 
ENDBRANCH  16  20
ENDBRANCH   9  12
ENDBRANCH   6   8
BRANCH   7  22
HETATM   22  C   UNL     1      42.888 -13.963   3.182  1.00  0.00    -0.020 A 
HETATM   23  C   UNL     1      43.404 -14.438   1.971  1.00  0.00     0.014 A 
HETATM   24  C   UNL     1      43.488 -15.813   1.734  1.00  0.00     0.020 A 
HETATM   25  C   UNL     1      43.059 -16.712   2.709  1.00  0.00     0.011 A 
HETATM   26 BR   UNL     1      43.169 -18.571   2.386  1.00  0.00    -0.051 Br
HETATM   27  C   UNL     1      42.549 -16.250   3.921  1.00  0.00     0.020 A 
HETATM   28  C   UNL     1      42.467 -14.876   4.158  1.00  0.00     0.014 A 
ENDBRANCH   7  22
TORSDOF 5
ENDMDL
