MODEL 1
REMARK VINA RESULT:      -8.9      0.000      0.000
REMARK  2 active torsions:
REMARK  status: ('A' for Active; 'I' for Inactive)
REMARK    1  A    between atoms: C_15  and  C_16 
REMARK    2  A    between atoms: C_19  and  O_20 
ROOT
HETATM    1  C   UNL     1      43.389 -19.246   2.566  1.00  0.00     0.048 C 
HETATM    2  C   UNL     1      43.181 -17.764   2.685  1.00  0.00    -0.061 A 
HETATM    3  C   UNL     1      43.382 -17.107   3.914  1.00  0.00     0.021 A 
HETATM    4  C   UNL     1      43.219 -15.708   3.997  1.00  0.00    -0.000 A 
HETATM    5  C   UNL     1      42.849 -15.011   2.840  1.00  0.00     0.043 A 
HETATM    6  N   UNL     1      42.748 -13.678   3.175  1.00  0.00    -0.353 N 
HETATM    7  H   UNL     1      42.478 -12.932   2.546  1.00  0.00     0.166 HD
HETATM    8  C   UNL     1      43.123 -13.510   4.472  1.00  0.00     0.066 A 
HETATM    9  C   UNL     1      43.351 -14.746   5.039  1.00  0.00    -0.017 A 
HETATM   10  C   UNL     1      43.687 -14.888   6.498  1.00  0.00     0.043 C 
HETATM   11  C   UNL     1      43.467 -13.546   7.282  1.00  0.00     0.018 C 
HETATM   12  C   UNL     1      44.052 -12.362   6.485  1.00  0.00     0.065 C 
HETATM   13  C   UNL     1      43.218 -12.309   5.226  1.00  0.00     0.082 C 
HETATM   14  N   UNL     1      42.520 -11.243   5.012  1.00  0.00    -0.203 NA
HETATM   15  C   UNL     1      43.924 -10.883   6.871  1.00  0.00     0.121 C 
HETATM   16  N   UNL     1      42.766 -10.422   6.071  1.00  0.00    -0.207 NA
HETATM   17  C   UNL     1      42.638 -15.642   1.610  1.00  0.00     0.031 A 
HETATM   18  C   UNL     1      42.819 -17.027   1.553  1.00  0.00     0.009 A 
HETATM   19  H   UNL     1      41.932 -10.362   6.661  1.00  0.00     0.149 HD
ENDROOT
BRANCH  15  20
HETATM   20  C   UNL     1      43.951 -10.366   8.292  1.00  0.00    -0.038 A 
HETATM   21  C   UNL     1      42.809  -9.719   8.803  1.00  0.00     0.011 A 
HETATM   22  C   UNL     1      42.813  -9.110  10.060  1.00  0.00     0.037 A 
HETATM   23  C   UNL     1      43.962  -9.116  10.844  1.00  0.00     0.068 A 
HETATM   24  C   UNL     1      45.107  -9.739  10.354  1.00  0.00     0.037 A 
HETATM   25  C   UNL     1      45.106 -10.341   9.083  1.00  0.00     0.011 A 
BRANCH  23  26
HETATM   26  O   UNL     1      43.838  -8.466  12.039  1.00  0.00    -0.356 OA
HETATM   27  C   UNL     1      42.744  -8.838  12.867  1.00  0.00     0.210 C 
ENDBRANCH  23  26
ENDBRANCH  15  20
TORSDOF 2
ENDMDL
MODEL 2
REMARK VINA RESULT:      -8.8      0.870      1.445
REMARK  2 active torsions:
REMARK  status: ('A' for Active; 'I' for Inactive)
REMARK    1  A    between atoms: C_15  and  C_16 
REMARK    2  A    between atoms: C_19  and  O_20 
ROOT
HETATM    1  C   UNL     1      43.941 -20.455   3.685  1.00  0.00     0.048 C 
HETATM    2  C   UNL     1      43.573 -19.008   3.528  1.00  0.00    -0.061 A 
HETATM    3  C   UNL     1      43.759 -18.101   4.589  1.00  0.00     0.021 A 
HETATM    4  C   UNL     1      43.443 -16.738   4.410  1.00  0.00    -0.000 A 
HETATM    5  C   UNL     1      42.939 -16.328   3.169  1.00  0.00     0.043 A 
HETATM    6  N   UNL     1      42.704 -14.972   3.246  1.00  0.00    -0.353 N 
HETATM    7  H   UNL     1      42.321 -14.399   2.504  1.00  0.00     0.166 HD
HETATM    8  C   UNL     1      43.122 -14.510   4.454  1.00  0.00     0.066 A 
HETATM    9  C   UNL     1      43.516 -15.578   5.234  1.00  0.00    -0.017 A 
HETATM   10  C   UNL     1      43.938 -15.389   6.665  1.00  0.00     0.043 C 
HETATM   11  C   UNL     1      43.606 -13.946   7.187  1.00  0.00     0.018 C 
HETATM   12  C   UNL     1      44.013 -12.894   6.135  1.00  0.00     0.065 C 
HETATM   13  C   UNL     1      43.118 -13.179   4.953  1.00  0.00     0.082 C 
HETATM   14  N   UNL     1      42.293 -12.254   4.586  1.00  0.00    -0.203 NA
HETATM   15  C   UNL     1      43.738 -11.388   6.235  1.00  0.00     0.121 C 
HETATM   16  N   UNL     1      42.497 -11.216   5.445  1.00  0.00    -0.207 NA
HETATM   17  C   UNL     1      42.741 -17.211   2.103  1.00  0.00     0.031 A 
HETATM   18  C   UNL     1      43.074 -18.554   2.303  1.00  0.00     0.009 A 
HETATM   19  H   UNL     1      41.692 -11.124   6.070  1.00  0.00     0.149 HD
ENDROOT
BRANCH  15  20
HETATM   20  C   UNL     1      43.776 -10.596   7.523  1.00  0.00    -0.038 A 
HETATM   21  C   UNL     1      44.934 -10.649   8.322  1.00  0.00     0.011 A 
HETATM   22  C   UNL     1      44.985 -10.042   9.580  1.00  0.00     0.037 A 
HETATM   23  C   UNL     1      43.876  -9.372  10.086  1.00  0.00     0.068 A 
HETATM   24  C   UNL     1      42.715  -9.317   9.317  1.00  0.00     0.037 A 
HETATM   25  C   UNL     1      42.661  -9.939   8.058  1.00  0.00     0.011 A 
BRANCH  23  26
HETATM   26  O   UNL     1      44.051  -8.845  11.334  1.00  0.00    -0.356 OA
HETATM   27  C   UNL     1      42.912  -8.800  12.184  1.00  0.00     0.210 C 
ENDBRANCH  23  26
ENDBRANCH  15  20
TORSDOF 2
ENDMDL
MODEL 3
REMARK VINA RESULT:      -8.7      6.015      8.528
REMARK  2 active torsions:
REMARK  status: ('A' for Active; 'I' for Inactive)
REMARK    1  A    between atoms: C_15  and  C_16 
REMARK    2  A    between atoms: C_19  and  O_20 
ROOT
HETATM    1  C   UNL     1      36.613 -11.354  -3.039  1.00  0.00     0.048 C 
HETATM    2  C   UNL     1      37.708 -11.342  -2.012  1.00  0.00    -0.061 A 
HETATM    3  C   UNL     1      38.175 -12.544  -1.447  1.00  0.00     0.021 A 
HETATM    4  C   UNL     1      39.231 -12.516  -0.511  1.00  0.00    -0.000 A 
HETATM    5  C   UNL     1      39.781 -11.276  -0.164  1.00  0.00     0.043 A 
HETATM    6  N   UNL     1      40.777 -11.509   0.759  1.00  0.00    -0.353 N 
HETATM    7  H   UNL     1      41.342 -10.798   1.207  1.00  0.00     0.166 HD
HETATM    8  C   UNL     1      40.925 -12.849   0.933  1.00  0.00     0.066 A 
HETATM    9  C   UNL     1      39.941 -13.507   0.225  1.00  0.00    -0.017 A 
HETATM   10  C   UNL     1      39.786 -15.001   0.303  1.00  0.00     0.043 C 
HETATM   11  C   UNL     1      40.659 -15.620   1.452  1.00  0.00     0.018 C 
HETATM   12  C   UNL     1      42.075 -15.008   1.434  1.00  0.00     0.065 C 
HETATM   13  C   UNL     1      41.855 -13.548   1.750  1.00  0.00     0.082 C 
HETATM   14  N   UNL     1      42.390 -13.079   2.830  1.00  0.00    -0.203 NA
HETATM   15  C   UNL     1      43.170 -15.276   2.474  1.00  0.00     0.121 C 
HETATM   16  N   UNL     1      43.043 -14.128   3.403  1.00  0.00    -0.207 NA
HETATM   17  C   UNL     1      39.329 -10.069  -0.707  1.00  0.00     0.031 A 
HETATM   18  C   UNL     1      38.291 -10.126  -1.641  1.00  0.00     0.009 A 
HETATM   19  H   UNL     1      42.552 -14.417   4.252  1.00  0.00     0.149 HD
ENDROOT
BRANCH  15  20
HETATM   20  C   UNL     1      43.399 -16.608   3.151  1.00  0.00    -0.038 A 
HETATM   21  C   UNL     1      43.714 -16.630   4.523  1.00  0.00     0.011 A 
HETATM   22  C   UNL     1      44.058 -17.816   5.177  1.00  0.00     0.037 A 
HETATM   23  C   UNL     1      44.111 -19.017   4.478  1.00  0.00     0.068 A 
HETATM   24  C   UNL     1      43.815 -19.018   3.118  1.00  0.00     0.037 A 
HETATM   25  C   UNL     1      43.480 -17.822   2.458  1.00  0.00     0.011 A 
BRANCH  23  26
HETATM   26  O   UNL     1      44.483 -20.096   5.231  1.00  0.00    -0.356 OA
HETATM   27  C   UNL     1      43.787 -21.314   5.004  1.00  0.00     0.210 C 
ENDBRANCH  23  26
ENDBRANCH  15  20
TORSDOF 2
ENDMDL
MODEL 4
REMARK VINA RESULT:      -8.6      2.928      4.216
REMARK  2 active torsions:
REMARK  status: ('A' for Active; 'I' for Inactive)
REMARK    1  A    between atoms: C_15  and  C_16 
REMARK    2  A    between atoms: C_19  and  O_20 
ROOT
HETATM    1  C   UNL     1      43.649 -20.515   1.548  1.00  0.00     0.048 C 
HETATM    2  C   UNL     1      43.701 -19.609   2.743  1.00  0.00    -0.061 A 
HETATM    3  C   UNL     1      43.392 -18.242   2.621  1.00  0.00     0.021 A 
HETATM    4  C   UNL     1      43.407 -17.413   3.763  1.00  0.00    -0.000 A 
HETATM    5  C   UNL     1      43.744 -17.985   4.996  1.00  0.00     0.043 A 
HETATM    6  N   UNL     1      43.697 -16.985   5.943  1.00  0.00    -0.353 N 
HETATM    7  H   UNL     1      43.910 -17.096   6.927  1.00  0.00     0.166 HD
HETATM    8  C   UNL     1      43.262 -15.835   5.362  1.00  0.00     0.066 A 
HETATM    9  C   UNL     1      43.143 -16.034   4.002  1.00  0.00    -0.017 A 
HETATM   10  C   UNL     1      42.772 -14.909   3.076  1.00  0.00     0.043 C 
HETATM   11  C   UNL     1      42.827 -13.515   3.798  1.00  0.00     0.018 C 
HETATM   12  C   UNL     1      42.152 -13.606   5.181  1.00  0.00     0.065 C 
HETATM   13  C   UNL     1      43.019 -14.568   5.959  1.00  0.00     0.082 C 
HETATM   14  N   UNL     1      43.612 -14.123   7.017  1.00  0.00    -0.203 NA
HETATM   15  C   UNL     1      42.114 -12.483   6.225  1.00  0.00     0.121 C 
HETATM   16  N   UNL     1      43.247 -12.815   7.122  1.00  0.00    -0.207 NA
HETATM   17  C   UNL     1      44.060 -19.340   5.141  1.00  0.00     0.031 A 
HETATM   18  C   UNL     1      44.025 -20.141   3.996  1.00  0.00     0.009 A 
HETATM   19  H   UNL     1      44.049 -12.215   6.911  1.00  0.00     0.149 HD
ENDROOT
BRANCH  15  20
HETATM   20  C   UNL     1      41.987 -11.013   5.895  1.00  0.00    -0.038 A 
HETATM   21  C   UNL     1      42.248 -10.063   6.901  1.00  0.00     0.011 A 
HETATM   22  C   UNL     1      42.027  -8.699   6.695  1.00  0.00     0.037 A 
HETATM   23  C   UNL     1      41.526  -8.239   5.482  1.00  0.00     0.068 A 
HETATM   24  C   UNL     1      41.249  -9.162   4.477  1.00  0.00     0.037 A 
HETATM   25  C   UNL     1      41.459 -10.536   4.688  1.00  0.00     0.011 A 
BRANCH  23  26
HETATM   26  O   UNL     1      41.335  -6.888   5.422  1.00  0.00    -0.356 OA
HETATM   27  C   UNL     1      41.685  -6.239   4.206  1.00  0.00     0.210 C 
ENDBRANCH  23  26
ENDBRANCH  15  20
TORSDOF 2
ENDMDL
MODEL 5
REMARK VINA RESULT:      -8.4      5.559      7.075
REMARK  2 active torsions:
REMARK  status: ('A' for Active; 'I' for Inactive)
REMARK    1  A    between atoms: C_15  and  C_16 
REMARK    2  A    between atoms: C_19  and  O_20 
ROOT
HETATM    1  C   UNL     1      43.876 -20.486   2.023  1.00  0.00     0.048 C 
HETATM    2  C   UNL     1      43.670 -19.160   2.695  1.00  0.00    -0.061 A 
HETATM    3  C   UNL     1      42.763 -18.222   2.169  1.00  0.00     0.021 A 
HETATM    4  C   UNL     1      42.554 -16.996   2.836  1.00  0.00    -0.000 A 
HETATM    5  C   UNL     1      43.272 -16.747   4.012  1.00  0.00     0.043 A 
HETATM    6  N   UNL     1      42.904 -15.499   4.466  1.00  0.00    -0.353 N 
HETATM    7  H   UNL     1      43.273 -15.040   5.290  1.00  0.00     0.166 HD
HETATM    8  C   UNL     1      41.924 -15.001   3.666  1.00  0.00     0.066 A 
HETATM    9  C   UNL     1      41.728 -15.859   2.604  1.00  0.00    -0.017 A 
HETATM   10  C   UNL     1      40.771 -15.525   1.493  1.00  0.00     0.043 C 
HETATM   11  C   UNL     1      40.285 -14.034   1.569  1.00  0.00     0.018 C 
HETATM   12  C   UNL     1      39.913 -13.669   3.021  1.00  0.00     0.065 C 
HETATM   13  C   UNL     1      41.216 -13.773   3.779  1.00  0.00     0.082 C 
HETATM   14  N   UNL     1      41.677 -12.700   4.332  1.00  0.00    -0.203 NA
HETATM   15  C   UNL     1      39.510 -12.271   3.508  1.00  0.00     0.121 C 
HETATM   16  N   UNL     1      40.778 -11.719   4.042  1.00  0.00    -0.207 NA
HETATM   17  C   UNL     1      44.183 -17.662   4.551  1.00  0.00     0.031 A 
HETATM   18  C   UNL     1      44.361 -18.873   3.876  1.00  0.00     0.009 A 
HETATM   19  H   UNL     1      41.187 -11.065   3.370  1.00  0.00     0.149 HD
ENDROOT
BRANCH  15  20
HETATM   20  C   UNL     1      38.690 -11.289   2.703  1.00  0.00    -0.038 A 
HETATM   21  C   UNL     1      37.715 -11.782   1.814  1.00  0.00     0.011 A 
HETATM   22  C   UNL     1      37.013 -10.934   0.954  1.00  0.00     0.037 A 
HETATM   23  C   UNL     1      37.270  -9.568   0.943  1.00  0.00     0.068 A 
HETATM   24  C   UNL     1      38.238  -9.059   1.805  1.00  0.00     0.037 A 
HETATM   25  C   UNL     1      38.953  -9.914   2.662  1.00  0.00     0.011 A 
BRANCH  23  26
HETATM   26  O   UNL     1      36.531  -8.858   0.039  1.00  0.00    -0.356 OA
HETATM   27  C   UNL     1      35.200  -9.298  -0.196  1.00  0.00     0.210 C 
ENDBRANCH  23  26
ENDBRANCH  15  20
TORSDOF 2
ENDMDL
MODEL 6
REMARK VINA RESULT:      -8.2      4.352     10.702
REMARK  2 active torsions:
REMARK  status: ('A' for Active; 'I' for Inactive)
REMARK    1  A    between atoms: C_15  and  C_16 
REMARK    2  A    between atoms: C_19  and  O_20 
ROOT
HETATM    1  C   UNL     1      40.932  -3.584  15.743  1.00  0.00     0.048 C 
HETATM    2  C   UNL     1      41.301  -4.990  15.367  1.00  0.00    -0.061 A 
HETATM    3  C   UNL     1      41.684  -5.304  14.050  1.00  0.00     0.021 A 
HETATM    4  C   UNL     1      42.065  -6.623  13.725  1.00  0.00    -0.000 A 
HETATM    5  C   UNL     1      42.039  -7.592  14.736  1.00  0.00     0.043 A 
HETATM    6  N   UNL     1      42.440  -8.786  14.175  1.00  0.00    -0.353 N 
HETATM    7  H   UNL     1      42.503  -9.672  14.661  1.00  0.00     0.166 HD
HETATM    8  C   UNL     1      42.795  -8.578  12.879  1.00  0.00     0.066 A 
HETATM    9  C   UNL     1      42.508  -7.273  12.537  1.00  0.00    -0.017 A 
HETATM   10  C   UNL     1      42.702  -6.771  11.132  1.00  0.00     0.043 C 
HETATM   11  C   UNL     1      42.977  -7.943  10.125  1.00  0.00     0.018 C 
HETATM   12  C   UNL     1      44.004  -8.927  10.723  1.00  0.00     0.065 C 
HETATM   13  C   UNL     1      43.309  -9.506  11.933  1.00  0.00     0.082 C 
HETATM   14  N   UNL     1      43.080 -10.778  11.944  1.00  0.00    -0.203 NA
HETATM   15  C   UNL     1      44.434 -10.255  10.086  1.00  0.00     0.121 C 
HETATM   16  N   UNL     1      43.575 -11.252  10.768  1.00  0.00    -0.207 NA
HETATM   17  C   UNL     1      41.657  -7.305  16.050  1.00  0.00     0.031 A 
HETATM   18  C   UNL     1      41.297  -5.987  16.348  1.00  0.00     0.009 A 
HETATM   19  H   UNL     1      42.803 -11.527  10.155  1.00  0.00     0.149 HD
ENDROOT
BRANCH  15  20
HETATM   20  C   UNL     1      44.594 -10.478   8.599  1.00  0.00    -0.038 A 
HETATM   21  C   UNL     1      43.442 -10.569   7.795  1.00  0.00     0.011 A 
HETATM   22  C   UNL     1      43.519 -10.898   6.439  1.00  0.00     0.037 A 
HETATM   23  C   UNL     1      44.749 -11.158   5.845  1.00  0.00     0.068 A 
HETATM   24  C   UNL     1      45.901 -11.085   6.623  1.00  0.00     0.037 A 
HETATM   25  C   UNL     1      45.822 -10.767   7.990  1.00  0.00     0.011 A 
BRANCH  23  26
HETATM   26  O   UNL     1      44.680 -11.490   4.521  1.00  0.00    -0.356 OA
HETATM   27  C   UNL     1      43.410 -11.381   3.892  1.00  0.00     0.210 C 
ENDBRANCH  23  26
ENDBRANCH  15  20
TORSDOF 2
ENDMDL
MODEL 7
REMARK VINA RESULT:      -8.1      3.492      8.766
REMARK  2 active torsions:
REMARK  status: ('A' for Active; 'I' for Inactive)
REMARK    1  A    between atoms: C_15  and  C_16 
REMARK    2  A    between atoms: C_19  and  O_20 
ROOT
HETATM    1  C   UNL     1      43.573  -6.971   9.121  1.00  0.00     0.048 C 
HETATM    2  C   UNL     1      42.655  -7.888   8.368  1.00  0.00    -0.061 A 
HETATM    3  C   UNL     1      43.126  -9.109   7.850  1.00  0.00     0.021 A 
HETATM    4  C   UNL     1      42.238  -9.976   7.178  1.00  0.00    -0.000 A 
HETATM    5  C   UNL     1      40.901  -9.583   7.039  1.00  0.00     0.043 A 
HETATM    6  N   UNL     1      40.246 -10.581   6.350  1.00  0.00    -0.353 N 
HETATM    7  H   UNL     1      39.269 -10.569   6.084  1.00  0.00     0.166 HD
HETATM    8  C   UNL     1      41.103 -11.615   6.132  1.00  0.00     0.066 A 
HETATM    9  C   UNL     1      42.364 -11.253   6.560  1.00  0.00    -0.017 A 
HETATM   10  C   UNL     1      43.548 -12.158   6.360  1.00  0.00     0.043 C 
HETATM   11  C   UNL     1      43.214 -13.355   5.400  1.00  0.00     0.018 C 
HETATM   12  C   UNL     1      41.849 -13.970   5.772  1.00  0.00     0.065 C 
HETATM   13  C   UNL     1      40.854 -12.865   5.504  1.00  0.00     0.082 C 
HETATM   14  N   UNL     1      39.953 -13.074   4.602  1.00  0.00    -0.203 NA
HETATM   15  C   UNL     1      41.133 -15.078   4.989  1.00  0.00     0.121 C 
HETATM   16  N   UNL     1      40.189 -14.328   4.127  1.00  0.00    -0.207 NA
HETATM   17  C   UNL     1      40.411  -8.373   7.539  1.00  0.00     0.031 A 
HETATM   18  C   UNL     1      41.309  -7.538   8.212  1.00  0.00     0.009 A 
HETATM   19  H   UNL     1      40.554 -14.272   3.173  1.00  0.00     0.149 HD
ENDROOT
BRANCH  15  20
HETATM   20  C   UNL     1      41.833 -16.227   4.301  1.00  0.00    -0.038 A 
HETATM   21  C   UNL     1      42.832 -16.934   4.998  1.00  0.00     0.011 A 
HETATM   22  C   UNL     1      43.600 -17.922   4.377  1.00  0.00     0.037 A 
HETATM   23  C   UNL     1      43.404 -18.228   3.035  1.00  0.00     0.068 A 
HETATM   24  C   UNL     1      42.430 -17.534   2.322  1.00  0.00     0.037 A 
HETATM   25  C   UNL     1      41.666 -16.532   2.944  1.00  0.00     0.011 A 
BRANCH  23  26
HETATM   26  O   UNL     1      44.237 -19.195   2.546  1.00  0.00    -0.356 OA
HETATM   27  C   UNL     1      43.639 -20.421   2.144  1.00  0.00     0.210 C 
ENDBRANCH  23  26
ENDBRANCH  15  20
TORSDOF 2
ENDMDL
MODEL 8
REMARK VINA RESULT:      -7.8     17.891     19.093
REMARK  2 active torsions:
REMARK  status: ('A' for Active; 'I' for Inactive)
REMARK    1  A    between atoms: C_15  and  C_16 
REMARK    2  A    between atoms: C_19  and  O_20 
ROOT
HETATM    1  C   UNL     1      44.279 -30.726  -5.630  1.00  0.00     0.048 C 
HETATM    2  C   UNL     1      44.761 -29.920  -4.460  1.00  0.00    -0.061 A 
HETATM    3  C   UNL     1      45.384 -30.547  -3.364  1.00  0.00     0.021 A 
HETATM    4  C   UNL     1      45.865 -29.769  -2.290  1.00  0.00    -0.000 A 
HETATM    5  C   UNL     1      45.697 -28.379  -2.346  1.00  0.00     0.043 A 
HETATM    6  N   UNL     1      46.236 -27.851  -1.194  1.00  0.00    -0.353 N 
HETATM    7  H   UNL     1      46.245 -26.869  -0.945  1.00  0.00     0.166 HD
HETATM    8  C   UNL     1      46.807 -28.847  -0.465  1.00  0.00     0.066 A 
HETATM    9  C   UNL     1      46.537 -30.058  -1.068  1.00  0.00    -0.017 A 
HETATM   10  C   UNL     1      46.958 -31.357  -0.438  1.00  0.00     0.043 C 
HETATM   11  C   UNL     1      47.452 -31.157   1.039  1.00  0.00     0.018 C 
HETATM   12  C   UNL     1      48.392 -29.938   1.125  1.00  0.00     0.065 C 
HETATM   13  C   UNL     1      47.515 -28.762   0.764  1.00  0.00     0.082 C 
HETATM   14  N   UNL     1      47.336 -27.848   1.660  1.00  0.00    -0.203 NA
HETATM   15  C   UNL     1      48.978 -29.360   2.420  1.00  0.00     0.121 C 
HETATM   16  N   UNL     1      48.050 -28.252   2.748  1.00  0.00    -0.207 NA
HETATM   17  C   UNL     1      45.077 -27.735  -3.421  1.00  0.00     0.031 A 
HETATM   18  C   UNL     1      44.620 -28.529  -4.478  1.00  0.00     0.009 A 
HETATM   19  H   UNL     1      47.410 -28.539   3.492  1.00  0.00     0.149 HD
ENDROOT
BRANCH  15  20
HETATM   20  C   UNL     1      49.409 -30.189   3.608  1.00  0.00    -0.038 A 
HETATM   21  C   UNL     1      50.783 -30.315   3.891  1.00  0.00     0.011 A 
HETATM   22  C   UNL     1      51.249 -31.165   4.896  1.00  0.00     0.037 A 
HETATM   23  C   UNL     1      50.360 -31.929   5.644  1.00  0.00     0.068 A 
HETATM   24  C   UNL     1      48.997 -31.830   5.374  1.00  0.00     0.037 A 
HETATM   25  C   UNL     1      48.529 -30.983   4.355  1.00  0.00     0.011 A 
BRANCH  23  26
HETATM   26  O   UNL     1      50.949 -32.734   6.578  1.00  0.00    -0.356 OA
HETATM   27  C   UNL     1      52.262 -32.386   6.997  1.00  0.00     0.210 C 
ENDBRANCH  23  26
ENDBRANCH  15  20
TORSDOF 2
ENDMDL
MODEL 9
REMARK VINA RESULT:      -7.7      3.619      8.983
REMARK  2 active torsions:
REMARK  status: ('A' for Active; 'I' for Inactive)
REMARK    1  A    between atoms: C_15  and  C_16 
REMARK    2  A    between atoms: C_19  and  O_20 
ROOT
HETATM    1  C   UNL     1      43.203  -6.631   9.669  1.00  0.00     0.048 C 
HETATM    2  C   UNL     1      43.415  -8.061   9.264  1.00  0.00    -0.061 A 
HETATM    3  C   UNL     1      42.842  -8.564   8.081  1.00  0.00     0.021 A 
HETATM    4  C   UNL     1      43.084  -9.900   7.696  1.00  0.00    -0.000 A 
HETATM    5  C   UNL     1      43.889 -10.696   8.521  1.00  0.00     0.043 A 
HETATM    6  N   UNL     1      43.968 -11.944   7.944  1.00  0.00    -0.353 N 
HETATM    7  H   UNL     1      44.469 -12.738   8.323  1.00  0.00     0.166 HD
HETATM    8  C   UNL     1      43.315 -11.930   6.751  1.00  0.00     0.066 A 
HETATM    9  C   UNL     1      42.690 -10.711   6.593  1.00  0.00    -0.017 A 
HETATM   10  C   UNL     1      41.805 -10.431   5.409  1.00  0.00     0.043 C 
HETATM   11  C   UNL     1      41.488 -11.736   4.596  1.00  0.00     0.018 C 
HETATM   12  C   UNL     1      42.773 -12.566   4.398  1.00  0.00     0.065 C 
HETATM   13  C   UNL     1      43.175 -12.974   5.795  1.00  0.00     0.082 C 
HETATM   14  N   UNL     1      43.199 -14.236   6.070  1.00  0.00    -0.203 NA
HETATM   15  C   UNL     1      42.840 -13.957   3.756  1.00  0.00     0.121 C 
HETATM   16  N   UNL     1      42.825 -14.870   4.924  1.00  0.00    -0.207 NA
HETATM   17  C   UNL     1      44.464 -10.220   9.704  1.00  0.00     0.031 A 
HETATM   18  C   UNL     1      44.218  -8.889  10.055  1.00  0.00     0.009 A 
HETATM   19  H   UNL     1      41.892 -15.274   5.042  1.00  0.00     0.149 HD
ENDROOT
BRANCH  15  20
HETATM   20  C   UNL     1      41.979 -14.407   2.598  1.00  0.00    -0.038 A 
HETATM   21  C   UNL     1      41.870 -13.576   1.466  1.00  0.00     0.011 A 
HETATM   22  C   UNL     1      40.995 -13.876   0.419  1.00  0.00     0.037 A 
HETATM   23  C   UNL     1      40.190 -15.008   0.474  1.00  0.00     0.068 A 
HETATM   24  C   UNL     1      40.272 -15.838   1.589  1.00  0.00     0.037 A 
HETATM   25  C   UNL     1      41.144 -15.530   2.647  1.00  0.00     0.011 A 
BRANCH  23  26
HETATM   26  O   UNL     1      39.364 -15.170  -0.603  1.00  0.00    -0.356 OA
HETATM   27  C   UNL     1      39.219 -14.061  -1.480  1.00  0.00     0.210 C 
ENDBRANCH  23  26
ENDBRANCH  15  20
TORSDOF 2
ENDMDL
MODEL 10
REMARK VINA RESULT:      -7.7      3.541      5.438
REMARK  2 active torsions:
REMARK  status: ('A' for Active; 'I' for Inactive)
REMARK    1  A    between atoms: C_15  and  C_16 
REMARK    2  A    between atoms: C_19  and  O_20 
ROOT
HETATM    1  C   UNL     1      41.534 -10.631   2.185  1.00  0.00     0.048 C 
HETATM    2  C   UNL     1      42.355 -10.811   3.429  1.00  0.00    -0.061 A 
HETATM    3  C   UNL     1      41.969 -10.204   4.638  1.00  0.00     0.021 A 
HETATM    4  C   UNL     1      42.732 -10.416   5.806  1.00  0.00    -0.000 A 
HETATM    5  C   UNL     1      43.870 -11.228   5.719  1.00  0.00     0.043 A 
HETATM    6  N   UNL     1      44.441 -11.274   6.972  1.00  0.00    -0.353 N 
HETATM    7  H   UNL     1      45.289 -11.772   7.214  1.00  0.00     0.166 HD
HETATM    8  C   UNL     1      43.656 -10.594   7.851  1.00  0.00     0.066 A 
HETATM    9  C   UNL     1      42.630  -9.985   7.160  1.00  0.00    -0.017 A 
HETATM   10  C   UNL     1      41.650  -9.077   7.852  1.00  0.00     0.043 C 
HETATM   11  C   UNL     1      42.113  -8.722   9.310  1.00  0.00     0.018 C 
HETATM   12  C   UNL     1      42.609  -9.989  10.035  1.00  0.00     0.065 C 
HETATM   13  C   UNL     1      43.827 -10.417   9.251  1.00  0.00     0.082 C 
HETATM   14  N   UNL     1      44.964 -10.428   9.865  1.00  0.00    -0.203 NA
HETATM   15  C   UNL     1      43.248 -10.021  11.429  1.00  0.00     0.121 C 
HETATM   16  N   UNL     1      44.701 -10.019  11.137  1.00  0.00    -0.207 NA
HETATM   17  C   UNL     1      44.276 -11.837   4.528  1.00  0.00     0.031 A 
HETATM   18  C   UNL     1      43.495 -11.620   3.389  1.00  0.00     0.009 A 
HETATM   19  H   UNL     1      45.087  -9.082  11.284  1.00  0.00     0.149 HD
ENDROOT
BRANCH  15  20
HETATM   20  C   UNL     1      42.838  -9.126  12.577  1.00  0.00    -0.038 A 
HETATM   21  C   UNL     1      43.539  -7.923  12.788  1.00  0.00     0.011 A 
HETATM   22  C   UNL     1      43.292  -7.117  13.902  1.00  0.00     0.037 A 
HETATM   23  C   UNL     1      42.345  -7.492  14.849  1.00  0.00     0.068 A 
HETATM   24  C   UNL     1      41.649  -8.684  14.668  1.00  0.00     0.037 A 
HETATM   25  C   UNL     1      41.906  -9.501  13.553  1.00  0.00     0.011 A 
BRANCH  23  26
HETATM   26  O   UNL     1      42.219  -6.627  15.900  1.00  0.00    -0.356 OA
HETATM   27  C   UNL     1      41.271  -5.576  15.762  1.00  0.00     0.210 C 
ENDBRANCH  23  26
ENDBRANCH  15  20
TORSDOF 2
ENDMDL
