MODEL 1
REMARK VINA RESULT:      -7.8      0.000      0.000
REMARK  3 active torsions:
REMARK  status: ('A' for Active; 'I' for Inactive)
REMARK    1  A    between atoms: C_4  and  N_5 
REMARK       I    between atoms: N_5  and  C_6 
REMARK    2  A    between atoms: C_6  and  C_7 
REMARK    3  A    between atoms: C_7  and  C_8 
ROOT
HETATM    1  C   UNL     1      40.279 -13.153   1.244  1.00  0.00     0.286 C 
HETATM    2  N   UNL     1      40.981 -13.550  -0.064  1.00  0.00    -0.056 N 
HETATM    3  H   UNL     1      41.793 -12.928  -0.171  1.00  0.00     0.278 HD
HETATM    4  H   UNL     1      41.424 -14.487   0.057  1.00  0.00     0.278 HD
HETATM    5  C   UNL     1      40.187 -13.508  -1.333  1.00  0.00     0.209 C 
HETATM    6  C   UNL     1      39.317 -12.231  -1.364  1.00  0.00     0.115 C 
HETATM    7  N   UNL     1      38.519 -12.086  -0.154  1.00  0.00    -0.353 N 
HETATM    8  C   UNL     1      38.962 -12.386   1.102  1.00  0.00     0.249 C 
HETATM    9  O   UNL     1      38.307 -12.044   2.081  1.00  0.00    -0.271 OA
HETATM   10  C   UNL     1      39.379 -14.796  -1.490  1.00  0.00     0.035 C 
HETATM   11  C   UNL     1      38.500 -14.739  -2.738  1.00  0.00     0.002 C 
HETATM   12  C   UNL     1      37.605 -13.503  -2.741  1.00  0.00     0.002 C 
HETATM   13  C   UNL     1      38.420 -12.217  -2.605  1.00  0.00     0.027 C 
HETATM   14  H   UNL     1      37.694 -11.487  -0.167  1.00  0.00     0.163 HD
ENDROOT
BRANCH   1  15
HETATM   15  C   UNL     1      40.087 -14.366   2.162  1.00  0.00     0.146 C 
BRANCH  15  16
HETATM   16  C   UNL     1      41.451 -14.971   2.323  1.00  0.00     0.224 C 
HETATM   17  N   UNL     1      41.447 -16.320   2.581  1.00  0.00    -0.327 N 
HETATM   18  H   UNL     1      40.595 -16.845   2.404  1.00  0.00     0.169 HD
HETATM   19  O   UNL     1      42.396 -14.187   2.418  1.00  0.00    -0.273 OA
BRANCH  17  20
HETATM   20  C   UNL     1      42.505 -17.072   3.138  1.00  0.00     0.034 A 
HETATM   21  C   UNL     1      43.035 -16.848   4.412  1.00  0.00     0.029 A 
HETATM   22  C   UNL     1      44.033 -17.683   4.919  1.00  0.00     0.002 A 
HETATM   23  C   UNL     1      44.512 -18.746   4.160  1.00  0.00     0.000 A 
HETATM   24  C   UNL     1      44.002 -18.968   2.885  1.00  0.00     0.002 A 
HETATM   25  C   UNL     1      43.008 -18.132   2.372  1.00  0.00     0.029 A 
ENDBRANCH  17  20
ENDBRANCH  15  16
ENDBRANCH   1  15
TORSDOF 3
ENDMDL
MODEL 2
REMARK VINA RESULT:      -7.5      5.618      7.847
REMARK  3 active torsions:
REMARK  status: ('A' for Active; 'I' for Inactive)
REMARK    1  A    between atoms: C_4  and  N_5 
REMARK       I    between atoms: N_5  and  C_6 
REMARK    2  A    between atoms: C_6  and  C_7 
REMARK    3  A    between atoms: C_7  and  C_8 
ROOT
HETATM    1  C   UNL     1      42.084 -11.131   6.305  1.00  0.00     0.286 C 
HETATM    2  N   UNL     1      43.007 -12.068   7.101  1.00  0.00    -0.056 N 
HETATM    3  H   UNL     1      42.422 -12.545   7.800  1.00  0.00     0.278 HD
HETATM    4  H   UNL     1      43.311 -12.852   6.483  1.00  0.00     0.278 HD
HETATM    5  C   UNL     1      44.185 -11.469   7.805  1.00  0.00     0.209 C 
HETATM    6  C   UNL     1      43.769 -10.148   8.490  1.00  0.00     0.115 C 
HETATM    7  N   UNL     1      43.101  -9.241   7.565  1.00  0.00    -0.353 N 
HETATM    8  C   UNL     1      42.211  -9.636   6.607  1.00  0.00     0.249 C 
HETATM    9  O   UNL     1      41.542  -8.798   6.011  1.00  0.00    -0.271 OA
HETATM   10  C   UNL     1      45.352 -11.307   6.831  1.00  0.00     0.035 C 
HETATM   11  C   UNL     1      46.537 -10.623   7.511  1.00  0.00     0.002 C 
HETATM   12  C   UNL     1      46.135  -9.293   8.142  1.00  0.00     0.002 C 
HETATM   13  C   UNL     1      44.981  -9.465   9.130  1.00  0.00     0.027 C 
HETATM   14  H   UNL     1      43.056  -8.247   7.783  1.00  0.00     0.163 HD
ENDROOT
BRANCH   1  15
HETATM   15  C   UNL     1      42.208 -11.377   4.797  1.00  0.00     0.146 C 
BRANCH  15  16
HETATM   16  C   UNL     1      42.050 -12.859   4.615  1.00  0.00     0.224 C 
HETATM   17  N   UNL     1      43.107 -13.470   3.988  1.00  0.00    -0.327 N 
HETATM   18  H   UNL     1      43.987 -12.967   3.919  1.00  0.00     0.169 HD
HETATM   19  O   UNL     1      40.934 -13.328   4.845  1.00  0.00    -0.273 OA
BRANCH  17  20
HETATM   20  C   UNL     1      43.092 -14.732   3.354  1.00  0.00     0.034 A 
HETATM   21  C   UNL     1      43.078 -14.910   1.968  1.00  0.00     0.029 A 
HETATM   22  C   UNL     1      43.137 -16.192   1.418  1.00  0.00     0.002 A 
HETATM   23  C   UNL     1      43.209 -17.308   2.247  1.00  0.00     0.000 A 
HETATM   24  C   UNL     1      43.209 -17.143   3.628  1.00  0.00     0.002 A 
HETATM   25  C   UNL     1      43.144 -15.863   4.181  1.00  0.00     0.029 A 
ENDBRANCH  17  20
ENDBRANCH  15  16
ENDBRANCH   1  15
TORSDOF 3
ENDMDL
MODEL 3
REMARK VINA RESULT:      -7.5      1.488      7.043
REMARK  3 active torsions:
REMARK  status: ('A' for Active; 'I' for Inactive)
REMARK    1  A    between atoms: C_4  and  N_5 
REMARK       I    between atoms: N_5  and  C_6 
REMARK    2  A    between atoms: C_6  and  C_7 
REMARK    3  A    between atoms: C_7  and  C_8 
ROOT
HETATM    1  C   UNL     1      41.546 -14.077   3.658  1.00  0.00     0.286 C 
HETATM    2  N   UNL     1      40.925 -15.452   3.366  1.00  0.00    -0.056 N 
HETATM    3  H   UNL     1      40.030 -15.492   3.872  1.00  0.00     0.278 HD
HETATM    4  H   UNL     1      40.625 -15.486   2.367  1.00  0.00     0.278 HD
HETATM    5  C   UNL     1      41.717 -16.673   3.716  1.00  0.00     0.209 C 
HETATM    6  C   UNL     1      42.386 -16.486   5.096  1.00  0.00     0.115 C 
HETATM    7  N   UNL     1      43.141 -15.242   5.171  1.00  0.00    -0.353 N 
HETATM    8  C   UNL     1      42.734 -14.059   4.622  1.00  0.00     0.249 C 
HETATM    9  O   UNL     1      43.321 -13.020   4.904  1.00  0.00    -0.271 OA
HETATM   10  C   UNL     1      42.710 -16.994   2.599  1.00  0.00     0.035 C 
HETATM   11  C   UNL     1      43.584 -18.190   2.974  1.00  0.00     0.002 C 
HETATM   12  C   UNL     1      44.284 -17.979   4.313  1.00  0.00     0.002 C 
HETATM   13  C   UNL     1      43.284 -17.680   5.430  1.00  0.00     0.027 C 
HETATM   14  H   UNL     1      43.867 -15.138   5.879  1.00  0.00     0.163 HD
ENDROOT
BRANCH   1  15
HETATM   15  C   UNL     1      41.907 -13.343   2.361  1.00  0.00     0.146 C 
BRANCH  15  16
HETATM   16  C   UNL     1      40.744 -13.557   1.438  1.00  0.00     0.224 C 
HETATM   17  N   UNL     1      41.090 -13.955   0.170  1.00  0.00    -0.327 N 
HETATM   18  H   UNL     1      42.030 -14.308   0.012  1.00  0.00     0.169 HD
HETATM   19  O   UNL     1      39.646 -13.162   1.831  1.00  0.00    -0.273 OA
BRANCH  17  20
HETATM   20  C   UNL     1      40.285 -13.870  -0.987  1.00  0.00     0.034 A 
HETATM   21  C   UNL     1      40.322 -12.801  -1.887  1.00  0.00     0.029 A 
HETATM   22  C   UNL     1      39.545 -12.825  -3.047  1.00  0.00     0.002 A 
HETATM   23  C   UNL     1      38.723 -13.915  -3.318  1.00  0.00     0.000 A 
HETATM   24  C   UNL     1      38.668 -14.978  -2.422  1.00  0.00     0.002 A 
HETATM   25  C   UNL     1      39.439 -14.953  -1.258  1.00  0.00     0.029 A 
ENDBRANCH  17  20
ENDBRANCH  15  16
ENDBRANCH   1  15
TORSDOF 3
ENDMDL
MODEL 4
REMARK VINA RESULT:      -7.4      2.897      3.754
REMARK  3 active torsions:
REMARK  status: ('A' for Active; 'I' for Inactive)
REMARK    1  A    between atoms: C_4  and  N_5 
REMARK       I    between atoms: N_5  and  C_6 
REMARK    2  A    between atoms: C_6  and  C_7 
REMARK    3  A    between atoms: C_7  and  C_8 
ROOT
HETATM    1  C   UNL     1      42.857 -14.183   3.118  1.00  0.00     0.286 C 
HETATM    2  N   UNL     1      41.631 -14.766   2.398  1.00  0.00    -0.056 N 
HETATM    3  H   UNL     1      41.983 -15.334   1.616  1.00  0.00     0.278 HD
HETATM    4  H   UNL     1      41.181 -15.478   3.013  1.00  0.00     0.278 HD
HETATM    5  C   UNL     1      40.607 -13.813   1.863  1.00  0.00     0.209 C 
HETATM    6  C   UNL     1      41.310 -12.613   1.189  1.00  0.00     0.115 C 
HETATM    7  N   UNL     1      42.298 -11.998   2.066  1.00  0.00    -0.353 N 
HETATM    8  C   UNL     1      43.131 -12.694   2.896  1.00  0.00     0.249 C 
HETATM    9  O   UNL     1      44.067 -12.121   3.444  1.00  0.00    -0.271 OA
HETATM   10  C   UNL     1      39.639 -13.405   2.973  1.00  0.00     0.035 C 
HETATM   11  C   UNL     1      38.635 -12.371   2.466  1.00  0.00     0.002 C 
HETATM   12  C   UNL     1      39.333 -11.163   1.848  1.00  0.00     0.002 C 
HETATM   13  C   UNL     1      40.284 -11.576   0.725  1.00  0.00     0.027 C 
HETATM   14  H   UNL     1      42.602 -11.043   1.887  1.00  0.00     0.163 HD
ENDROOT
BRANCH   1  15
HETATM   15  C   UNL     1      42.822 -14.495   4.618  1.00  0.00     0.146 C 
BRANCH  15  16
HETATM   16  C   UNL     1      42.633 -15.981   4.718  1.00  0.00     0.224 C 
HETATM   17  N   UNL     1      43.694 -16.721   4.257  1.00  0.00    -0.327 N 
HETATM   18  H   UNL     1      44.588 -16.256   4.124  1.00  0.00     0.169 HD
HETATM   19  O   UNL     1      41.500 -16.377   4.995  1.00  0.00    -0.273 OA
BRANCH  17  20
HETATM   20  C   UNL     1      43.668 -18.081   3.878  1.00  0.00     0.034 A 
HETATM   21  C   UNL     1      43.322 -18.528   2.600  1.00  0.00     0.029 A 
HETATM   22  C   UNL     1      43.391 -19.887   2.282  1.00  0.00     0.002 A 
HETATM   23  C   UNL     1      43.803 -20.810   3.239  1.00  0.00     0.000 A 
HETATM   24  C   UNL     1      44.135 -20.377   4.518  1.00  0.00     0.002 A 
HETATM   25  C   UNL     1      44.062 -19.020   4.840  1.00  0.00     0.029 A 
ENDBRANCH  17  20
ENDBRANCH  15  16
ENDBRANCH   1  15
TORSDOF 3
ENDMDL
MODEL 5
REMARK VINA RESULT:      -7.2      5.004      6.000
REMARK  3 active torsions:
REMARK  status: ('A' for Active; 'I' for Inactive)
REMARK    1  A    between atoms: C_4  and  N_5 
REMARK       I    between atoms: N_5  and  C_6 
REMARK    2  A    between atoms: C_6  and  C_7 
REMARK    3  A    between atoms: C_7  and  C_8 
ROOT
HETATM    1  C   UNL     1      43.302 -13.829   6.031  1.00  0.00     0.286 C 
HETATM    2  N   UNL     1      42.189 -13.862   4.972  1.00  0.00    -0.056 N 
HETATM    3  H   UNL     1      42.649 -13.941   4.055  1.00  0.00     0.278 HD
HETATM    4  H   UNL     1      41.673 -14.766   5.048  1.00  0.00     0.278 HD
HETATM    5  C   UNL     1      41.230 -12.714   4.919  1.00  0.00     0.209 C 
HETATM    6  C   UNL     1      41.997 -11.383   5.089  1.00  0.00     0.115 C 
HETATM    7  N   UNL     1      42.852 -11.394   6.268  1.00  0.00    -0.353 N 
HETATM    8  C   UNL     1      43.580 -12.473   6.683  1.00  0.00     0.249 C 
HETATM    9  O   UNL     1      44.428 -12.339   7.559  1.00  0.00    -0.271 OA
HETATM   10  C   UNL     1      40.119 -12.910   5.951  1.00  0.00     0.035 C 
HETATM   11  C   UNL     1      39.174 -11.709   5.968  1.00  0.00     0.002 C 
HETATM   12  C   UNL     1      39.929 -10.401   6.187  1.00  0.00     0.002 C 
HETATM   13  C   UNL     1      41.025 -10.201   5.141  1.00  0.00     0.027 C 
HETATM   14  H   UNL     1      43.163 -10.510   6.670  1.00  0.00     0.163 HD
ENDROOT
BRANCH   1  15
HETATM   15  C   UNL     1      43.075 -14.896   7.109  1.00  0.00     0.146 C 
BRANCH  15  16
HETATM   16  C   UNL     1      42.710 -16.149   6.369  1.00  0.00     0.224 C 
HETATM   17  N   UNL     1      43.718 -16.665   5.593  1.00  0.00    -0.327 N 
HETATM   18  H   UNL     1      44.668 -16.340   5.753  1.00  0.00     0.169 HD
HETATM   19  O   UNL     1      41.518 -16.460   6.362  1.00  0.00    -0.273 OA
BRANCH  17  20
HETATM   20  C   UNL     1      43.574 -17.577   4.525  1.00  0.00     0.034 A 
HETATM   21  C   UNL     1      43.005 -17.251   3.291  1.00  0.00     0.029 A 
HETATM   22  C   UNL     1      42.964 -18.191   2.259  1.00  0.00     0.002 A 
HETATM   23  C   UNL     1      43.488 -19.466   2.451  1.00  0.00     0.000 A 
HETATM   24  C   UNL     1      44.043 -19.806   3.680  1.00  0.00     0.002 A 
HETATM   25  C   UNL     1      44.080 -18.870   4.715  1.00  0.00     0.029 A 
ENDBRANCH  17  20
ENDBRANCH  15  16
ENDBRANCH   1  15
TORSDOF 3
ENDMDL
MODEL 6
REMARK VINA RESULT:      -7.2      3.880      5.206
REMARK  3 active torsions:
REMARK  status: ('A' for Active; 'I' for Inactive)
REMARK    1  A    between atoms: C_4  and  N_5 
REMARK       I    between atoms: N_5  and  C_6 
REMARK    2  A    between atoms: C_6  and  C_7 
REMARK    3  A    between atoms: C_7  and  C_8 
ROOT
HETATM    1  C   UNL     1      41.074 -14.378   4.985  1.00  0.00     0.286 C 
HETATM    2  N   UNL     1      40.946 -13.505   6.243  1.00  0.00    -0.056 N 
HETATM    3  H   UNL     1      40.258 -13.961   6.857  1.00  0.00     0.278 HD
HETATM    4  H   UNL     1      41.828 -13.572   6.796  1.00  0.00     0.278 HD
HETATM    5  C   UNL     1      40.545 -12.073   6.070  1.00  0.00     0.209 C 
HETATM    6  C   UNL     1      39.410 -11.969   5.026  1.00  0.00     0.115 C 
HETATM    7  N   UNL     1      39.750 -12.649   3.783  1.00  0.00    -0.353 N 
HETATM    8  C   UNL     1      40.418 -13.838   3.713  1.00  0.00     0.249 C 
HETATM    9  O   UNL     1      40.483 -14.441   2.647  1.00  0.00    -0.271 OA
HETATM   10  C   UNL     1      41.768 -11.223   5.724  1.00  0.00     0.035 C 
HETATM   11  C   UNL     1      41.366  -9.772   5.465  1.00  0.00     0.002 C 
HETATM   12  C   UNL     1      40.282  -9.669   4.396  1.00  0.00     0.002 C 
HETATM   13  C   UNL     1      39.054 -10.504   4.758  1.00  0.00     0.027 C 
HETATM   14  H   UNL     1      39.254 -12.405   2.927  1.00  0.00     0.163 HD
ENDROOT
BRANCH   1  15
HETATM   15  C   UNL     1      42.537 -14.745   4.710  1.00  0.00     0.146 C 
BRANCH  15  16
HETATM   16  C   UNL     1      42.644 -16.217   4.982  1.00  0.00     0.224 C 
HETATM   17  N   UNL     1      43.675 -16.843   4.326  1.00  0.00    -0.327 N 
HETATM   18  H   UNL     1      44.413 -16.271   3.925  1.00  0.00     0.169 HD
HETATM   19  O   UNL     1      41.701 -16.738   5.578  1.00  0.00    -0.273 OA
BRANCH  17  20
HETATM   20  C   UNL     1      43.798 -18.229   4.085  1.00  0.00     0.034 A 
HETATM   21  C   UNL     1      44.095 -19.170   5.074  1.00  0.00     0.029 A 
HETATM   22  C   UNL     1      44.129 -20.532   4.768  1.00  0.00     0.002 A 
HETATM   23  C   UNL     1      43.870 -20.966   3.472  1.00  0.00     0.000 A 
HETATM   24  C   UNL     1      43.588 -20.037   2.476  1.00  0.00     0.002 A 
HETATM   25  C   UNL     1      43.559 -18.674   2.778  1.00  0.00     0.029 A 
ENDBRANCH  17  20
ENDBRANCH  15  16
ENDBRANCH   1  15
TORSDOF 3
ENDMDL
MODEL 7
REMARK VINA RESULT:      -7.1      2.246      3.243
REMARK  3 active torsions:
REMARK  status: ('A' for Active; 'I' for Inactive)
REMARK    1  A    between atoms: C_4  and  N_5 
REMARK       I    between atoms: N_5  and  C_6 
REMARK    2  A    between atoms: C_6  and  C_7 
REMARK    3  A    between atoms: C_7  and  C_8 
ROOT
HETATM    1  C   UNL     1      39.073 -13.778  -1.191  1.00  0.00     0.286 C 
HETATM    2  N   UNL     1      38.457 -12.667  -0.327  1.00  0.00    -0.056 N 
HETATM    3  H   UNL     1      37.673 -13.087   0.190  1.00  0.00     0.278 HD
HETATM    4  H   UNL     1      39.125 -12.418   0.435  1.00  0.00     0.278 HD
HETATM    5  C   UNL     1      37.961 -11.432  -1.012  1.00  0.00     0.209 C 
HETATM    6  C   UNL     1      37.202 -11.818  -2.301  1.00  0.00     0.115 C 
HETATM    7  N   UNL     1      37.989 -12.699  -3.154  1.00  0.00    -0.353 N 
HETATM    8  C   UNL     1      38.783 -13.710  -2.692  1.00  0.00     0.249 C 
HETATM    9  O   UNL     1      39.247 -14.531  -3.477  1.00  0.00    -0.271 OA
HETATM   10  C   UNL     1      39.120 -10.465  -1.256  1.00  0.00     0.035 C 
HETATM   11  C   UNL     1      38.647  -9.233  -2.027  1.00  0.00     0.002 C 
HETATM   12  C   UNL     1      37.944  -9.616  -3.325  1.00  0.00     0.002 C 
HETATM   13  C   UNL     1      36.773 -10.566  -3.073  1.00  0.00     0.027 C 
HETATM   14  H   UNL     1      37.757 -12.778  -4.143  1.00  0.00     0.163 HD
ENDROOT
BRANCH   1  15
HETATM   15  C   UNL     1      40.582 -13.899  -0.950  1.00  0.00     0.146 C 
BRANCH  15  16
HETATM   16  C   UNL     1      40.726 -14.559   0.391  1.00  0.00     0.224 C 
HETATM   17  N   UNL     1      41.984 -14.472   0.935  1.00  0.00    -0.327 N 
HETATM   18  H   UNL     1      42.633 -13.792   0.548  1.00  0.00     0.169 HD
HETATM   19  O   UNL     1      39.792 -15.272   0.760  1.00  0.00    -0.273 OA
BRANCH  17  20
HETATM   20  C   UNL     1      42.514 -15.285   1.960  1.00  0.00     0.034 A 
HETATM   21  C   UNL     1      42.581 -14.903   3.303  1.00  0.00     0.029 A 
HETATM   22  C   UNL     1      43.054 -15.794   4.269  1.00  0.00     0.002 A 
HETATM   23  C   UNL     1      43.465 -17.073   3.903  1.00  0.00     0.000 A 
HETATM   24  C   UNL     1      43.416 -17.458   2.567  1.00  0.00     0.002 A 
HETATM   25  C   UNL     1      42.949 -16.567   1.598  1.00  0.00     0.029 A 
ENDBRANCH  17  20
ENDBRANCH  15  16
ENDBRANCH   1  15
TORSDOF 3
ENDMDL
MODEL 8
REMARK VINA RESULT:      -7.1      5.558      7.234
REMARK  3 active torsions:
REMARK  status: ('A' for Active; 'I' for Inactive)
REMARK    1  A    between atoms: C_4  and  N_5 
REMARK       I    between atoms: N_5  and  C_6 
REMARK    2  A    between atoms: C_6  and  C_7 
REMARK    3  A    between atoms: C_7  and  C_8 
ROOT
HETATM    1  C   UNL     1      41.990 -13.437   5.641  1.00  0.00     0.286 C 
HETATM    2  N   UNL     1      42.630 -13.163   4.272  1.00  0.00    -0.056 N 
HETATM    3  H   UNL     1      42.383 -12.198   4.012  1.00  0.00     0.278 HD
HETATM    4  H   UNL     1      43.666 -13.112   4.383  1.00  0.00     0.278 HD
HETATM    5  C   UNL     1      42.269 -14.062   3.130  1.00  0.00     0.209 C 
HETATM    6  C   UNL     1      40.751 -14.350   3.150  1.00  0.00     0.115 C 
HETATM    7  N   UNL     1      40.303 -14.827   4.451  1.00  0.00    -0.353 N 
HETATM    8  C   UNL     1      40.760 -14.348   5.646  1.00  0.00     0.249 C 
HETATM    9  O   UNL     1      40.188 -14.654   6.687  1.00  0.00    -0.271 OA
HETATM   10  C   UNL     1      43.127 -15.327   3.167  1.00  0.00     0.035 C 
HETATM   11  C   UNL     1      42.718 -16.294   2.057  1.00  0.00     0.002 C 
HETATM   12  C   UNL     1      41.228 -16.616   2.110  1.00  0.00     0.002 C 
HETATM   13  C   UNL     1      40.375 -15.349   2.052  1.00  0.00     0.027 C 
HETATM   14  H   UNL     1      39.425 -15.338   4.522  1.00  0.00     0.163 HD
ENDROOT
BRANCH   1  15
HETATM   15  C   UNL     1      43.028 -13.948   6.648  1.00  0.00     0.146 C 
BRANCH  15  16
HETATM   16  C   UNL     1      43.918 -12.775   6.941  1.00  0.00     0.224 C 
HETATM   17  N   UNL     1      43.475 -11.966   7.959  1.00  0.00    -0.327 N 
HETATM   18  H   UNL     1      42.758 -12.324   8.585  1.00  0.00     0.169 HD
HETATM   19  O   UNL     1      44.813 -12.543   6.128  1.00  0.00    -0.273 OA
BRANCH  17  20
HETATM   20  C   UNL     1      43.870 -10.634   8.206  1.00  0.00     0.034 A 
HETATM   21  C   UNL     1      43.084  -9.518   7.905  1.00  0.00     0.029 A 
HETATM   22  C   UNL     1      43.516  -8.235   8.247  1.00  0.00     0.002 A 
HETATM   23  C   UNL     1      44.737  -8.054   8.889  1.00  0.00     0.000 A 
HETATM   24  C   UNL     1      45.535  -9.156   9.179  1.00  0.00     0.002 A 
HETATM   25  C   UNL     1      45.108 -10.440   8.834  1.00  0.00     0.029 A 
ENDBRANCH  17  20
ENDBRANCH  15  16
ENDBRANCH   1  15
TORSDOF 3
ENDMDL
MODEL 9
REMARK VINA RESULT:      -7.0     14.777     16.423
REMARK  3 active torsions:
REMARK  status: ('A' for Active; 'I' for Inactive)
REMARK    1  A    between atoms: C_4  and  N_5 
REMARK       I    between atoms: N_5  and  C_6 
REMARK    2  A    between atoms: C_6  and  C_7 
REMARK    3  A    between atoms: C_7  and  C_8 
ROOT
HETATM    1  C   UNL     1      46.272 -29.087   0.208  1.00  0.00     0.286 C 
HETATM    2  N   UNL     1      45.193 -28.138  -0.339  1.00  0.00    -0.056 N 
HETATM    3  H   UNL     1      44.415 -28.148   0.334  1.00  0.00     0.278 HD
HETATM    4  H   UNL     1      45.539 -27.156  -0.275  1.00  0.00     0.278 HD
HETATM    5  C   UNL     1      44.639 -28.410  -1.703  1.00  0.00     0.209 C 
HETATM    6  C   UNL     1      44.391 -29.926  -1.875  1.00  0.00     0.115 C 
HETATM    7  N   UNL     1      45.572 -30.712  -1.542  1.00  0.00    -0.353 N 
HETATM    8  C   UNL     1      46.415 -30.434  -0.504  1.00  0.00     0.249 C 
HETATM    9  O   UNL     1      47.261 -31.255  -0.166  1.00  0.00    -0.271 OA
HETATM   10  C   UNL     1      45.560 -27.821  -2.771  1.00  0.00     0.035 C 
HETATM   11  C   UNL     1      45.053 -28.157  -4.172  1.00  0.00     0.002 C 
HETATM   12  C   UNL     1      44.858 -29.660  -4.356  1.00  0.00     0.002 C 
HETATM   13  C   UNL     1      43.921 -30.240  -3.297  1.00  0.00     0.027 C 
HETATM   14  H   UNL     1      45.657 -31.663  -1.897  1.00  0.00     0.163 HD
ENDROOT
BRANCH   1  15
HETATM   15  C   UNL     1      47.634 -28.389   0.295  1.00  0.00     0.146 C 
BRANCH  15  16
HETATM   16  C   UNL     1      48.110 -28.604   1.702  1.00  0.00     0.224 C 
HETATM   17  N   UNL     1      49.057 -29.590   1.837  1.00  0.00    -0.327 N 
HETATM   18  H   UNL     1      49.538 -29.917   1.004  1.00  0.00     0.169 HD
HETATM   19  O   UNL     1      47.471 -28.044   2.594  1.00  0.00    -0.273 OA
BRANCH  17  20
HETATM   20  C   UNL     1      49.405 -30.263   3.029  1.00  0.00     0.034 A 
HETATM   21  C   UNL     1      48.536 -31.099   3.735  1.00  0.00     0.029 A 
HETATM   22  C   UNL     1      48.979 -31.786   4.868  1.00  0.00     0.002 A 
HETATM   23  C   UNL     1      50.293 -31.643   5.305  1.00  0.00     0.000 A 
HETATM   24  C   UNL     1      51.162 -30.801   4.618  1.00  0.00     0.002 A 
HETATM   25  C   UNL     1      50.719 -30.109   3.489  1.00  0.00     0.029 A 
ENDBRANCH  17  20
ENDBRANCH  15  16
ENDBRANCH   1  15
TORSDOF 3
ENDMDL
MODEL 10
REMARK VINA RESULT:      -6.6     13.351     14.995
REMARK  3 active torsions:
REMARK  status: ('A' for Active; 'I' for Inactive)
REMARK    1  A    between atoms: C_4  and  N_5 
REMARK       I    between atoms: N_5  and  C_6 
REMARK    2  A    between atoms: C_6  and  C_7 
REMARK    3  A    between atoms: C_7  and  C_8 
ROOT
HETATM    1  C   UNL     1      40.757  -8.589  12.428  1.00  0.00     0.286 C 
HETATM    2  N   UNL     1      41.937  -7.676  12.064  1.00  0.00    -0.056 N 
HETATM    3  H   UNL     1      41.542  -6.766  11.793  1.00  0.00     0.278 HD
HETATM    4  H   UNL     1      42.470  -7.445  12.931  1.00  0.00     0.278 HD
HETATM    5  C   UNL     1      42.870  -8.123  10.981  1.00  0.00     0.209 C 
HETATM    6  C   UNL     1      42.061  -8.723   9.809  1.00  0.00     0.115 C 
HETATM    7  N   UNL     1      41.130  -9.749  10.258  1.00  0.00    -0.353 N 
HETATM    8  C   UNL     1      40.403  -9.679  11.412  1.00  0.00     0.249 C 
HETATM    9  O   UNL     1      39.496 -10.479  11.615  1.00  0.00    -0.271 OA
HETATM   10  C   UNL     1      43.914  -9.083  11.551  1.00  0.00     0.035 C 
HETATM   11  C   UNL     1      44.826  -9.613  10.445  1.00  0.00     0.002 C 
HETATM   12  C   UNL     1      44.026 -10.251   9.313  1.00  0.00     0.002 C 
HETATM   13  C   UNL     1      42.997  -9.281   8.734  1.00  0.00     0.027 C 
HETATM   14  H   UNL     1      40.772 -10.429   9.589  1.00  0.00     0.163 HD
ENDROOT
BRANCH   1  15
HETATM   15  C   UNL     1      40.938  -9.205  13.820  1.00  0.00     0.146 C 
BRANCH  15  16
HETATM   16  C   UNL     1      40.847  -8.058  14.784  1.00  0.00     0.224 C 
HETATM   17  N   UNL     1      41.436  -8.290  16.002  1.00  0.00    -0.327 N 
HETATM   18  H   UNL     1      42.081  -9.072  16.087  1.00  0.00     0.169 HD
HETATM   19  O   UNL     1      40.093  -7.134  14.475  1.00  0.00    -0.273 OA
BRANCH  17  20
HETATM   20  C   UNL     1      41.195  -7.585  17.201  1.00  0.00     0.034 A 
HETATM   21  C   UNL     1      40.263  -7.979  18.165  1.00  0.00     0.029 A 
HETATM   22  C   UNL     1      40.135  -7.265  19.359  1.00  0.00     0.002 A 
HETATM   23  C   UNL     1      40.935  -6.152  19.600  1.00  0.00     0.000 A 
HETATM   24  C   UNL     1      41.855  -5.742  18.641  1.00  0.00     0.002 A 
HETATM   25  C   UNL     1      41.981  -6.450  17.444  1.00  0.00     0.029 A 
ENDBRANCH  17  20
ENDBRANCH  15  16
ENDBRANCH   1  15
TORSDOF 3
ENDMDL
