MODEL 1
REMARK VINA RESULT:      -9.0      0.000      0.000
REMARK  2 active torsions:
REMARK  status: ('A' for Active; 'I' for Inactive)
REMARK    1  A    between atoms: C_15  and  C_16 
REMARK    2  A    between atoms: C_19  and  O_20 
ROOT
HETATM    1  C   UNL     1      43.146  -8.965  11.995  1.00  0.00     0.048 C 
HETATM    2  C   UNL     1      43.778  -9.418  10.711  1.00  0.00    -0.061 A 
HETATM    3  C   UNL     1      42.969  -9.705   9.597  1.00  0.00     0.021 A 
HETATM    4  C   UNL     1      43.559 -10.160   8.402  1.00  0.00    -0.000 A 
HETATM    5  C   UNL     1      44.950 -10.301   8.351  1.00  0.00     0.043 A 
HETATM    6  N   UNL     1      45.280 -10.722   7.079  1.00  0.00    -0.353 N 
HETATM    7  H   UNL     1      46.216 -10.913   6.747  1.00  0.00     0.166 HD
HETATM    8  C   UNL     1      44.140 -10.947   6.373  1.00  0.00     0.066 A 
HETATM    9  C   UNL     1      43.052 -10.570   7.138  1.00  0.00    -0.017 A 
HETATM   10  C   UNL     1      41.641 -10.685   6.628  1.00  0.00     0.043 C 
HETATM   11  C   UNL     1      41.591 -11.095   5.122  1.00  0.00     0.018 C 
HETATM   12  C   UNL     1      42.664 -12.157   4.808  1.00  0.00     0.065 A 
HETATM   13  C   UNL     1      43.980 -11.495   5.071  1.00  0.00     0.082 A 
HETATM   14  N   UNL     1      44.787 -11.353   4.075  1.00  0.00    -0.203 NA
HETATM   15  C   UNL     1      42.871 -12.574   3.348  1.00  0.00     0.121 A 
HETATM   16  N   UNL     1      44.164 -11.935   3.018  1.00  0.00    -0.207 NA
HETATM   17  C   UNL     1      45.773 -10.049   9.453  1.00  0.00     0.031 A 
HETATM   18  C   UNL     1      45.160  -9.616  10.634  1.00  0.00     0.009 A 
HETATM   19  H   UNL     1      44.088 -11.302   2.220  1.00  0.00     0.149 HD
ENDROOT
BRANCH  15  20
HETATM   20  C   UNL     1      42.938 -14.093   3.175  1.00  0.00    -0.038 A 
HETATM   21  C   UNL     1      42.830 -14.955   4.281  1.00  0.00     0.011 A 
HETATM   22  C   UNL     1      43.001 -16.338   4.140  1.00  0.00     0.037 A 
HETATM   23  C   UNL     1      43.254 -16.884   2.885  1.00  0.00     0.068 A 
HETATM   24  C   UNL     1      43.259 -16.061   1.764  1.00  0.00     0.037 A 
HETATM   25  C   UNL     1      43.106 -14.679   1.907  1.00  0.00     0.011 A 
BRANCH  23  26
HETATM   26  O   UNL     1      43.463 -18.217   2.657  1.00  0.00    -0.356 OA
HETATM   27  C   UNL     1      44.201 -18.859   3.695  1.00  0.00     0.210 C 
ENDBRANCH  23  26
ENDBRANCH  15  20
TORSDOF 2
ENDMDL
MODEL 2
REMARK VINA RESULT:      -8.6      5.299      8.139
REMARK  2 active torsions:
REMARK  status: ('A' for Active; 'I' for Inactive)
REMARK    1  A    between atoms: C_15  and  C_16 
REMARK    2  A    between atoms: C_19  and  O_20 
ROOT
HETATM    1  C   UNL     1      40.927  -9.704  -3.573  1.00  0.00     0.048 C 
HETATM    2  C   UNL     1      40.485 -10.882  -2.752  1.00  0.00    -0.061 A 
HETATM    3  C   UNL     1      40.922 -11.009  -1.421  1.00  0.00     0.021 A 
HETATM    4  C   UNL     1      40.533 -12.129  -0.661  1.00  0.00    -0.000 A 
HETATM    5  C   UNL     1      39.702 -13.086  -1.252  1.00  0.00     0.043 A 
HETATM    6  N   UNL     1      39.440 -14.054  -0.304  1.00  0.00    -0.353 N 
HETATM    7  H   UNL     1      38.869 -14.876  -0.445  1.00  0.00     0.166 HD
HETATM    8  C   UNL     1      40.161 -13.786   0.818  1.00  0.00     0.066 A 
HETATM    9  C   UNL     1      40.817 -12.580   0.658  1.00  0.00    -0.017 A 
HETATM   10  C   UNL     1      41.691 -11.999   1.736  1.00  0.00     0.043 C 
HETATM   11  C   UNL     1      41.609 -12.816   3.064  1.00  0.00     0.018 C 
HETATM   12  C   UNL     1      41.565 -14.330   2.773  1.00  0.00     0.065 A 
HETATM   13  C   UNL     1      40.303 -14.559   2.002  1.00  0.00     0.082 A 
HETATM   14  N   UNL     1      39.405 -15.314   2.537  1.00  0.00    -0.203 NA
HETATM   15  C   UNL     1      41.331 -15.290   3.945  1.00  0.00     0.121 A 
HETATM   16  N   UNL     1      39.942 -15.741   3.710  1.00  0.00    -0.207 NA
HETATM   17  C   UNL     1      39.278 -12.996  -2.582  1.00  0.00     0.031 A 
HETATM   18  C   UNL     1      39.693 -11.883  -3.321  1.00  0.00     0.009 A 
HETATM   19  H   UNL     1      39.334 -15.543   4.506  1.00  0.00     0.149 HD
ENDROOT
BRANCH  15  20
HETATM   20  C   UNL     1      42.309 -16.468   3.942  1.00  0.00    -0.038 A 
HETATM   21  C   UNL     1      42.637 -17.137   2.750  1.00  0.00     0.011 A 
HETATM   22  C   UNL     1      43.443 -18.282   2.760  1.00  0.00     0.037 A 
HETATM   23  C   UNL     1      43.960 -18.758   3.962  1.00  0.00     0.068 A 
HETATM   24  C   UNL     1      43.736 -18.050   5.137  1.00  0.00     0.037 A 
HETATM   25  C   UNL     1      42.915 -16.918   5.129  1.00  0.00     0.011 A 
BRANCH  23  26
HETATM   26  O   UNL     1      44.732 -19.883   4.072  1.00  0.00    -0.356 OA
HETATM   27  C   UNL     1      44.356 -20.722   5.163  1.00  0.00     0.210 C 
ENDBRANCH  23  26
ENDBRANCH  15  20
TORSDOF 2
ENDMDL
MODEL 3
REMARK VINA RESULT:      -8.5      3.106      8.273
REMARK  2 active torsions:
REMARK  status: ('A' for Active; 'I' for Inactive)
REMARK    1  A    between atoms: C_15  and  C_16 
REMARK    2  A    between atoms: C_19  and  O_20 
ROOT
HETATM    1  C   UNL     1      44.485 -20.666   1.842  1.00  0.00     0.048 C 
HETATM    2  C   UNL     1      43.996 -19.796   2.964  1.00  0.00    -0.061 A 
HETATM    3  C   UNL     1      43.641 -18.460   2.708  1.00  0.00     0.021 A 
HETATM    4  C   UNL     1      43.212 -17.634   3.765  1.00  0.00    -0.000 A 
HETATM    5  C   UNL     1      43.137 -18.177   5.052  1.00  0.00     0.043 A 
HETATM    6  N   UNL     1      42.664 -17.191   5.894  1.00  0.00    -0.353 N 
HETATM    7  H   UNL     1      42.510 -17.290   6.888  1.00  0.00     0.166 HD
HETATM    8  C   UNL     1      42.543 -16.029   5.197  1.00  0.00     0.066 A 
HETATM    9  C   UNL     1      42.829 -16.268   3.865  1.00  0.00    -0.017 A 
HETATM   10  C   UNL     1      42.770 -15.178   2.829  1.00  0.00     0.043 C 
HETATM   11  C   UNL     1      42.189 -13.849   3.407  1.00  0.00     0.018 C 
HETATM   12  C   UNL     1      42.718 -13.594   4.833  1.00  0.00     0.065 A 
HETATM   13  C   UNL     1      42.208 -14.729   5.664  1.00  0.00     0.082 A 
HETATM   14  N   UNL     1      41.403 -14.446   6.632  1.00  0.00    -0.203 NA
HETATM   15  C   UNL     1      42.142 -12.414   5.623  1.00  0.00     0.121 A 
HETATM   16  N   UNL     1      41.294 -13.092   6.628  1.00  0.00    -0.207 NA
HETATM   17  C   UNL     1      43.512 -19.494   5.337  1.00  0.00     0.031 A 
HETATM   18  C   UNL     1      43.951 -20.287   4.272  1.00  0.00     0.009 A 
HETATM   19  H   UNL     1      40.322 -12.785   6.581  1.00  0.00     0.149 HD
ENDROOT
BRANCH  15  20
HETATM   20  C   UNL     1      43.230 -11.568   6.290  1.00  0.00    -0.038 A 
HETATM   21  C   UNL     1      44.587 -11.923   6.195  1.00  0.00     0.011 A 
HETATM   22  C   UNL     1      45.572 -11.214   6.894  1.00  0.00     0.037 A 
HETATM   23  C   UNL     1      45.217 -10.118   7.676  1.00  0.00     0.068 A 
HETATM   24  C   UNL     1      43.896  -9.686   7.698  1.00  0.00     0.037 A 
HETATM   25  C   UNL     1      42.910 -10.405   7.015  1.00  0.00     0.011 A 
BRANCH  23  26
HETATM   26  O   UNL     1      46.105  -9.385   8.415  1.00  0.00    -0.356 OA
HETATM   27  C   UNL     1      45.780  -9.336   9.803  1.00  0.00     0.210 C 
ENDBRANCH  23  26
ENDBRANCH  15  20
TORSDOF 2
ENDMDL
MODEL 4
REMARK VINA RESULT:      -8.4     18.029     19.146
REMARK  2 active torsions:
REMARK  status: ('A' for Active; 'I' for Inactive)
REMARK    1  A    between atoms: C_15  and  C_16 
REMARK    2  A    between atoms: C_19  and  O_20 
ROOT
HETATM    1  C   UNL     1      50.423 -32.198   6.043  1.00  0.00     0.048 C 
HETATM    2  C   UNL     1      50.057 -31.361   4.851  1.00  0.00    -0.061 A 
HETATM    3  C   UNL     1      48.707 -31.206   4.494  1.00  0.00     0.021 A 
HETATM    4  C   UNL     1      48.366 -30.446   3.358  1.00  0.00    -0.000 A 
HETATM    5  C   UNL     1      49.391 -29.850   2.617  1.00  0.00     0.043 A 
HETATM    6  N   UNL     1      48.805 -29.142   1.588  1.00  0.00    -0.353 N 
HETATM    7  H   UNL     1      49.298 -28.610   0.884  1.00  0.00     0.166 HD
HETATM    8  C   UNL     1      47.463 -29.364   1.602  1.00  0.00     0.066 A 
HETATM    9  C   UNL     1      47.141 -30.129   2.707  1.00  0.00    -0.017 A 
HETATM   10  C   UNL     1      45.724 -30.535   3.012  1.00  0.00     0.043 C 
HETATM   11  C   UNL     1      44.698 -29.849   2.055  1.00  0.00     0.018 C 
HETATM   12  C   UNL     1      45.243 -29.798   0.613  1.00  0.00     0.065 A 
HETATM   13  C   UNL     1      46.471 -28.944   0.673  1.00  0.00     0.082 A 
HETATM   14  N   UNL     1      46.468 -27.845  -0.001  1.00  0.00    -0.203 NA
HETATM   15  C   UNL     1      44.442 -29.025  -0.441  1.00  0.00     0.121 A 
HETATM   16  N   UNL     1      45.274 -27.819  -0.647  1.00  0.00    -0.207 NA
HETATM   17  C   UNL     1      50.743 -30.013   2.936  1.00  0.00     0.031 A 
HETATM   18  C   UNL     1      51.055 -30.787   4.058  1.00  0.00     0.009 A 
HETATM   19  H   UNL     1      44.755 -26.959  -0.462  1.00  0.00     0.149 HD
ENDROOT
BRANCH  15  20
HETATM   20  C   UNL     1      44.270 -29.814  -1.741  1.00  0.00    -0.038 A 
HETATM   21  C   UNL     1      44.195 -31.218  -1.735  1.00  0.00     0.011 A 
HETATM   22  C   UNL     1      44.148 -31.947  -2.930  1.00  0.00     0.037 A 
HETATM   23  C   UNL     1      44.146 -31.279  -4.152  1.00  0.00     0.068 A 
HETATM   24  C   UNL     1      44.113 -29.889  -4.178  1.00  0.00     0.037 A 
HETATM   25  C   UNL     1      44.178 -29.163  -2.985  1.00  0.00     0.011 A 
BRANCH  23  26
HETATM   26  O   UNL     1      44.132 -31.907  -5.367  1.00  0.00    -0.356 OA
HETATM   27  C   UNL     1      43.986 -31.009  -6.466  1.00  0.00     0.210 C 
ENDBRANCH  23  26
ENDBRANCH  15  20
TORSDOF 2
ENDMDL
MODEL 5
REMARK VINA RESULT:      -8.3      6.427      9.630
REMARK  2 active torsions:
REMARK  status: ('A' for Active; 'I' for Inactive)
REMARK    1  A    between atoms: C_15  and  C_16 
REMARK    2  A    between atoms: C_19  and  O_20 
ROOT
HETATM    1  C   UNL     1      38.072  -3.233  17.276  1.00  0.00     0.048 C 
HETATM    2  C   UNL     1      38.171  -4.156  16.096  1.00  0.00    -0.061 A 
HETATM    3  C   UNL     1      39.149  -5.166  16.078  1.00  0.00     0.021 A 
HETATM    4  C   UNL     1      39.262  -6.012  14.958  1.00  0.00    -0.000 A 
HETATM    5  C   UNL     1      38.378  -5.831  13.888  1.00  0.00     0.043 A 
HETATM    6  N   UNL     1      38.667  -6.792  12.942  1.00  0.00    -0.353 N 
HETATM    7  H   UNL     1      38.193  -6.906  12.056  1.00  0.00     0.166 HD
HETATM    8  C   UNL     1      39.763  -7.494  13.338  1.00  0.00     0.066 A 
HETATM    9  C   UNL     1      40.137  -7.074  14.601  1.00  0.00    -0.017 A 
HETATM   10  C   UNL     1      41.314  -7.673  15.323  1.00  0.00     0.043 C 
HETATM   11  C   UNL     1      41.909  -8.900  14.563  1.00  0.00     0.018 C 
HETATM   12  C   UNL     1      41.926  -8.646  13.042  1.00  0.00     0.065 A 
HETATM   13  C   UNL     1      40.492  -8.495  12.640  1.00  0.00     0.082 A 
HETATM   14  N   UNL     1      40.008  -9.361  11.815  1.00  0.00    -0.203 NA
HETATM   15  C   UNL     1      42.335  -9.797  12.116  1.00  0.00     0.121 A 
HETATM   16  N   UNL     1      41.044 -10.182  11.504  1.00  0.00    -0.207 NA
HETATM   17  C   UNL     1      37.416  -4.817  13.871  1.00  0.00     0.031 A 
HETATM   18  C   UNL     1      37.337  -3.978  14.988  1.00  0.00     0.009 A 
HETATM   19  H   UNL     1      40.819 -11.165  11.669  1.00  0.00     0.149 HD
ENDROOT
BRANCH  15  20
HETATM   20  C   UNL     1      43.349  -9.364  11.054  1.00  0.00    -0.038 A 
HETATM   21  C   UNL     1      43.118  -8.236  10.246  1.00  0.00     0.011 A 
HETATM   22  C   UNL     1      43.990  -7.902   9.203  1.00  0.00     0.037 A 
HETATM   23  C   UNL     1      45.125  -8.675   8.970  1.00  0.00     0.068 A 
HETATM   24  C   UNL     1      45.427  -9.730   9.824  1.00  0.00     0.037 A 
HETATM   25  C   UNL     1      44.547 -10.074  10.854  1.00  0.00     0.011 A 
BRANCH  23  26
HETATM   26  O   UNL     1      46.015  -8.442   7.958  1.00  0.00    -0.356 OA
HETATM   27  C   UNL     1      46.747  -9.603   7.570  1.00  0.00     0.210 C 
ENDBRANCH  23  26
ENDBRANCH  15  20
TORSDOF 2
ENDMDL
MODEL 6
REMARK VINA RESULT:      -8.1      3.509      8.511
REMARK  2 active torsions:
REMARK  status: ('A' for Active; 'I' for Inactive)
REMARK    1  A    between atoms: C_15  and  C_16 
REMARK    2  A    between atoms: C_19  and  O_20 
ROOT
HETATM    1  C   UNL     1      42.164 -16.583   3.446  1.00  0.00     0.048 C 
HETATM    2  C   UNL     1      41.883 -15.226   4.025  1.00  0.00    -0.061 A 
HETATM    3  C   UNL     1      42.884 -14.553   4.747  1.00  0.00     0.021 A 
HETATM    4  C   UNL     1      42.611 -13.294   5.317  1.00  0.00    -0.000 A 
HETATM    5  C   UNL     1      41.341 -12.736   5.134  1.00  0.00     0.043 A 
HETATM    6  N   UNL     1      41.336 -11.502   5.750  1.00  0.00    -0.353 N 
HETATM    7  H   UNL     1      40.550 -10.866   5.788  1.00  0.00     0.166 HD
HETATM    8  C   UNL     1      42.519 -11.320   6.397  1.00  0.00     0.066 A 
HETATM    9  C   UNL     1      43.355 -12.386   6.119  1.00  0.00    -0.017 A 
HETATM   10  C   UNL     1      44.749 -12.472   6.680  1.00  0.00     0.043 C 
HETATM   11  C   UNL     1      45.163 -11.167   7.431  1.00  0.00     0.018 C 
HETATM   12  C   UNL     1      43.983 -10.611   8.253  1.00  0.00     0.065 A 
HETATM   13  C   UNL     1      42.922 -10.262   7.257  1.00  0.00     0.082 A 
HETATM   14  N   UNL     1      42.572  -9.024   7.165  1.00  0.00    -0.203 NA
HETATM   15  C   UNL     1      44.151  -9.251   8.939  1.00  0.00     0.121 A 
HETATM   16  N   UNL     1      43.298  -8.372   8.109  1.00  0.00    -0.207 NA
HETATM   17  C   UNL     1      40.321 -13.398   4.444  1.00  0.00     0.031 A 
HETATM   18  C   UNL     1      40.613 -14.655   3.903  1.00  0.00     0.009 A 
HETATM   19  H   UNL     1      43.822  -7.588   7.717  1.00  0.00     0.149 HD
ENDROOT
BRANCH  15  20
HETATM   20  C   UNL     1      43.684  -9.267  10.397  1.00  0.00    -0.038 A 
HETATM   21  C   UNL     1      43.558 -10.475  11.106  1.00  0.00     0.011 A 
HETATM   22  C   UNL     1      43.027 -10.502  12.401  1.00  0.00     0.037 A 
HETATM   23  C   UNL     1      42.641  -9.317  13.021  1.00  0.00     0.068 A 
HETATM   24  C   UNL     1      42.856  -8.102  12.378  1.00  0.00     0.037 A 
HETATM   25  C   UNL     1      43.369  -8.077  11.078  1.00  0.00     0.011 A 
BRANCH  23  26
HETATM   26  O   UNL     1      42.087  -9.250  14.270  1.00  0.00    -0.356 OA
HETATM   27  C   UNL     1      40.943  -8.400  14.336  1.00  0.00     0.210 C 
ENDBRANCH  23  26
ENDBRANCH  15  20
TORSDOF 2
ENDMDL
MODEL 7
REMARK VINA RESULT:      -8.0     17.535     20.612
REMARK  2 active torsions:
REMARK  status: ('A' for Active; 'I' for Inactive)
REMARK    1  A    between atoms: C_15  and  C_16 
REMARK    2  A    between atoms: C_19  and  O_20 
ROOT
HETATM    1  C   UNL     1      44.182 -31.089  -7.545  1.00  0.00     0.048 C 
HETATM    2  C   UNL     1      44.219 -31.339  -6.065  1.00  0.00    -0.061 A 
HETATM    3  C   UNL     1      44.551 -30.293  -5.187  1.00  0.00     0.021 A 
HETATM    4  C   UNL     1      44.615 -30.535  -3.801  1.00  0.00    -0.000 A 
HETATM    5  C   UNL     1      44.330 -31.821  -3.331  1.00  0.00     0.043 A 
HETATM    6  N   UNL     1      44.427 -31.793  -1.955  1.00  0.00    -0.353 N 
HETATM    7  H   UNL     1      44.278 -32.581  -1.338  1.00  0.00     0.166 HD
HETATM    8  C   UNL     1      44.864 -30.566  -1.563  1.00  0.00     0.066 A 
HETATM    9  C   UNL     1      44.951 -29.742  -2.669  1.00  0.00    -0.017 A 
HETATM   10  C   UNL     1      45.394 -28.308  -2.562  1.00  0.00     0.043 C 
HETATM   11  C   UNL     1      45.556 -27.852  -1.077  1.00  0.00     0.018 C 
HETATM   12  C   UNL     1      46.191 -28.971  -0.227  1.00  0.00     0.065 A 
HETATM   13  C   UNL     1      45.221 -30.110  -0.265  1.00  0.00     0.082 A 
HETATM   14  N   UNL     1      44.690 -30.480   0.851  1.00  0.00    -0.203 NA
HETATM   15  C   UNL     1      46.291 -28.766   1.289  1.00  0.00     0.121 A 
HETATM   16  N   UNL     1      45.255 -29.690   1.801  1.00  0.00    -0.207 NA
HETATM   17  C   UNL     1      44.025 -32.885  -4.186  1.00  0.00     0.031 A 
HETATM   18  C   UNL     1      43.985 -32.621  -5.559  1.00  0.00     0.009 A 
HETATM   19  H   UNL     1      44.555 -29.207   2.365  1.00  0.00     0.149 HD
ENDROOT
BRANCH  15  20
HETATM   20  C   UNL     1      47.675 -29.119   1.839  1.00  0.00    -0.038 A 
HETATM   21  C   UNL     1      48.633 -29.762   1.035  1.00  0.00     0.011 A 
HETATM   22  C   UNL     1      49.858 -30.184   1.567  1.00  0.00     0.037 A 
HETATM   23  C   UNL     1      50.157 -29.941   2.905  1.00  0.00     0.068 A 
HETATM   24  C   UNL     1      49.268 -29.213   3.688  1.00  0.00     0.037 A 
HETATM   25  C   UNL     1      48.037 -28.808   3.162  1.00  0.00     0.011 A 
BRANCH  23  26
HETATM   26  O   UNL     1      51.313 -30.341   3.517  1.00  0.00    -0.356 OA
HETATM   27  C   UNL     1      51.109 -30.857   4.831  1.00  0.00     0.210 C 
ENDBRANCH  23  26
ENDBRANCH  15  20
TORSDOF 2
ENDMDL
MODEL 8
REMARK VINA RESULT:      -8.0      5.723      8.246
REMARK  2 active torsions:
REMARK  status: ('A' for Active; 'I' for Inactive)
REMARK    1  A    between atoms: C_15  and  C_16 
REMARK    2  A    between atoms: C_19  and  O_20 
ROOT
HETATM    1  C   UNL     1      43.943 -20.527   2.067  1.00  0.00     0.048 C 
HETATM    2  C   UNL     1      43.646 -19.215   2.734  1.00  0.00    -0.061 A 
HETATM    3  C   UNL     1      42.565 -18.433   2.290  1.00  0.00     0.021 A 
HETATM    4  C   UNL     1      42.306 -17.188   2.895  1.00  0.00    -0.000 A 
HETATM    5  C   UNL     1      43.131 -16.766   3.942  1.00  0.00     0.043 A 
HETATM    6  N   UNL     1      42.656 -15.548   4.382  1.00  0.00    -0.353 N 
HETATM    7  H   UNL     1      43.054 -14.996   5.130  1.00  0.00     0.166 HD
HETATM    8  C   UNL     1      41.632 -15.151   3.579  1.00  0.00     0.066 A 
HETATM    9  C   UNL     1      41.353 -16.156   2.672  1.00  0.00    -0.017 A 
HETATM   10  C   UNL     1      40.256 -16.025   1.650  1.00  0.00     0.043 C 
HETATM   11  C   UNL     1      39.401 -14.737   1.867  1.00  0.00     0.018 C 
HETATM   12  C   UNL     1      40.296 -13.545   2.264  1.00  0.00     0.065 A 
HETATM   13  C   UNL     1      40.917 -13.923   3.573  1.00  0.00     0.082 A 
HETATM   14  N   UNL     1      40.637 -13.193   4.599  1.00  0.00    -0.203 NA
HETATM   15  C   UNL     1      39.621 -12.230   2.667  1.00  0.00     0.121 A 
HETATM   16  N   UNL     1      39.838 -12.199   4.130  1.00  0.00    -0.207 NA
HETATM   17  C   UNL     1      44.228 -17.512   4.383  1.00  0.00     0.031 A 
HETATM   18  C   UNL     1      44.475 -18.737   3.753  1.00  0.00     0.009 A 
HETATM   19  H   UNL     1      38.961 -12.136   4.648  1.00  0.00     0.149 HD
ENDROOT
BRANCH  15  20
HETATM   20  C   UNL     1      40.251 -11.014   1.984  1.00  0.00    -0.038 A 
HETATM   21  C   UNL     1      39.955  -9.707   2.410  1.00  0.00     0.011 A 
HETATM   22  C   UNL     1      40.443  -8.591   1.718  1.00  0.00     0.037 A 
HETATM   23  C   UNL     1      41.261  -8.766   0.605  1.00  0.00     0.068 A 
HETATM   24  C   UNL     1      41.651 -10.048   0.231  1.00  0.00     0.037 A 
HETATM   25  C   UNL     1      41.149 -11.161   0.911  1.00  0.00     0.011 A 
BRANCH  23  26
HETATM   26  O   UNL     1      41.759  -7.739  -0.149  1.00  0.00    -0.356 OA
HETATM   27  C   UNL     1      42.410  -8.175  -1.340  1.00  0.00     0.210 C 
ENDBRANCH  23  26
ENDBRANCH  15  20
TORSDOF 2
ENDMDL
MODEL 9
REMARK VINA RESULT:      -8.0     17.587     20.117
REMARK  2 active torsions:
REMARK  status: ('A' for Active; 'I' for Inactive)
REMARK    1  A    between atoms: C_15  and  C_16 
REMARK    2  A    between atoms: C_19  and  O_20 
ROOT
HETATM    1  C   UNL     1      53.592 -33.223  -1.095  1.00  0.00     0.048 C 
HETATM    2  C   UNL     1      52.502 -32.192  -1.032  1.00  0.00    -0.061 A 
HETATM    3  C   UNL     1      51.710 -32.082   0.123  1.00  0.00     0.021 A 
HETATM    4  C   UNL     1      50.668 -31.136   0.171  1.00  0.00    -0.000 A 
HETATM    5  C   UNL     1      50.457 -30.313  -0.941  1.00  0.00     0.043 A 
HETATM    6  N   UNL     1      49.416 -29.461  -0.638  1.00  0.00    -0.353 N 
HETATM    7  H   UNL     1      49.036 -28.754  -1.253  1.00  0.00     0.166 HD
HETATM    8  C   UNL     1      48.905 -29.794   0.578  1.00  0.00     0.066 A 
HETATM    9  C   UNL     1      49.678 -30.797   1.134  1.00  0.00    -0.017 A 
HETATM   10  C   UNL     1      49.376 -31.376   2.490  1.00  0.00     0.043 C 
HETATM   11  C   UNL     1      48.238 -30.597   3.222  1.00  0.00     0.018 C 
HETATM   12  C   UNL     1      47.121 -30.202   2.235  1.00  0.00     0.065 A 
HETATM   13  C   UNL     1      47.762 -29.278   1.247  1.00  0.00     0.082 A 
HETATM   14  N   UNL     1      47.322 -28.067   1.189  1.00  0.00    -0.203 NA
HETATM   15  C   UNL     1      45.990 -29.300   2.738  1.00  0.00     0.121 A 
HETATM   16  N   UNL     1      46.299 -28.010   2.082  1.00  0.00    -0.207 NA
HETATM   17  C   UNL     1      51.214 -30.423  -2.112  1.00  0.00     0.031 A 
HETATM   18  C   UNL     1      52.231 -31.383  -2.139  1.00  0.00     0.009 A 
HETATM   19  H   UNL     1      46.421 -27.255   2.758  1.00  0.00     0.149 HD
ENDROOT
BRANCH  15  20
HETATM   20  C   UNL     1      44.606 -29.814   2.334  1.00  0.00    -0.038 A 
HETATM   21  C   UNL     1      43.827 -29.130   1.383  1.00  0.00     0.011 A 
HETATM   22  C   UNL     1      42.518 -29.536   1.093  1.00  0.00     0.037 A 
HETATM   23  C   UNL     1      41.978 -30.651   1.729  1.00  0.00     0.068 A 
HETATM   24  C   UNL     1      42.769 -31.402   2.591  1.00  0.00     0.037 A 
HETATM   25  C   UNL     1      44.069 -30.987   2.895  1.00  0.00     0.011 A 
BRANCH  23  26
HETATM   26  O   UNL     1      40.702 -31.103   1.530  1.00  0.00    -0.356 OA
HETATM   27  C   UNL     1      40.170 -31.806   2.652  1.00  0.00     0.210 C 
ENDBRANCH  23  26
ENDBRANCH  15  20
TORSDOF 2
ENDMDL
MODEL 10
REMARK VINA RESULT:      -7.9      2.676      5.338
REMARK  2 active torsions:
REMARK  status: ('A' for Active; 'I' for Inactive)
REMARK    1  A    between atoms: C_15  and  C_16 
REMARK    2  A    between atoms: C_19  and  O_20 
ROOT
HETATM    1  C   UNL     1      40.168  -5.493  14.670  1.00  0.00     0.048 C 
HETATM    2  C   UNL     1      40.975  -6.645  14.144  1.00  0.00    -0.061 A 
HETATM    3  C   UNL     1      41.571  -6.559  12.873  1.00  0.00     0.021 A 
HETATM    4  C   UNL     1      42.302  -7.651  12.367  1.00  0.00    -0.000 A 
HETATM    5  C   UNL     1      42.429  -8.798  13.158  1.00  0.00     0.043 A 
HETATM    6  N   UNL     1      43.208  -9.699  12.463  1.00  0.00    -0.353 N 
HETATM    7  H   UNL     1      43.468 -10.622  12.783  1.00  0.00     0.166 HD
HETATM    8  C   UNL     1      43.481  -9.196  11.229  1.00  0.00     0.066 A 
HETATM    9  C   UNL     1      42.977  -7.911  11.143  1.00  0.00    -0.017 A 
HETATM   10  C   UNL     1      43.130  -7.077   9.900  1.00  0.00     0.043 C 
HETATM   11  C   UNL     1      44.052  -7.761   8.842  1.00  0.00     0.018 C 
HETATM   12  C   UNL     1      43.783  -9.278   8.780  1.00  0.00     0.065 A 
HETATM   13  C   UNL     1      44.145  -9.810  10.132  1.00  0.00     0.082 A 
HETATM   14  N   UNL     1      45.112 -10.660  10.200  1.00  0.00    -0.203 NA
HETATM   15  C   UNL     1      44.697 -10.145   7.908  1.00  0.00     0.121 A 
HETATM   16  N   UNL     1      45.506 -10.865   8.917  1.00  0.00    -0.207 NA
HETATM   17  C   UNL     1      41.823  -8.918  14.412  1.00  0.00     0.031 A 
HETATM   18  C   UNL     1      41.087  -7.825  14.884  1.00  0.00     0.009 A 
HETATM   19  H   UNL     1      46.507 -10.705   8.792  1.00  0.00     0.149 HD
ENDROOT
BRANCH  15  20
HETATM   20  C   UNL     1      43.913 -11.119   7.023  1.00  0.00    -0.038 A 
HETATM   21  C   UNL     1      42.736 -10.717   6.369  1.00  0.00     0.011 A 
HETATM   22  C   UNL     1      41.959 -11.634   5.649  1.00  0.00     0.037 A 
HETATM   23  C   UNL     1      42.365 -12.962   5.548  1.00  0.00     0.068 A 
HETATM   24  C   UNL     1      43.580 -13.354   6.098  1.00  0.00     0.037 A 
HETATM   25  C   UNL     1      44.346 -12.443   6.832  1.00  0.00     0.011 A 
BRANCH  23  26
HETATM   26  O   UNL     1      41.657 -13.932   4.892  1.00  0.00    -0.356 OA
HETATM   27  C   UNL     1      42.156 -15.248   5.120  1.00  0.00     0.210 C 
ENDBRANCH  23  26
ENDBRANCH  15  20
TORSDOF 2
ENDMDL
