MODEL 1
REMARK VINA RESULT:      -7.7      0.000      0.000
REMARK  5 active torsions:
REMARK  status: ('A' for Active; 'I' for Inactive)
REMARK    1  A    between atoms: C_3  and  N_4 
REMARK       I    between atoms: N_4  and  C_5 
REMARK       I    between atoms: C_5  and  N_6 
REMARK    2  A    between atoms: N_6  and  C_7 
REMARK    3  A    between atoms: C_7  and  C_8 
REMARK    4  A    between atoms: C_8  and  C_9 
REMARK    5  A    between atoms: N_16  and  C_17 
ROOT
HETATM    1  C   UNL     1      44.004 -13.433   6.790  1.00  0.00     0.054 C 
HETATM    2  C   UNL     1      43.428 -14.718   6.322  1.00  0.00     0.003 A 
HETATM    3  C   UNL     1      42.071 -15.104   6.171  1.00  0.00     0.159 A 
HETATM    4  N   UNL     1      41.966 -16.373   5.771  1.00  0.00    -0.149 NA
HETATM    5  N   UNL     1      43.249 -16.796   5.549  1.00  0.00    -0.241 N 
HETATM    6  C   UNL     1      44.142 -15.838   5.962  1.00  0.00     0.129 A 
ENDROOT
BRANCH   3   7
HETATM    7  N   UNL     1      41.012 -14.268   6.440  1.00  0.00    -0.291 N 
HETATM    8  C   UNL     1      40.207 -13.556   5.617  1.00  0.00     0.321 C 
HETATM    9  N   UNL     1      40.430 -13.600   4.279  1.00  0.00    -0.342 N 
HETATM   10  O   UNL     1      39.294 -12.900   6.120  1.00  0.00    -0.247 OA
HETATM   11  H   UNL     1      41.086 -14.305   3.954  1.00  0.00     0.164 HD
HETATM   12  H   UNL     1      40.747 -14.163   7.406  1.00  0.00     0.172 HD
BRANCH   9  13
HETATM   13  C   UNL     1      39.456 -13.016   3.387  1.00  0.00     0.134 C 
BRANCH  13  14
HETATM   14  C   UNL     1      40.008 -12.761   1.994  1.00  0.00    -0.021 A 
HETATM   15  C   UNL     1      39.771 -11.352   1.456  1.00  0.00     0.012 A 
HETATM   16  C   UNL     1      41.148 -11.759   1.882  1.00  0.00     0.012 A 
BRANCH  14  17
HETATM   17  C   UNL     1      39.875 -13.966   1.027  1.00  0.00    -0.004 A 
HETATM   18  C   UNL     1      41.023 -14.875   0.647  1.00  0.00     0.006 A 
HETATM   19  C   UNL     1      39.909 -15.400   1.497  1.00  0.00     0.006 A 
ENDBRANCH  14  17
ENDBRANCH  13  14
ENDBRANCH   9  13
ENDBRANCH   3   7
BRANCH   5  20
HETATM   20  C   UNL     1      43.494 -18.101   5.020  1.00  0.00     0.079 A 
HETATM   21  C   UNL     1      43.622 -18.410   3.656  1.00  0.00     0.062 A 
HETATM   22 CL   UNL     1      43.333 -17.329   2.339  1.00  0.00    -0.082 Cl
HETATM   23  C   UNL     1      43.917 -19.730   3.263  1.00  0.00     0.026 A 
HETATM   24  C   UNL     1      44.063 -20.746   4.203  1.00  0.00     0.002 A 
HETATM   25  C   UNL     1      43.902 -20.459   5.551  1.00  0.00     0.002 A 
HETATM   26  C   UNL     1      43.617 -19.152   5.953  1.00  0.00     0.033 A 
ENDBRANCH   5  20
TORSDOF 5
ENDMDL
MODEL 2
REMARK VINA RESULT:      -7.6      2.583      3.844
REMARK  5 active torsions:
REMARK  status: ('A' for Active; 'I' for Inactive)
REMARK    1  A    between atoms: C_3  and  N_4 
REMARK       I    between atoms: N_4  and  C_5 
REMARK       I    between atoms: C_5  and  N_6 
REMARK    2  A    between atoms: N_6  and  C_7 
REMARK    3  A    between atoms: C_7  and  C_8 
REMARK    4  A    between atoms: C_8  and  C_9 
REMARK    5  A    between atoms: N_16  and  C_17 
ROOT
HETATM    1  C   UNL     1      40.045 -13.052   5.180  1.00  0.00     0.054 C 
HETATM    2  C   UNL     1      40.970 -13.895   4.382  1.00  0.00     0.003 A 
HETATM    3  C   UNL     1      41.712 -13.577   3.216  1.00  0.00     0.159 A 
HETATM    4  N   UNL     1      42.390 -14.634   2.765  1.00  0.00    -0.149 NA
HETATM    5  N   UNL     1      42.189 -15.622   3.690  1.00  0.00    -0.241 N 
HETATM    6  C   UNL     1      41.264 -15.218   4.622  1.00  0.00     0.129 A 
ENDROOT
BRANCH   3   7
HETATM    7  N   UNL     1      41.694 -12.336   2.622  1.00  0.00    -0.291 N 
HETATM    8  C   UNL     1      41.502 -11.966   1.335  1.00  0.00     0.321 C 
HETATM    9  N   UNL     1      41.308 -12.928   0.396  1.00  0.00    -0.342 N 
HETATM   10  O   UNL     1      41.502 -10.763   1.068  1.00  0.00    -0.247 OA
HETATM   11  H   UNL     1      41.147 -13.869   0.742  1.00  0.00     0.164 HD
HETATM   12  H   UNL     1      41.819 -11.539   3.226  1.00  0.00     0.172 HD
BRANCH   9  13
HETATM   13  C   UNL     1      40.898 -12.538  -0.932  1.00  0.00     0.134 C 
BRANCH  13  14
HETATM   14  C   UNL     1      39.574 -13.156  -1.348  1.00  0.00    -0.021 A 
HETATM   15  C   UNL     1      39.655 -14.115  -2.533  1.00  0.00     0.012 A 
HETATM   16  C   UNL     1      39.430 -14.660  -1.157  1.00  0.00     0.012 A 
BRANCH  14  17
HETATM   17  C   UNL     1      38.362 -12.196  -1.241  1.00  0.00    -0.004 A 
HETATM   18  C   UNL     1      37.862 -11.607   0.060  1.00  0.00     0.006 A 
HETATM   19  C   UNL     1      38.509 -10.720  -0.957  1.00  0.00     0.006 A 
ENDBRANCH  14  17
ENDBRANCH  13  14
ENDBRANCH   9  13
ENDBRANCH   3   7
BRANCH   5  20
HETATM   20  C   UNL     1      42.856 -16.879   3.558  1.00  0.00     0.079 A 
HETATM   21  C   UNL     1      43.781 -17.405   4.474  1.00  0.00     0.062 A 
HETATM   22 CL   UNL     1      44.437 -16.577   5.843  1.00  0.00    -0.082 Cl
HETATM   23  C   UNL     1      44.332 -18.682   4.256  1.00  0.00     0.026 A 
HETATM   24  C   UNL     1      43.994 -19.431   3.132  1.00  0.00     0.002 A 
HETATM   25  C   UNL     1      43.110 -18.905   2.202  1.00  0.00     0.002 A 
HETATM   26  C   UNL     1      42.551 -17.642   2.411  1.00  0.00     0.033 A 
ENDBRANCH   5  20
TORSDOF 5
ENDMDL
MODEL 3
REMARK VINA RESULT:      -7.5      3.045      7.169
REMARK  5 active torsions:
REMARK  status: ('A' for Active; 'I' for Inactive)
REMARK    1  A    between atoms: C_3  and  N_4 
REMARK       I    between atoms: N_4  and  C_5 
REMARK       I    between atoms: C_5  and  N_6 
REMARK    2  A    between atoms: N_6  and  C_7 
REMARK    3  A    between atoms: C_7  and  C_8 
REMARK    4  A    between atoms: C_8  and  C_9 
REMARK    5  A    between atoms: N_16  and  C_17 
ROOT
HETATM    1  C   UNL     1      42.300 -11.047   2.408  1.00  0.00     0.054 C 
HETATM    2  C   UNL     1      41.304 -11.963   1.800  1.00  0.00     0.003 A 
HETATM    3  C   UNL     1      40.573 -13.028   2.385  1.00  0.00     0.159 A 
HETATM    4  N   UNL     1      39.809 -13.650   1.484  1.00  0.00    -0.149 NA
HETATM    5  N   UNL     1      39.947 -12.931   0.327  1.00  0.00    -0.241 N 
HETATM    6  C   UNL     1      40.913 -11.967   0.480  1.00  0.00     0.129 A 
ENDROOT
BRANCH   3   7
HETATM    7  N   UNL     1      40.677 -13.379   3.711  1.00  0.00    -0.291 N 
HETATM    8  C   UNL     1      40.943 -14.568   4.300  1.00  0.00     0.321 C 
HETATM    9  N   UNL     1      41.131 -15.662   3.519  1.00  0.00    -0.342 N 
HETATM   10  O   UNL     1      41.014 -14.606   5.530  1.00  0.00    -0.247 OA
HETATM   11  H   UNL     1      41.231 -15.492   2.522  1.00  0.00     0.164 HD
HETATM   12  H   UNL     1      40.564 -12.642   4.389  1.00  0.00     0.172 HD
BRANCH   9  13
HETATM   13  C   UNL     1      41.618 -16.880   4.123  1.00  0.00     0.134 C 
BRANCH  13  14
HETATM   14  C   UNL     1      43.008 -17.263   3.644  1.00  0.00    -0.021 A 
HETATM   15  C   UNL     1      43.041 -18.118   2.380  1.00  0.00     0.012 A 
HETATM   16  C   UNL     1      43.458 -16.682   2.311  1.00  0.00     0.012 A 
BRANCH  14  17
HETATM   17  C   UNL     1      44.011 -17.572   4.785  1.00  0.00    -0.004 A 
HETATM   18  C   UNL     1      44.399 -16.581   5.861  1.00  0.00     0.006 A 
HETATM   19  C   UNL     1      43.582 -17.783   6.217  1.00  0.00     0.006 A 
ENDBRANCH  14  17
ENDBRANCH  13  14
ENDBRANCH   9  13
ENDBRANCH   3   7
BRANCH   5  20
HETATM   20  C   UNL     1      39.185 -13.279  -0.831  1.00  0.00     0.079 A 
HETATM   21  C   UNL     1      38.115 -12.531  -1.350  1.00  0.00     0.062 A 
HETATM   22 CL   UNL     1      37.387 -11.151  -0.606  1.00  0.00    -0.082 Cl
HETATM   23  C   UNL     1      37.475 -12.953  -2.531  1.00  0.00     0.026 A 
HETATM   24  C   UNL     1      37.868 -14.116  -3.188  1.00  0.00     0.002 A 
HETATM   25  C   UNL     1      38.900 -14.881  -2.664  1.00  0.00     0.002 A 
HETATM   26  C   UNL     1      39.546 -14.469  -1.497  1.00  0.00     0.033 A 
ENDBRANCH   5  20
TORSDOF 5
ENDMDL
MODEL 4
REMARK VINA RESULT:      -7.3      2.807      6.828
REMARK  5 active torsions:
REMARK  status: ('A' for Active; 'I' for Inactive)
REMARK    1  A    between atoms: C_3  and  N_4 
REMARK       I    between atoms: N_4  and  C_5 
REMARK       I    between atoms: C_5  and  N_6 
REMARK    2  A    between atoms: N_6  and  C_7 
REMARK    3  A    between atoms: C_7  and  C_8 
REMARK    4  A    between atoms: C_8  and  C_9 
REMARK    5  A    between atoms: N_16  and  C_17 
ROOT
HETATM    1  C   UNL     1      42.509 -11.268   2.930  1.00  0.00     0.054 C 
HETATM    2  C   UNL     1      41.396 -12.027   2.306  1.00  0.00     0.003 A 
HETATM    3  C   UNL     1      40.396 -12.833   2.907  1.00  0.00     0.159 A 
HETATM    4  N   UNL     1      39.604 -13.393   1.990  1.00  0.00    -0.149 NA
HETATM    5  N   UNL     1      40.005 -12.872   0.790  1.00  0.00    -0.241 N 
HETATM    6  C   UNL     1      41.141 -12.117   0.956  1.00  0.00     0.129 A 
ENDROOT
BRANCH   3   7
HETATM    7  N   UNL     1      40.295 -13.026   4.265  1.00  0.00    -0.291 N 
HETATM    8  C   UNL     1      40.554 -14.110   5.034  1.00  0.00     0.321 C 
HETATM    9  N   UNL     1      40.970 -15.256   4.436  1.00  0.00    -0.342 N 
HETATM   10  O   UNL     1      40.410 -14.007   6.253  1.00  0.00    -0.247 OA
HETATM   11  H   UNL     1      41.229 -15.184   3.456  1.00  0.00     0.164 HD
HETATM   12  H   UNL     1      40.002 -12.237   4.819  1.00  0.00     0.172 HD
BRANCH   9  13
HETATM   13  C   UNL     1      41.445 -16.343   5.259  1.00  0.00     0.134 C 
BRANCH  13  14
HETATM   14  C   UNL     1      42.858 -16.778   4.906  1.00  0.00    -0.021 A 
HETATM   15  C   UNL     1      43.939 -16.295   5.869  1.00  0.00     0.012 A 
HETATM   16  C   UNL     1      43.540 -17.738   5.871  1.00  0.00     0.012 A 
BRANCH  14  17
HETATM   17  C   UNL     1      43.158 -16.791   3.386  1.00  0.00    -0.004 A 
HETATM   18  C   UNL     1      43.594 -18.022   2.620  1.00  0.00     0.006 A 
HETATM   19  C   UNL     1      42.240 -17.436   2.375  1.00  0.00     0.006 A 
ENDBRANCH  14  17
ENDBRANCH  13  14
ENDBRANCH   9  13
ENDBRANCH   3   7
BRANCH   5  20
HETATM   20  C   UNL     1      39.297 -13.198  -0.408  1.00  0.00     0.079 A 
HETATM   21  C   UNL     1      38.293 -12.410  -0.995  1.00  0.00     0.062 A 
HETATM   22 CL   UNL     1      37.584 -10.993  -0.306  1.00  0.00    -0.082 Cl
HETATM   23  C   UNL     1      37.706 -12.816  -2.208  1.00  0.00     0.026 A 
HETATM   24  C   UNL     1      38.086 -14.001  -2.833  1.00  0.00     0.002 A 
HETATM   25  C   UNL     1      39.051 -14.805  -2.243  1.00  0.00     0.002 A 
HETATM   26  C   UNL     1      39.645 -14.409  -1.042  1.00  0.00     0.033 A 
ENDBRANCH   5  20
TORSDOF 5
ENDMDL
MODEL 5
REMARK VINA RESULT:      -7.2      2.650      3.567
REMARK  5 active torsions:
REMARK  status: ('A' for Active; 'I' for Inactive)
REMARK    1  A    between atoms: C_3  and  N_4 
REMARK       I    between atoms: N_4  and  C_5 
REMARK       I    between atoms: C_5  and  N_6 
REMARK    2  A    between atoms: N_6  and  C_7 
REMARK    3  A    between atoms: C_7  and  C_8 
REMARK    4  A    between atoms: C_8  and  C_9 
REMARK    5  A    between atoms: N_16  and  C_17 
ROOT
HETATM    1  C   UNL     1      40.501 -12.622   5.305  1.00  0.00     0.054 C 
HETATM    2  C   UNL     1      41.371 -13.526   4.511  1.00  0.00     0.003 A 
HETATM    3  C   UNL     1      42.165 -13.252   3.369  1.00  0.00     0.159 A 
HETATM    4  N   UNL     1      42.763 -14.355   2.913  1.00  0.00    -0.149 NA
HETATM    5  N   UNL     1      42.457 -15.338   3.815  1.00  0.00    -0.241 N 
HETATM    6  C   UNL     1      41.546 -14.873   4.732  1.00  0.00     0.129 A 
ENDROOT
BRANCH   3   7
HETATM    7  N   UNL     1      42.267 -12.004   2.800  1.00  0.00    -0.291 N 
HETATM    8  C   UNL     1      41.892 -11.546   1.583  1.00  0.00     0.321 C 
HETATM    9  N   UNL     1      41.329 -12.410   0.700  1.00  0.00    -0.342 N 
HETATM   10  O   UNL     1      42.069 -10.353   1.329  1.00  0.00    -0.247 OA
HETATM   11  H   UNL     1      41.063 -13.320   1.066  1.00  0.00     0.164 HD
HETATM   12  H   UNL     1      42.663 -11.272   3.369  1.00  0.00     0.172 HD
BRANCH   9  13
HETATM   13  C   UNL     1      40.740 -11.890  -0.512  1.00  0.00     0.134 C 
BRANCH  13  14
HETATM   14  C   UNL     1      39.310 -12.358  -0.723  1.00  0.00    -0.021 A 
HETATM   15  C   UNL     1      38.332 -11.958   0.379  1.00  0.00     0.012 A 
HETATM   16  C   UNL     1      38.262 -11.278  -0.952  1.00  0.00     0.012 A 
BRANCH  14  17
HETATM   17  C   UNL     1      39.189 -13.767  -1.358  1.00  0.00    -0.004 A 
HETATM   18  C   UNL     1      38.543 -14.037  -2.699  1.00  0.00     0.006 A 
HETATM   19  C   UNL     1      40.021 -14.206  -2.540  1.00  0.00     0.006 A 
ENDBRANCH  14  17
ENDBRANCH  13  14
ENDBRANCH   9  13
ENDBRANCH   3   7
BRANCH   5  20
HETATM   20  C   UNL     1      43.019 -16.645   3.672  1.00  0.00     0.079 A 
HETATM   21  C   UNL     1      43.856 -17.272   4.610  1.00  0.00     0.062 A 
HETATM   22 CL   UNL     1      44.523 -16.538   6.025  1.00  0.00    -0.082 Cl
HETATM   23  C   UNL     1      44.304 -18.586   4.377  1.00  0.00     0.026 A 
HETATM   24  C   UNL     1      43.951 -19.275   3.220  1.00  0.00     0.002 A 
HETATM   25  C   UNL     1      43.154 -18.651   2.271  1.00  0.00     0.002 A 
HETATM   26  C   UNL     1      42.697 -17.350   2.494  1.00  0.00     0.033 A 
ENDBRANCH   5  20
TORSDOF 5
ENDMDL
MODEL 6
REMARK VINA RESULT:      -7.0      3.076      7.019
REMARK  5 active torsions:
REMARK  status: ('A' for Active; 'I' for Inactive)
REMARK    1  A    between atoms: C_3  and  N_4 
REMARK       I    between atoms: N_4  and  C_5 
REMARK       I    between atoms: C_5  and  N_6 
REMARK    2  A    between atoms: N_6  and  C_7 
REMARK    3  A    between atoms: C_7  and  C_8 
REMARK    4  A    between atoms: C_8  and  C_9 
REMARK    5  A    between atoms: N_16  and  C_17 
ROOT
HETATM    1  C   UNL     1      40.205  -8.802   1.936  1.00  0.00     0.054 C 
HETATM    2  C   UNL     1      40.458 -10.102   1.268  1.00  0.00     0.003 A 
HETATM    3  C   UNL     1      41.504 -11.039   1.469  1.00  0.00     0.159 A 
HETATM    4  N   UNL     1      41.407 -12.069   0.625  1.00  0.00    -0.149 NA
HETATM    5  N   UNL     1      40.239 -11.873  -0.060  1.00  0.00    -0.241 N 
HETATM    6  C   UNL     1      39.704 -10.648   0.254  1.00  0.00     0.129 A 
ENDROOT
BRANCH   3   7
HETATM    7  N   UNL     1      42.501 -10.871   2.402  1.00  0.00    -0.291 N 
HETATM    8  C   UNL     1      42.962 -11.694   3.372  1.00  0.00     0.321 C 
HETATM    9  N   UNL     1      42.379 -12.909   3.536  1.00  0.00    -0.342 N 
HETATM   10  O   UNL     1      43.905 -11.308   4.065  1.00  0.00    -0.247 OA
HETATM   11  H   UNL     1      41.737 -13.203   2.806  1.00  0.00     0.164 HD
HETATM   12  H   UNL     1      43.015 -10.004   2.371  1.00  0.00     0.172 HD
BRANCH   9  13
HETATM   13  C   UNL     1      42.995 -13.868   4.422  1.00  0.00     0.134 C 
BRANCH  13  14
HETATM   14  C   UNL     1      42.527 -15.292   4.170  1.00  0.00    -0.021 A 
HETATM   15  C   UNL     1      41.954 -16.006   5.391  1.00  0.00     0.012 A 
HETATM   16  C   UNL     1      41.033 -15.555   4.300  1.00  0.00     0.012 A 
BRANCH  14  17
HETATM   17  C   UNL     1      43.418 -16.089   3.184  1.00  0.00    -0.004 A 
HETATM   18  C   UNL     1      42.920 -17.239   2.335  1.00  0.00     0.006 A 
HETATM   19  C   UNL     1      43.306 -15.950   1.684  1.00  0.00     0.006 A 
ENDBRANCH  14  17
ENDBRANCH  13  14
ENDBRANCH   9  13
ENDBRANCH   3   7
BRANCH   5  20
HETATM   20  C   UNL     1      39.781 -12.853  -0.995  1.00  0.00     0.079 A 
HETATM   21  C   UNL     1      39.605 -14.219  -0.716  1.00  0.00     0.062 A 
HETATM   22 CL   UNL     1      40.071 -15.024   0.741  1.00  0.00    -0.082 Cl
HETATM   23  C   UNL     1      39.097 -15.075  -1.710  1.00  0.00     0.026 A 
HETATM   24  C   UNL     1      38.783 -14.600  -2.980  1.00  0.00     0.002 A 
HETATM   25  C   UNL     1      38.988 -13.261  -3.278  1.00  0.00     0.002 A 
HETATM   26  C   UNL     1      39.485 -12.399  -2.297  1.00  0.00     0.033 A 
ENDBRANCH   5  20
TORSDOF 5
ENDMDL
MODEL 7
REMARK VINA RESULT:      -6.9      2.857      5.235
REMARK  5 active torsions:
REMARK  status: ('A' for Active; 'I' for Inactive)
REMARK    1  A    between atoms: C_3  and  N_4 
REMARK       I    between atoms: N_4  and  C_5 
REMARK       I    between atoms: C_5  and  N_6 
REMARK    2  A    between atoms: N_6  and  C_7 
REMARK    3  A    between atoms: C_7  and  C_8 
REMARK    4  A    between atoms: C_8  and  C_9 
REMARK    5  A    between atoms: N_16  and  C_17 
ROOT
HETATM    1  C   UNL     1      42.597 -11.186   2.926  1.00  0.00     0.054 C 
HETATM    2  C   UNL     1      42.504 -12.543   3.521  1.00  0.00     0.003 A 
HETATM    3  C   UNL     1      41.700 -13.013   4.590  1.00  0.00     0.159 A 
HETATM    4  N   UNL     1      41.949 -14.296   4.861  1.00  0.00    -0.149 NA
HETATM    5  N   UNL     1      42.836 -14.709   3.904  1.00  0.00    -0.241 N 
HETATM    6  C   UNL     1      43.246 -13.640   3.145  1.00  0.00     0.129 A 
ENDROOT
BRANCH   3   7
HETATM    7  N   UNL     1      40.805 -12.220   5.269  1.00  0.00    -0.291 N 
HETATM    8  C   UNL     1      40.986 -11.323   6.267  1.00  0.00     0.321 C 
HETATM    9  N   UNL     1      42.238 -11.128   6.756  1.00  0.00    -0.342 N 
HETATM   10  O   UNL     1      40.003 -10.710   6.685  1.00  0.00    -0.247 OA
HETATM   11  H   UNL     1      42.998 -11.545   6.227  1.00  0.00     0.164 HD
HETATM   12  H   UNL     1      39.839 -12.273   4.985  1.00  0.00     0.172 HD
BRANCH   9  13
HETATM   13  C   UNL     1      42.471 -10.033   7.668  1.00  0.00     0.134 C 
BRANCH  13  14
HETATM   14  C   UNL     1      43.893  -9.999   8.200  1.00  0.00    -0.021 A 
HETATM   15  C   UNL     1      44.471  -8.600   8.403  1.00  0.00     0.012 A 
HETATM   16  C   UNL     1      44.089  -9.422   9.595  1.00  0.00     0.012 A 
BRANCH  14  17
HETATM   17  C   UNL     1      44.810 -11.115   7.637  1.00  0.00    -0.004 A 
HETATM   18  C   UNL     1      45.438 -11.079   6.261  1.00  0.00     0.006 A 
HETATM   19  C   UNL     1      46.302 -10.945   7.475  1.00  0.00     0.006 A 
ENDBRANCH  14  17
ENDBRANCH  13  14
ENDBRANCH   9  13
ENDBRANCH   3   7
BRANCH   5  20
HETATM   20  C   UNL     1      43.250 -16.076   3.848  1.00  0.00     0.079 A 
HETATM   21  C   UNL     1      43.930 -16.758   4.870  1.00  0.00     0.062 A 
HETATM   22 CL   UNL     1      44.563 -16.050   6.315  1.00  0.00    -0.082 Cl
HETATM   23  C   UNL     1      44.237 -18.123   4.716  1.00  0.00     0.026 A 
HETATM   24  C   UNL     1      43.899 -18.811   3.554  1.00  0.00     0.002 A 
HETATM   25  C   UNL     1      43.260 -18.138   2.523  1.00  0.00     0.002 A 
HETATM   26  C   UNL     1      42.943 -16.785   2.668  1.00  0.00     0.033 A 
ENDBRANCH   5  20
TORSDOF 5
ENDMDL
MODEL 8
REMARK VINA RESULT:      -6.9      2.614      3.590
REMARK  5 active torsions:
REMARK  status: ('A' for Active; 'I' for Inactive)
REMARK    1  A    between atoms: C_3  and  N_4 
REMARK       I    between atoms: N_4  and  C_5 
REMARK       I    between atoms: C_5  and  N_6 
REMARK    2  A    between atoms: N_6  and  C_7 
REMARK    3  A    between atoms: C_7  and  C_8 
REMARK    4  A    between atoms: C_8  and  C_9 
REMARK    5  A    between atoms: N_16  and  C_17 
ROOT
HETATM    1  C   UNL     1      42.234 -11.582   4.319  1.00  0.00     0.054 C 
HETATM    2  C   UNL     1      41.993 -13.017   4.025  1.00  0.00     0.003 A 
HETATM    3  C   UNL     1      40.802 -13.676   3.627  1.00  0.00     0.159 A 
HETATM    4  N   UNL     1      40.986 -14.993   3.514  1.00  0.00    -0.149 NA
HETATM    5  N   UNL     1      42.323 -15.197   3.728  1.00  0.00    -0.241 N 
HETATM    6  C   UNL     1      42.923 -14.027   4.125  1.00  0.00     0.129 A 
ENDROOT
BRANCH   3   7
HETATM    7  N   UNL     1      39.609 -13.023   3.420  1.00  0.00    -0.291 N 
HETATM    8  C   UNL     1      39.020 -12.580   2.285  1.00  0.00     0.321 C 
HETATM    9  N   UNL     1      39.663 -12.749   1.101  1.00  0.00    -0.342 N 
HETATM   10  O   UNL     1      37.913 -12.046   2.373  1.00  0.00    -0.247 OA
HETATM   11  H   UNL     1      40.478 -13.356   1.114  1.00  0.00     0.164 HD
HETATM   12  H   UNL     1      39.036 -12.849   4.231  1.00  0.00     0.172 HD
BRANCH   9  13
HETATM   13  C   UNL     1      38.956 -12.471  -0.126  1.00  0.00     0.134 C 
BRANCH  13  14
HETATM   14  C   UNL     1      39.552 -13.185  -1.327  1.00  0.00    -0.021 A 
HETATM   15  C   UNL     1      39.365 -14.700  -1.333  1.00  0.00     0.012 A 
HETATM   16  C   UNL     1      38.573 -13.854  -2.281  1.00  0.00     0.012 A 
BRANCH  14  17
HETATM   17  C   UNL     1      40.899 -12.594  -1.815  1.00  0.00    -0.004 A 
HETATM   18  C   UNL     1      41.053 -11.767  -3.074  1.00  0.00     0.006 A 
HETATM   19  C   UNL     1      41.224 -11.121  -1.735  1.00  0.00     0.006 A 
ENDBRANCH  14  17
ENDBRANCH  13  14
ENDBRANCH   9  13
ENDBRANCH   3   7
BRANCH   5  20
HETATM   20  C   UNL     1      42.882 -16.505   3.591  1.00  0.00     0.079 A 
HETATM   21  C   UNL     1      43.690 -17.144   4.546  1.00  0.00     0.062 A 
HETATM   22 CL   UNL     1      44.320 -16.425   5.986  1.00  0.00    -0.082 Cl
HETATM   23  C   UNL     1      44.137 -18.459   4.316  1.00  0.00     0.026 A 
HETATM   24  C   UNL     1      43.813 -19.136   3.144  1.00  0.00     0.002 A 
HETATM   25  C   UNL     1      43.046 -18.501   2.178  1.00  0.00     0.002 A 
HETATM   26  C   UNL     1      42.590 -17.199   2.398  1.00  0.00     0.033 A 
ENDBRANCH   5  20
TORSDOF 5
ENDMDL
MODEL 9
REMARK VINA RESULT:      -6.9      3.608      6.348
REMARK  5 active torsions:
REMARK  status: ('A' for Active; 'I' for Inactive)
REMARK    1  A    between atoms: C_3  and  N_4 
REMARK       I    between atoms: N_4  and  C_5 
REMARK       I    between atoms: C_5  and  N_6 
REMARK    2  A    between atoms: N_6  and  C_7 
REMARK    3  A    between atoms: C_7  and  C_8 
REMARK    4  A    between atoms: C_8  and  C_9 
REMARK    5  A    between atoms: N_16  and  C_17 
ROOT
HETATM    1  C   UNL     1      42.052 -10.134   3.934  1.00  0.00     0.054 C 
HETATM    2  C   UNL     1      42.128 -11.403   4.700  1.00  0.00     0.003 A 
HETATM    3  C   UNL     1      41.610 -11.725   5.980  1.00  0.00     0.159 A 
HETATM    4  N   UNL     1      41.940 -12.966   6.344  1.00  0.00    -0.149 NA
HETATM    5  N   UNL     1      42.582 -13.507   5.263  1.00  0.00    -0.241 N 
HETATM    6  C   UNL     1      42.781 -12.548   4.300  1.00  0.00     0.129 A 
ENDROOT
BRANCH   3   7
HETATM    7  N   UNL     1      40.886 -10.841   6.747  1.00  0.00    -0.291 N 
HETATM    8  C   UNL     1      41.263 -10.017   7.753  1.00  0.00     0.321 C 
HETATM    9  N   UNL     1      42.561 -10.017   8.151  1.00  0.00    -0.342 N 
HETATM   10  O   UNL     1      40.409  -9.290   8.261  1.00  0.00    -0.247 OA
HETATM   11  H   UNL     1      43.216 -10.515   7.554  1.00  0.00     0.164 HD
HETATM   12  H   UNL     1      39.906 -10.748   6.535  1.00  0.00     0.172 HD
BRANCH   9  13
HETATM   13  C   UNL     1      43.012  -9.000   9.072  1.00  0.00     0.134 C 
BRANCH  13  14
HETATM   14  C   UNL     1      44.019  -9.522  10.083  1.00  0.00    -0.021 A 
HETATM   15  C   UNL     1      43.762  -9.094  11.526  1.00  0.00     0.012 A 
HETATM   16  C   UNL     1      43.501 -10.511  11.118  1.00  0.00     0.012 A 
BRANCH  14  17
HETATM   17  C   UNL     1      45.478  -9.567   9.562  1.00  0.00    -0.004 A 
HETATM   18  C   UNL     1      45.948 -10.472   8.444  1.00  0.00     0.006 A 
HETATM   19  C   UNL     1      45.889  -8.993   8.227  1.00  0.00     0.006 A 
ENDBRANCH  14  17
ENDBRANCH  13  14
ENDBRANCH   9  13
ENDBRANCH   3   7
BRANCH   5  20
HETATM   20  C   UNL     1      42.997 -14.875   5.283  1.00  0.00     0.079 A 
HETATM   21  C   UNL     1      42.540 -15.872   4.405  1.00  0.00     0.062 A 
HETATM   22 CL   UNL     1      41.265 -15.701   3.251  1.00  0.00    -0.082 Cl
HETATM   23  C   UNL     1      43.066 -17.175   4.494  1.00  0.00     0.026 A 
HETATM   24  C   UNL     1      44.019 -17.504   5.454  1.00  0.00     0.002 A 
HETATM   25  C   UNL     1      44.450 -16.536   6.350  1.00  0.00     0.002 A 
HETATM   26  C   UNL     1      43.940 -15.238   6.267  1.00  0.00     0.033 A 
ENDBRANCH   5  20
TORSDOF 5
ENDMDL
MODEL 10
REMARK VINA RESULT:      -6.9      1.946      2.411
REMARK  5 active torsions:
REMARK  status: ('A' for Active; 'I' for Inactive)
REMARK    1  A    between atoms: C_3  and  N_4 
REMARK       I    between atoms: N_4  and  C_5 
REMARK       I    between atoms: C_5  and  N_6 
REMARK    2  A    between atoms: N_6  and  C_7 
REMARK    3  A    between atoms: C_7  and  C_8 
REMARK    4  A    between atoms: C_8  and  C_9 
REMARK    5  A    between atoms: N_16  and  C_17 
ROOT
HETATM    1  C   UNL     1      43.246 -15.770   8.370  1.00  0.00     0.054 C 
HETATM    2  C   UNL     1      43.322 -16.152   6.938  1.00  0.00     0.003 A 
HETATM    3  C   UNL     1      43.363 -15.333   5.780  1.00  0.00     0.159 A 
HETATM    4  N   UNL     1      43.375 -16.065   4.664  1.00  0.00    -0.149 NA
HETATM    5  N   UNL     1      43.455 -17.367   5.080  1.00  0.00    -0.241 N 
HETATM    6  C   UNL     1      43.334 -17.437   6.446  1.00  0.00     0.129 A 
ENDROOT
BRANCH   3   7
HETATM    7  N   UNL     1      43.357 -13.958   5.825  1.00  0.00    -0.291 N 
HETATM    8  C   UNL     1      43.124 -13.036   4.863  1.00  0.00     0.321 C 
HETATM    9  N   UNL     1      42.864 -13.456   3.598  1.00  0.00    -0.342 N 
HETATM   10  O   UNL     1      43.147 -11.846   5.178  1.00  0.00    -0.247 OA
HETATM   11  H   UNL     1      42.690 -14.451   3.480  1.00  0.00     0.164 HD
HETATM   12  H   UNL     1      43.529 -13.529   6.721  1.00  0.00     0.172 HD
BRANCH   9  13
HETATM   13  C   UNL     1      42.412 -12.496   2.619  1.00  0.00     0.134 C 
BRANCH  13  14
HETATM   14  C   UNL     1      41.180 -12.960   1.861  1.00  0.00    -0.021 A 
HETATM   15  C   UNL     1      40.015 -11.973   1.859  1.00  0.00     0.012 A 
HETATM   16  C   UNL     1      40.812 -12.178   0.608  1.00  0.00     0.012 A 
BRANCH  14  17
HETATM   17  C   UNL     1      40.880 -14.474   2.000  1.00  0.00    -0.004 A 
HETATM   18  C   UNL     1      40.119 -15.284   0.973  1.00  0.00     0.006 A 
HETATM   19  C   UNL     1      41.581 -15.527   1.176  1.00  0.00     0.006 A 
ENDBRANCH  14  17
ENDBRANCH  13  14
ENDBRANCH   9  13
ENDBRANCH   3   7
BRANCH   5  20
HETATM   20  C   UNL     1      43.579 -18.421   4.122  1.00  0.00     0.079 A 
HETATM   21  C   UNL     1      43.768 -19.778   4.432  1.00  0.00     0.062 A 
HETATM   22 CL   UNL     1      44.072 -20.426   6.006  1.00  0.00    -0.082 Cl
HETATM   23  C   UNL     1      43.822 -20.731   3.397  1.00  0.00     0.026 A 
HETATM   24  C   UNL     1      43.713 -20.352   2.062  1.00  0.00     0.002 A 
HETATM   25  C   UNL     1      43.562 -19.010   1.743  1.00  0.00     0.002 A 
HETATM   26  C   UNL     1      43.500 -18.057   2.762  1.00  0.00     0.033 A 
ENDBRANCH   5  20
TORSDOF 5
ENDMDL
