MODEL 1
REMARK VINA RESULT:      -9.1      0.000      0.000
REMARK  7 active torsions:
REMARK  status: ('A' for Active; 'I' for Inactive)
REMARK    1  A    between atoms: C_2  and  C_3 
REMARK    2  A    between atoms: C_6  and  C_7 
REMARK       I    between atoms: C_7  and  N_8 
REMARK    3  A    between atoms: N_8  and  C_9 
REMARK    4  A    between atoms: C_9  and  C_10 
REMARK    5  A    between atoms: N_19  and  C_20 
REMARK    6  A    between atoms: C_20  and  C_21 
REMARK    7  A    between atoms: C_21  and  C_22 
ROOT
HETATM    1  C   UNL     1      41.264 -11.626   4.135  1.00  0.00     0.249 A 
HETATM    2  C   UNL     1      42.593 -11.842   3.389  1.00  0.00     0.266 A 
HETATM    3  O   UNL     1      43.169 -11.054   2.656  1.00  0.00    -0.270 OA
HETATM    4  N   UNL     1      43.026 -13.136   3.661  1.00  0.00    -0.310 N 
HETATM    5  C   UNL     1      42.132 -13.799   4.433  1.00  0.00     0.129 A 
HETATM    6  C   UNL     1      41.112 -12.993   4.721  1.00  0.00     0.101 A 
HETATM    7  N   UNL     1      42.224 -15.086   4.883  1.00  0.00    -0.284 N 
HETATM    8  C   UNL     1      41.238 -15.607   5.723  1.00  0.00     0.331 A 
HETATM    9  O   UNL     1      41.275 -16.729   6.222  1.00  0.00    -0.246 OA
HETATM   10  N   UNL     1      40.184 -14.764   6.000  1.00  0.00    -0.275 N 
HETATM   11  C   UNL     1      40.035 -13.474   5.567  1.00  0.00     0.262 A 
HETATM   12  O   UNL     1      39.092 -12.762   5.882  1.00  0.00    -0.267 OA
HETATM   13  H   UNL     1      43.861 -13.521   3.243  1.00  0.00     0.170 HD
HETATM   14  H   UNL     1      39.463 -15.134   6.599  1.00  0.00     0.173 HD
ENDROOT
BRANCH   1  15
HETATM   15  N   UNL     1      40.191 -11.247   3.193  1.00  0.00    -0.327 N 
HETATM   16  C   UNL     1      39.894 -11.967   2.058  1.00  0.00     0.253 C 
HETATM   17  O   UNL     1      40.454 -13.014   1.757  1.00  0.00    -0.268 OA
HETATM   18  H   UNL     1      39.907 -10.274   3.209  1.00  0.00     0.164 HD
BRANCH  16  19
HETATM   19  C   UNL     1      38.869 -11.375   1.160  1.00  0.00     0.032 A 
HETATM   20  C   UNL     1      39.210 -11.113  -0.166  1.00  0.00     0.017 A 
HETATM   21  C   UNL     1      38.267 -10.558  -1.038  1.00  0.00     0.009 A 
HETATM   22  C   UNL     1      36.953 -10.278  -0.619  1.00  0.00    -0.051 A 
HETATM   23  C   UNL     1      36.636 -10.545   0.726  1.00  0.00     0.009 A 
HETATM   24  C   UNL     1      37.576 -11.095   1.606  1.00  0.00     0.017 A 
BRANCH  22  25
HETATM   25  C   UNL     1      35.922  -9.665  -1.586  1.00  0.00    -0.024 C 
HETATM   26  C   UNL     1      35.647 -10.577  -2.804  1.00  0.00     0.019 C 
HETATM   27  C   UNL     1      36.475  -8.319  -2.093  1.00  0.00     0.019 C 
HETATM   28  C   UNL     1      34.551  -9.409  -0.916  1.00  0.00     0.019 C 
ENDBRANCH  22  25
ENDBRANCH  16  19
ENDBRANCH   1  15
BRANCH   1  29
HETATM   29  C   UNL     1      41.563 -10.568   5.203  1.00  0.00     0.426 C 
HETATM   30  F   UNL     1      40.426 -10.137   5.803  1.00  0.00    -0.167 F 
HETATM   31  F   UNL     1      42.346 -11.057   6.194  1.00  0.00    -0.167 F 
HETATM   32  F   UNL     1      42.196  -9.484   4.700  1.00  0.00    -0.167 F 
ENDBRANCH   1  29
BRANCH   7  33
HETATM   33  C   UNL     1      43.363 -15.935   4.535  1.00  0.00     0.140 C 
BRANCH  33  34
HETATM   34  C   UNL     1      43.175 -16.627   3.181  1.00  0.00     0.059 C 
BRANCH  34  35
HETATM   35  C   UNL     1      43.423 -18.112   3.264  1.00  0.00    -0.057 A 
HETATM   36  C   UNL     1      43.143 -18.945   2.172  1.00  0.00     0.007 A 
HETATM   37  C   UNL     1      43.357 -20.322   2.259  1.00  0.00     0.001 A 
HETATM   38  C   UNL     1      43.858 -20.876   3.434  1.00  0.00     0.000 A 
HETATM   39  C   UNL     1      44.144 -20.057   4.523  1.00  0.00     0.001 A 
HETATM   40  C   UNL     1      43.925 -18.681   4.441  1.00  0.00     0.007 A 
ENDBRANCH  34  35
ENDBRANCH  33  34
ENDBRANCH   7  33
TORSDOF 7
ENDMDL
MODEL 2
REMARK VINA RESULT:      -8.9      6.960     10.802
REMARK  7 active torsions:
REMARK  status: ('A' for Active; 'I' for Inactive)
REMARK    1  A    between atoms: C_2  and  C_3 
REMARK    2  A    between atoms: C_6  and  C_7 
REMARK       I    between atoms: C_7  and  N_8 
REMARK    3  A    between atoms: N_8  and  C_9 
REMARK    4  A    between atoms: C_9  and  C_10 
REMARK    5  A    between atoms: N_19  and  C_20 
REMARK    6  A    between atoms: C_20  and  C_21 
REMARK    7  A    between atoms: C_21  and  C_22 
ROOT
HETATM    1  C   UNL     1      43.314  -9.799   9.612  1.00  0.00     0.249 A 
HETATM    2  C   UNL     1      43.963 -10.422  10.861  1.00  0.00     0.266 A 
HETATM    3  O   UNL     1      45.013 -11.042  10.921  1.00  0.00    -0.270 OA
HETATM    4  N   UNL     1      43.115 -10.193  11.939  1.00  0.00    -0.310 N 
HETATM    5  C   UNL     1      41.985  -9.557  11.545  1.00  0.00     0.129 A 
HETATM    6  C   UNL     1      42.043  -9.320  10.236  1.00  0.00     0.101 A 
HETATM    7  N   UNL     1      40.930  -9.184  12.331  1.00  0.00    -0.284 N 
HETATM    8  C   UNL     1      39.859  -8.481  11.778  1.00  0.00     0.331 A 
HETATM    9  O   UNL     1      38.904  -8.055  12.423  1.00  0.00    -0.246 OA
HETATM   10  N   UNL     1      39.930  -8.257  10.421  1.00  0.00    -0.275 N 
HETATM   11  C   UNL     1      40.952  -8.618   9.586  1.00  0.00     0.262 A 
HETATM   12  O   UNL     1      40.974  -8.352   8.392  1.00  0.00    -0.267 OA
HETATM   13  H   UNL     1      43.312 -10.549  12.863  1.00  0.00     0.170 HD
HETATM   14  H   UNL     1      39.156  -7.757  10.011  1.00  0.00     0.173 HD
ENDROOT
BRANCH   1  15
HETATM   15  N   UNL     1      43.126 -10.817   8.557  1.00  0.00    -0.327 N 
HETATM   16  C   UNL     1      44.169 -11.395   7.872  1.00  0.00     0.253 C 
HETATM   17  O   UNL     1      45.347 -11.160   8.111  1.00  0.00    -0.268 OA
HETATM   18  H   UNL     1      42.216 -10.832   8.111  1.00  0.00     0.164 HD
BRANCH  16  19
HETATM   19  C   UNL     1      43.793 -12.306   6.760  1.00  0.00     0.032 A 
HETATM   20  C   UNL     1      43.597 -13.659   7.038  1.00  0.00     0.017 A 
HETATM   21  C   UNL     1      43.240 -14.542   6.013  1.00  0.00     0.009 A 
HETATM   22  C   UNL     1      43.040 -14.096   4.693  1.00  0.00    -0.051 A 
HETATM   23  C   UNL     1      43.251 -12.727   4.438  1.00  0.00     0.009 A 
HETATM   24  C   UNL     1      43.614 -11.839   5.457  1.00  0.00     0.017 A 
BRANCH  22  25
HETATM   25  C   UNL     1      42.649 -15.077   3.571  1.00  0.00    -0.024 C 
HETATM   26  C   UNL     1      43.248 -16.485   3.789  1.00  0.00     0.019 C 
HETATM   27  C   UNL     1      43.175 -14.518   2.235  1.00  0.00     0.019 C 
HETATM   28  C   UNL     1      41.118 -15.268   3.452  1.00  0.00     0.019 C 
ENDBRANCH  22  25
ENDBRANCH  16  19
ENDBRANCH   1  15
BRANCH   1  29
HETATM   29  C   UNL     1      44.234  -8.641   9.209  1.00  0.00     0.426 C 
HETATM   30  F   UNL     1      44.115  -8.352   7.890  1.00  0.00    -0.167 F 
HETATM   31  F   UNL     1      43.928  -7.499   9.870  1.00  0.00    -0.167 F 
HETATM   32  F   UNL     1      45.538  -8.901   9.455  1.00  0.00    -0.167 F 
ENDBRANCH   1  29
BRANCH   7  33
HETATM   33  C   UNL     1      40.910  -9.471  13.766  1.00  0.00     0.140 C 
BRANCH  33  34
HETATM   34  C   UNL     1      41.826  -8.530  14.555  1.00  0.00     0.059 C 
BRANCH  34  35
HETATM   35  C   UNL     1      41.048  -7.616  15.469  1.00  0.00    -0.057 A 
HETATM   36  C   UNL     1      40.418  -6.469  14.965  1.00  0.00     0.007 A 
HETATM   37  C   UNL     1      39.713  -5.617  15.817  1.00  0.00     0.001 A 
HETATM   38  C   UNL     1      39.626  -5.906  17.176  1.00  0.00     0.000 A 
HETATM   39  C   UNL     1      40.244  -7.045  17.686  1.00  0.00     0.001 A 
HETATM   40  C   UNL     1      40.955  -7.896  16.838  1.00  0.00     0.007 A 
ENDBRANCH  34  35
ENDBRANCH  33  34
ENDBRANCH   7  33
TORSDOF 7
ENDMDL
MODEL 3
REMARK VINA RESULT:      -8.7      6.829     10.392
REMARK  7 active torsions:
REMARK  status: ('A' for Active; 'I' for Inactive)
REMARK    1  A    between atoms: C_2  and  C_3 
REMARK    2  A    between atoms: C_6  and  C_7 
REMARK       I    between atoms: C_7  and  N_8 
REMARK    3  A    between atoms: N_8  and  C_9 
REMARK    4  A    between atoms: C_9  and  C_10 
REMARK    5  A    between atoms: N_19  and  C_20 
REMARK    6  A    between atoms: C_20  and  C_21 
REMARK    7  A    between atoms: C_21  and  C_22 
ROOT
HETATM    1  C   UNL     1      42.130  -8.068   8.786  1.00  0.00     0.249 A 
HETATM    2  C   UNL     1      41.140  -9.214   8.509  1.00  0.00     0.266 A 
HETATM    3  O   UNL     1      39.934  -9.216   8.703  1.00  0.00    -0.270 OA
HETATM    4  N   UNL     1      41.867 -10.296   8.025  1.00  0.00    -0.310 N 
HETATM    5  C   UNL     1      43.194 -10.023   8.005  1.00  0.00     0.129 A 
HETATM    6  C   UNL     1      43.398  -8.779   8.435  1.00  0.00     0.101 A 
HETATM    7  N   UNL     1      44.203 -10.854   7.602  1.00  0.00    -0.284 N 
HETATM    8  C   UNL     1      45.522 -10.399   7.588  1.00  0.00     0.331 A 
HETATM    9  O   UNL     1      46.477 -11.056   7.183  1.00  0.00    -0.246 OA
HETATM   10  N   UNL     1      45.715  -9.115   8.048  1.00  0.00    -0.275 N 
HETATM   11  C   UNL     1      44.747  -8.246   8.474  1.00  0.00     0.262 A 
HETATM   12  O   UNL     1      44.979  -7.101   8.834  1.00  0.00    -0.267 OA
HETATM   13  H   UNL     1      41.434 -11.183   7.813  1.00  0.00     0.170 HD
HETATM   14  H   UNL     1      46.666  -8.780   8.050  1.00  0.00     0.173 HD
ENDROOT
BRANCH   1  15
HETATM   15  N   UNL     1      42.048  -7.635  10.196  1.00  0.00    -0.327 N 
HETATM   16  C   UNL     1      42.214  -8.493  11.260  1.00  0.00     0.253 C 
HETATM   17  O   UNL     1      42.497  -9.678  11.135  1.00  0.00    -0.268 OA
HETATM   18  H   UNL     1      41.534  -6.779  10.370  1.00  0.00     0.164 HD
BRANCH  16  19
HETATM   19  C   UNL     1      41.976  -7.914  12.607  1.00  0.00     0.032 A 
HETATM   20  C   UNL     1      40.663  -7.664  13.007  1.00  0.00     0.017 A 
HETATM   21  C   UNL     1      40.405  -7.121  14.271  1.00  0.00     0.009 A 
HETATM   22  C   UNL     1      41.444  -6.841  15.178  1.00  0.00    -0.051 A 
HETATM   23  C   UNL     1      42.760  -7.096  14.747  1.00  0.00     0.009 A 
HETATM   24  C   UNL     1      43.027  -7.634  13.482  1.00  0.00     0.017 A 
BRANCH  22  25
HETATM   25  C   UNL     1      41.150  -6.242  16.567  1.00  0.00    -0.024 C 
HETATM   26  C   UNL     1      41.330  -4.707  16.592  1.00  0.00     0.019 C 
HETATM   27  C   UNL     1      42.125  -6.871  17.581  1.00  0.00     0.019 C 
HETATM   28  C   UNL     1      39.704  -6.518  17.042  1.00  0.00     0.019 C 
ENDBRANCH  22  25
ENDBRANCH  16  19
ENDBRANCH   1  15
BRANCH   1  29
HETATM   29  C   UNL     1      41.781  -6.973   7.772  1.00  0.00     0.426 C 
HETATM   30  F   UNL     1      40.452  -6.703   7.776  1.00  0.00    -0.167 F 
HETATM   31  F   UNL     1      42.401  -5.803   8.059  1.00  0.00    -0.167 F 
HETATM   32  F   UNL     1      42.127  -7.304   6.507  1.00  0.00    -0.167 F 
ENDBRANCH   1  29
BRANCH   7  33
HETATM   33  C   UNL     1      43.930 -12.215   7.141  1.00  0.00     0.140 C 
BRANCH  33  34
HETATM   34  C   UNL     1      43.519 -12.254   5.665  1.00  0.00     0.059 C 
BRANCH  34  35
HETATM   35  C   UNL     1      43.259 -13.660   5.186  1.00  0.00    -0.057 A 
HETATM   36  C   UNL     1      43.435 -14.752   6.048  1.00  0.00     0.007 A 
HETATM   37  C   UNL     1      43.210 -16.054   5.596  1.00  0.00     0.001 A 
HETATM   38  C   UNL     1      42.803 -16.274   4.282  1.00  0.00     0.000 A 
HETATM   39  C   UNL     1      42.622 -15.196   3.419  1.00  0.00     0.001 A 
HETATM   40  C   UNL     1      42.851 -13.894   3.867  1.00  0.00     0.007 A 
ENDBRANCH  34  35
ENDBRANCH  33  34
ENDBRANCH   7  33
TORSDOF 7
ENDMDL
MODEL 4
REMARK VINA RESULT:      -8.7      4.251      8.511
REMARK  7 active torsions:
REMARK  status: ('A' for Active; 'I' for Inactive)
REMARK    1  A    between atoms: C_2  and  C_3 
REMARK    2  A    between atoms: C_6  and  C_7 
REMARK       I    between atoms: C_7  and  N_8 
REMARK    3  A    between atoms: N_8  and  C_9 
REMARK    4  A    between atoms: C_9  and  C_10 
REMARK    5  A    between atoms: N_19  and  C_20 
REMARK    6  A    between atoms: C_20  and  C_21 
REMARK    7  A    between atoms: C_21  and  C_22 
ROOT
HETATM    1  C   UNL     1      42.873 -12.253   5.997  1.00  0.00     0.249 A 
HETATM    2  C   UNL     1      43.771 -11.682   4.884  1.00  0.00     0.266 A 
HETATM    3  O   UNL     1      44.914 -11.267   4.993  1.00  0.00    -0.270 OA
HETATM    4  N   UNL     1      43.035 -11.678   3.705  1.00  0.00    -0.310 N 
HETATM    5  C   UNL     1      41.770 -12.115   3.916  1.00  0.00     0.129 A 
HETATM    6  C   UNL     1      41.623 -12.443   5.199  1.00  0.00     0.101 A 
HETATM    7  N   UNL     1      40.770 -12.232   2.991  1.00  0.00    -0.284 N 
HETATM    8  C   UNL     1      39.531 -12.757   3.361  1.00  0.00     0.331 A 
HETATM    9  O   UNL     1      38.602 -12.954   2.582  1.00  0.00    -0.246 OA
HETATM   10  N   UNL     1      39.393 -13.078   4.693  1.00  0.00    -0.275 N 
HETATM   11  C   UNL     1      40.353 -12.970   5.663  1.00  0.00     0.262 A 
HETATM   12  O   UNL     1      40.180 -13.312   6.824  1.00  0.00    -0.267 OA
HETATM   13  H   UNL     1      43.404 -11.305   2.842  1.00  0.00     0.170 HD
HETATM   14  H   UNL     1      38.498 -13.450   4.972  1.00  0.00     0.173 HD
ENDROOT
BRANCH   1  15
HETATM   15  N   UNL     1      42.741 -11.289   7.109  1.00  0.00    -0.327 N 
HETATM   16  C   UNL     1      43.756 -11.018   7.998  1.00  0.00     0.253 C 
HETATM   17  O   UNL     1      44.875 -11.509   7.915  1.00  0.00    -0.268 OA
HETATM   18  H   UNL     1      41.795 -11.087   7.414  1.00  0.00     0.164 HD
BRANCH  16  19
HETATM   19  C   UNL     1      43.410 -10.117   9.127  1.00  0.00     0.032 A 
HETATM   20  C   UNL     1      42.281  -9.306   9.017  1.00  0.00     0.017 A 
HETATM   21  C   UNL     1      41.926  -8.448  10.064  1.00  0.00     0.009 A 
HETATM   22  C   UNL     1      42.670  -8.398  11.258  1.00  0.00    -0.051 A 
HETATM   23  C   UNL     1      43.808  -9.222  11.341  1.00  0.00     0.009 A 
HETATM   24  C   UNL     1      44.173 -10.078  10.295  1.00  0.00     0.017 A 
BRANCH  22  25
HETATM   25  C   UNL     1      42.273  -7.449  12.405  1.00  0.00    -0.024 C 
HETATM   26  C   UNL     1      40.876  -7.779  12.981  1.00  0.00     0.019 C 
HETATM   27  C   UNL     1      42.252  -6.009  11.855  1.00  0.00     0.019 C 
HETATM   28  C   UNL     1      43.259  -7.504  13.595  1.00  0.00     0.019 C 
ENDBRANCH  22  25
ENDBRANCH  16  19
ENDBRANCH   1  15
BRANCH   1  29
HETATM   29  C   UNL     1      43.514 -13.586   6.396  1.00  0.00     0.426 C 
HETATM   30  F   UNL     1      43.079 -14.000   7.612  1.00  0.00    -0.167 F 
HETATM   31  F   UNL     1      43.199 -14.578   5.529  1.00  0.00    -0.167 F 
HETATM   32  F   UNL     1      44.864 -13.521   6.445  1.00  0.00    -0.167 F 
ENDBRANCH   1  29
BRANCH   7  33
HETATM   33  C   UNL     1      40.978 -11.854   1.593  1.00  0.00     0.140 C 
BRANCH  33  34
HETATM   34  C   UNL     1      41.492 -13.025   0.748  1.00  0.00     0.059 C 
BRANCH  34  35
HETATM   35  C   UNL     1      40.670 -13.226  -0.500  1.00  0.00    -0.057 A 
HETATM   36  C   UNL     1      39.832 -14.342  -0.632  1.00  0.00     0.007 A 
HETATM   37  C   UNL     1      39.086 -14.533  -1.797  1.00  0.00     0.001 A 
HETATM   38  C   UNL     1      39.166 -13.609  -2.835  1.00  0.00     0.000 A 
HETATM   39  C   UNL     1      39.993 -12.494  -2.713  1.00  0.00     0.001 A 
HETATM   40  C   UNL     1      40.744 -12.304  -1.552  1.00  0.00     0.007 A 
ENDBRANCH  34  35
ENDBRANCH  33  34
ENDBRANCH   7  33
TORSDOF 7
ENDMDL
MODEL 5
REMARK VINA RESULT:      -8.6      2.008      2.904
REMARK  7 active torsions:
REMARK  status: ('A' for Active; 'I' for Inactive)
REMARK    1  A    between atoms: C_2  and  C_3 
REMARK    2  A    between atoms: C_6  and  C_7 
REMARK       I    between atoms: C_7  and  N_8 
REMARK    3  A    between atoms: N_8  and  C_9 
REMARK    4  A    between atoms: C_9  and  C_10 
REMARK    5  A    between atoms: N_19  and  C_20 
REMARK    6  A    between atoms: C_20  and  C_21 
REMARK    7  A    between atoms: C_21  and  C_22 
ROOT
HETATM    1  C   UNL     1      40.546 -11.637   1.256  1.00  0.00     0.249 A 
HETATM    2  C   UNL     1      41.136 -12.384   0.047  1.00  0.00     0.266 A 
HETATM    3  O   UNL     1      41.363 -11.934  -1.065  1.00  0.00    -0.270 OA
HETATM    4  N   UNL     1      41.340 -13.708   0.424  1.00  0.00    -0.310 N 
HETATM    5  C   UNL     1      40.910 -13.927   1.690  1.00  0.00     0.129 A 
HETATM    6  C   UNL     1      40.442 -12.790   2.202  1.00  0.00     0.101 A 
HETATM    7  N   UNL     1      40.943 -15.106   2.381  1.00  0.00    -0.284 N 
HETATM    8  C   UNL     1      40.511 -15.153   3.707  1.00  0.00     0.331 A 
HETATM    9  O   UNL     1      40.565 -16.154   4.418  1.00  0.00    -0.246 OA
HETATM   10  N   UNL     1      40.019 -13.972   4.216  1.00  0.00    -0.275 N 
HETATM   11  C   UNL     1      39.951 -12.768   3.568  1.00  0.00     0.262 A 
HETATM   12  O   UNL     1      39.538 -11.743   4.091  1.00  0.00    -0.267 OA
HETATM   13  H   UNL     1      41.683 -14.403  -0.223  1.00  0.00     0.170 HD
HETATM   14  H   UNL     1      39.696 -13.998   5.171  1.00  0.00     0.173 HD
ENDROOT
BRANCH   1  15
HETATM   15  N   UNL     1      39.249 -11.021   0.908  1.00  0.00    -0.327 N 
HETATM   16  C   UNL     1      38.319 -11.627   0.095  1.00  0.00     0.253 C 
HETATM   17  O   UNL     1      38.459 -12.752  -0.369  1.00  0.00    -0.268 OA
HETATM   18  H   UNL     1      39.197 -10.012   0.995  1.00  0.00     0.164 HD
BRANCH  16  19
HETATM   19  C   UNL     1      37.125 -10.813  -0.251  1.00  0.00     0.032 A 
HETATM   20  C   UNL     1      36.846 -10.568  -1.595  1.00  0.00     0.017 A 
HETATM   21  C   UNL     1      35.728  -9.807  -1.954  1.00  0.00     0.009 A 
HETATM   22  C   UNL     1      34.845  -9.295  -0.985  1.00  0.00    -0.051 A 
HETATM   23  C   UNL     1      35.153  -9.551   0.365  1.00  0.00     0.009 A 
HETATM   24  C   UNL     1      36.273 -10.307   0.732  1.00  0.00     0.017 A 
BRANCH  22  25
HETATM   25  C   UNL     1      33.617  -8.456  -1.389  1.00  0.00    -0.024 C 
HETATM   26  C   UNL     1      32.935  -7.792  -0.171  1.00  0.00     0.019 C 
HETATM   27  C   UNL     1      32.600  -9.388  -2.076  1.00  0.00     0.019 C 
HETATM   28  C   UNL     1      33.972  -7.312  -2.368  1.00  0.00     0.019 C 
ENDBRANCH  22  25
ENDBRANCH  16  19
ENDBRANCH   1  15
BRANCH   1  29
HETATM   29  C   UNL     1      41.623 -10.633   1.682  1.00  0.00     0.426 C 
HETATM   30  F   UNL     1      42.086  -9.927   0.622  1.00  0.00    -0.167 F 
HETATM   31  F   UNL     1      41.143  -9.720   2.559  1.00  0.00    -0.167 F 
HETATM   32  F   UNL     1      42.685 -11.228   2.273  1.00  0.00    -0.167 F 
ENDBRANCH   1  29
BRANCH   7  33
HETATM   33  C   UNL     1      41.463 -16.331   1.772  1.00  0.00     0.140 C 
BRANCH  33  34
HETATM   34  C   UNL     1      42.978 -16.468   1.954  1.00  0.00     0.059 C 
BRANCH  34  35
HETATM   35  C   UNL     1      43.346 -17.704   2.735  1.00  0.00    -0.057 A 
HETATM   36  C   UNL     1      43.747 -17.609   4.075  1.00  0.00     0.007 A 
HETATM   37  C   UNL     1      44.104 -18.754   4.790  1.00  0.00     0.001 A 
HETATM   38  C   UNL     1      44.056 -20.002   4.175  1.00  0.00     0.000 A 
HETATM   39  C   UNL     1      43.656 -20.108   2.845  1.00  0.00     0.001 A 
HETATM   40  C   UNL     1      43.304 -18.965   2.126  1.00  0.00     0.007 A 
ENDBRANCH  34  35
ENDBRANCH  33  34
ENDBRANCH   7  33
TORSDOF 7
ENDMDL
MODEL 6
REMARK VINA RESULT:      -8.6      4.168      7.962
REMARK  7 active torsions:
REMARK  status: ('A' for Active; 'I' for Inactive)
REMARK    1  A    between atoms: C_2  and  C_3 
REMARK    2  A    between atoms: C_6  and  C_7 
REMARK       I    between atoms: C_7  and  N_8 
REMARK    3  A    between atoms: N_8  and  C_9 
REMARK    4  A    between atoms: C_9  and  C_10 
REMARK    5  A    between atoms: N_19  and  C_20 
REMARK    6  A    between atoms: C_20  and  C_21 
REMARK    7  A    between atoms: C_21  and  C_22 
ROOT
HETATM    1  C   UNL     1      42.854 -12.283   6.038  1.00  0.00     0.249 A 
HETATM    2  C   UNL     1      43.789 -11.755   4.935  1.00  0.00     0.266 A 
HETATM    3  O   UNL     1      44.941 -11.370   5.060  1.00  0.00    -0.270 OA
HETATM    4  N   UNL     1      43.074 -11.748   3.742  1.00  0.00    -0.310 N 
HETATM    5  C   UNL     1      41.794 -12.146   3.936  1.00  0.00     0.129 A 
HETATM    6  C   UNL     1      41.614 -12.450   5.220  1.00  0.00     0.101 A 
HETATM    7  N   UNL     1      40.809 -12.249   2.994  1.00  0.00    -0.284 N 
HETATM    8  C   UNL     1      39.548 -12.733   3.348  1.00  0.00     0.331 A 
HETATM    9  O   UNL     1      38.629 -12.915   2.554  1.00  0.00    -0.246 OA
HETATM   10  N   UNL     1      39.377 -13.030   4.682  1.00  0.00    -0.275 N 
HETATM   11  C   UNL     1      40.322 -12.934   5.668  1.00  0.00     0.262 A 
HETATM   12  O   UNL     1      40.117 -13.253   6.831  1.00  0.00    -0.267 OA
HETATM   13  H   UNL     1      43.470 -11.399   2.881  1.00  0.00     0.170 HD
HETATM   14  H   UNL     1      38.467 -13.372   4.949  1.00  0.00     0.173 HD
ENDROOT
BRANCH   1  15
HETATM   15  N   UNL     1      42.729 -11.299   7.134  1.00  0.00    -0.327 N 
HETATM   16  C   UNL     1      43.750 -11.012   8.011  1.00  0.00     0.253 C 
HETATM   17  O   UNL     1      44.868 -11.504   7.930  1.00  0.00    -0.268 OA
HETATM   18  H   UNL     1      41.785 -11.092   7.441  1.00  0.00     0.164 HD
BRANCH  16  19
HETATM   19  C   UNL     1      43.411 -10.091   9.126  1.00  0.00     0.032 A 
HETATM   20  C   UNL     1      42.241  -9.337   9.041  1.00  0.00     0.017 A 
HETATM   21  C   UNL     1      41.892  -8.461  10.076  1.00  0.00     0.009 A 
HETATM   22  C   UNL     1      42.684  -8.337  11.233  1.00  0.00    -0.051 A 
HETATM   23  C   UNL     1      43.863  -9.104  11.291  1.00  0.00     0.009 A 
HETATM   24  C   UNL     1      44.221  -9.978  10.257  1.00  0.00     0.017 A 
BRANCH  22  25
HETATM   25  C   UNL     1      42.292  -7.369  12.366  1.00  0.00    -0.024 C 
HETATM   26  C   UNL     1      42.308  -5.893  11.907  1.00  0.00     0.019 C 
HETATM   27  C   UNL     1      43.302  -7.539  13.517  1.00  0.00     0.019 C 
HETATM   28  C   UNL     1      40.872  -7.638  12.918  1.00  0.00     0.019 C 
ENDBRANCH  22  25
ENDBRANCH  16  19
ENDBRANCH   1  15
BRANCH   1  29
HETATM   29  C   UNL     1      43.450 -13.628   6.469  1.00  0.00     0.426 C 
HETATM   30  F   UNL     1      44.803 -13.571   6.533  1.00  0.00    -0.167 F 
HETATM   31  F   UNL     1      43.033 -13.993   7.705  1.00  0.00    -0.167 F 
HETATM   32  F   UNL     1      43.123 -14.636   5.629  1.00  0.00    -0.167 F 
ENDBRANCH   1  29
BRANCH   7  33
HETATM   33  C   UNL     1      41.053 -11.898   1.595  1.00  0.00     0.140 C 
BRANCH  33  34
HETATM   34  C   UNL     1      40.995 -13.121   0.674  1.00  0.00     0.059 C 
BRANCH  34  35
HETATM   35  C   UNL     1      41.584 -14.348   1.324  1.00  0.00    -0.057 A 
HETATM   36  C   UNL     1      42.957 -14.422   1.598  1.00  0.00     0.007 A 
HETATM   37  C   UNL     1      43.501 -15.566   2.184  1.00  0.00     0.001 A 
HETATM   38  C   UNL     1      42.678 -16.642   2.507  1.00  0.00     0.000 A 
HETATM   39  C   UNL     1      41.312 -16.577   2.243  1.00  0.00     0.001 A 
HETATM   40  C   UNL     1      40.766 -15.437   1.652  1.00  0.00     0.007 A 
ENDBRANCH  34  35
ENDBRANCH  33  34
ENDBRANCH   7  33
TORSDOF 7
ENDMDL
MODEL 7
REMARK VINA RESULT:      -8.4      3.097      3.875
REMARK  7 active torsions:
REMARK  status: ('A' for Active; 'I' for Inactive)
REMARK    1  A    between atoms: C_2  and  C_3 
REMARK    2  A    between atoms: C_6  and  C_7 
REMARK       I    between atoms: C_7  and  N_8 
REMARK    3  A    between atoms: N_8  and  C_9 
REMARK    4  A    between atoms: C_9  and  C_10 
REMARK    5  A    between atoms: N_19  and  C_20 
REMARK    6  A    between atoms: C_20  and  C_21 
REMARK    7  A    between atoms: C_21  and  C_22 
ROOT
HETATM    1  C   UNL     1      40.317 -10.586   3.507  1.00  0.00     0.249 A 
HETATM    2  C   UNL     1      41.645 -10.689   4.278  1.00  0.00     0.266 A 
HETATM    3  O   UNL     1      42.328  -9.772   4.706  1.00  0.00    -0.270 OA
HETATM    4  N   UNL     1      41.974 -12.037   4.379  1.00  0.00    -0.310 N 
HETATM    5  C   UNL     1      41.070 -12.811   3.731  1.00  0.00     0.129 A 
HETATM    6  C   UNL     1      40.118 -12.038   3.211  1.00  0.00     0.101 A 
HETATM    7  N   UNL     1      41.081 -14.173   3.613  1.00  0.00    -0.284 N 
HETATM    8  C   UNL     1      40.039 -14.827   2.956  1.00  0.00     0.331 A 
HETATM    9  O   UNL     1      39.939 -16.048   2.860  1.00  0.00    -0.246 OA
HETATM   10  N   UNL     1      39.070 -14.012   2.414  1.00  0.00    -0.275 N 
HETATM   11  C   UNL     1      39.015 -12.647   2.490  1.00  0.00     0.262 A 
HETATM   12  O   UNL     1      38.103 -11.981   2.021  1.00  0.00    -0.267 OA
HETATM   13  H   UNL     1      42.832 -12.350   4.811  1.00  0.00     0.170 HD
HETATM   14  H   UNL     1      38.317 -14.476   1.930  1.00  0.00     0.173 HD
ENDROOT
BRANCH   1  15
HETATM   15  N   UNL     1      40.474  -9.739   2.306  1.00  0.00    -0.327 N 
HETATM   16  C   UNL     1      41.412  -9.982   1.328  1.00  0.00     0.253 C 
HETATM   17  O   UNL     1      42.162 -10.950   1.337  1.00  0.00    -0.268 OA
HETATM   18  H   UNL     1      40.120  -8.792   2.380  1.00  0.00     0.164 HD
BRANCH  16  19
HETATM   19  C   UNL     1      41.514  -8.960   0.255  1.00  0.00     0.032 A 
HETATM   20  C   UNL     1      42.235  -9.268  -0.898  1.00  0.00     0.017 A 
HETATM   21  C   UNL     1      42.348  -8.328  -1.929  1.00  0.00     0.009 A 
HETATM   22  C   UNL     1      41.722  -7.070  -1.849  1.00  0.00    -0.051 A 
HETATM   23  C   UNL     1      41.006  -6.781  -0.672  1.00  0.00     0.009 A 
HETATM   24  C   UNL     1      40.893  -7.715   0.366  1.00  0.00     0.017 A 
BRANCH  22  25
HETATM   25  C   UNL     1      41.854  -6.040  -2.988  1.00  0.00    -0.024 C 
HETATM   26  C   UNL     1      42.671  -6.588  -4.181  1.00  0.00     0.019 C 
HETATM   27  C   UNL     1      42.568  -4.793  -2.432  1.00  0.00     0.019 C 
HETATM   28  C   UNL     1      40.485  -5.605  -3.562  1.00  0.00     0.019 C 
ENDBRANCH  22  25
ENDBRANCH  16  19
ENDBRANCH   1  15
BRANCH   1  29
HETATM   29  C   UNL     1      39.297 -10.055   4.519  1.00  0.00     0.426 C 
HETATM   30  F   UNL     1      39.701  -8.878   5.057  1.00  0.00    -0.167 F 
HETATM   31  F   UNL     1      38.095  -9.811   3.944  1.00  0.00    -0.167 F 
HETATM   32  F   UNL     1      39.078 -10.917   5.539  1.00  0.00    -0.167 F 
ENDBRANCH   1  29
BRANCH   7  33
HETATM   33  C   UNL     1      42.153 -14.979   4.198  1.00  0.00     0.140 C 
BRANCH  33  34
HETATM   34  C   UNL     1      43.137 -15.487   3.138  1.00  0.00     0.059 C 
BRANCH  34  35
HETATM   35  C   UNL     1      43.393 -16.967   3.268  1.00  0.00    -0.057 A 
HETATM   36  C   UNL     1      43.943 -17.497   4.443  1.00  0.00     0.007 A 
HETATM   37  C   UNL     1      44.196 -18.866   4.553  1.00  0.00     0.001 A 
HETATM   38  C   UNL     1      43.894 -19.717   3.492  1.00  0.00     0.000 A 
HETATM   39  C   UNL     1      43.344 -19.202   2.321  1.00  0.00     0.001 A 
HETATM   40  C   UNL     1      43.096 -17.833   2.207  1.00  0.00     0.007 A 
ENDBRANCH  34  35
ENDBRANCH  33  34
ENDBRANCH   7  33
TORSDOF 7
ENDMDL
MODEL 8
REMARK VINA RESULT:      -8.4      2.494      3.637
REMARK  7 active torsions:
REMARK  status: ('A' for Active; 'I' for Inactive)
REMARK    1  A    between atoms: C_2  and  C_3 
REMARK    2  A    between atoms: C_6  and  C_7 
REMARK       I    between atoms: C_7  and  N_8 
REMARK    3  A    between atoms: N_8  and  C_9 
REMARK    4  A    between atoms: C_9  and  C_10 
REMARK    5  A    between atoms: N_19  and  C_20 
REMARK    6  A    between atoms: C_20  and  C_21 
REMARK    7  A    between atoms: C_21  and  C_22 
ROOT
HETATM    1  C   UNL     1      40.213 -11.411   0.226  1.00  0.00     0.249 A 
HETATM    2  C   UNL     1      41.047 -12.215  -0.787  1.00  0.00     0.266 A 
HETATM    3  O   UNL     1      41.392 -11.869  -1.906  1.00  0.00    -0.270 OA
HETATM    4  N   UNL     1      41.322 -13.455  -0.221  1.00  0.00    -0.310 N 
HETATM    5  C   UNL     1      40.732 -13.580   0.993  1.00  0.00     0.129 A 
HETATM    6  C   UNL     1      40.084 -12.455   1.288  1.00  0.00     0.101 A 
HETATM    7  N   UNL     1      40.778 -14.662   1.827  1.00  0.00    -0.284 N 
HETATM    8  C   UNL     1      40.160 -14.610   3.077  1.00  0.00     0.331 A 
HETATM    9  O   UNL     1      40.206 -15.512   3.910  1.00  0.00    -0.246 OA
HETATM   10  N   UNL     1      39.483 -13.444   3.360  1.00  0.00    -0.275 N 
HETATM   11  C   UNL     1      39.394 -12.337   2.560  1.00  0.00     0.262 A 
HETATM   12  O   UNL     1      38.810 -11.314   2.887  1.00  0.00    -0.267 OA
HETATM   13  H   UNL     1      41.824 -14.175  -0.720  1.00  0.00     0.170 HD
HETATM   14  H   UNL     1      39.026 -13.401   4.258  1.00  0.00     0.173 HD
ENDROOT
BRANCH   1  15
HETATM   15  N   UNL     1      38.927 -10.992  -0.371  1.00  0.00    -0.327 N 
HETATM   16  C   UNL     1      38.127 -11.834  -1.108  1.00  0.00     0.253 C 
HETATM   17  O   UNL     1      38.380 -13.019  -1.290  1.00  0.00    -0.268 OA
HETATM   18  H   UNL     1      38.809  -9.995  -0.520  1.00  0.00     0.164 HD
BRANCH  16  19
HETATM   19  C   UNL     1      36.933 -11.214  -1.738  1.00  0.00     0.032 A 
HETATM   20  C   UNL     1      36.454 -11.745  -2.935  1.00  0.00     0.017 A 
HETATM   21  C   UNL     1      35.329 -11.185  -3.552  1.00  0.00     0.009 A 
HETATM   22  C   UNL     1      34.637 -10.102  -2.978  1.00  0.00    -0.051 A 
HETATM   23  C   UNL     1      35.146  -9.580  -1.773  1.00  0.00     0.009 A 
HETATM   24  C   UNL     1      36.274 -10.132  -1.153  1.00  0.00     0.017 A 
BRANCH  22  25
HETATM   25  C   UNL     1      33.402  -9.491  -3.666  1.00  0.00    -0.024 C 
HETATM   26  C   UNL     1      33.224  -7.993  -3.327  1.00  0.00     0.019 C 
HETATM   27  C   UNL     1      32.153 -10.256  -3.186  1.00  0.00     0.019 C 
HETATM   28  C   UNL     1      33.470  -9.583  -5.208  1.00  0.00     0.019 C 
ENDBRANCH  22  25
ENDBRANCH  16  19
ENDBRANCH   1  15
BRANCH   1  29
HETATM   29  C   UNL     1      41.110 -10.248   0.662  1.00  0.00     0.426 C 
HETATM   30  F   UNL     1      40.401  -9.296   1.318  1.00  0.00    -0.167 F 
HETATM   31  F   UNL     1      42.077 -10.650   1.520  1.00  0.00    -0.167 F 
HETATM   32  F   UNL     1      41.731  -9.649  -0.380  1.00  0.00    -0.167 F 
ENDBRANCH   1  29
BRANCH   7  33
HETATM   33  C   UNL     1      41.500 -15.879   1.456  1.00  0.00     0.140 C 
BRANCH  33  34
HETATM   34  C   UNL     1      42.975 -15.824   1.869  1.00  0.00     0.059 C 
BRANCH  34  35
HETATM   35  C   UNL     1      43.351 -16.965   2.781  1.00  0.00    -0.057 A 
HETATM   36  C   UNL     1      43.575 -16.743   4.147  1.00  0.00     0.007 A 
HETATM   37  C   UNL     1      43.940 -17.799   4.985  1.00  0.00     0.001 A 
HETATM   38  C   UNL     1      44.077 -19.084   4.467  1.00  0.00     0.000 A 
HETATM   39  C   UNL     1      43.853 -19.316   3.112  1.00  0.00     0.001 A 
HETATM   40  C   UNL     1      43.494 -18.261   2.271  1.00  0.00     0.007 A 
ENDBRANCH  34  35
ENDBRANCH  33  34
ENDBRANCH   7  33
TORSDOF 7
ENDMDL
MODEL 9
REMARK VINA RESULT:      -8.3     16.977     20.500
REMARK  7 active torsions:
REMARK  status: ('A' for Active; 'I' for Inactive)
REMARK    1  A    between atoms: C_2  and  C_3 
REMARK    2  A    between atoms: C_6  and  C_7 
REMARK       I    between atoms: C_7  and  N_8 
REMARK    3  A    between atoms: N_8  and  C_9 
REMARK    4  A    between atoms: C_9  and  C_10 
REMARK    5  A    between atoms: N_19  and  C_20 
REMARK    6  A    between atoms: C_20  and  C_21 
REMARK    7  A    between atoms: C_21  and  C_22 
ROOT
HETATM    1  C   UNL     1      47.733 -29.697   0.889  1.00  0.00     0.249 A 
HETATM    2  C   UNL     1      46.996 -28.463   1.438  1.00  0.00     0.266 A 
HETATM    3  O   UNL     1      47.490 -27.462   1.933  1.00  0.00    -0.270 OA
HETATM    4  N   UNL     1      45.630 -28.693   1.313  1.00  0.00    -0.310 N 
HETATM    5  C   UNL     1      45.387 -29.928   0.810  1.00  0.00     0.129 A 
HETATM    6  C   UNL     1      46.543 -30.541   0.563  1.00  0.00     0.101 A 
HETATM    7  N   UNL     1      44.167 -30.495   0.564  1.00  0.00    -0.284 N 
HETATM    8  C   UNL     1      44.088 -31.763  -0.012  1.00  0.00     0.331 A 
HETATM    9  O   UNL     1      43.037 -32.318  -0.323  1.00  0.00    -0.246 OA
HETATM   10  N   UNL     1      45.293 -32.387  -0.249  1.00  0.00    -0.275 N 
HETATM   11  C   UNL     1      46.539 -31.874  -0.012  1.00  0.00     0.262 A 
HETATM   12  O   UNL     1      47.575 -32.465  -0.282  1.00  0.00    -0.267 OA
HETATM   13  H   UNL     1      44.941 -28.036   1.648  1.00  0.00     0.170 HD
HETATM   14  H   UNL     1      45.245 -33.308  -0.658  1.00  0.00     0.173 HD
ENDROOT
BRANCH   1  15
HETATM   15  N   UNL     1      48.623 -30.276   1.918  1.00  0.00    -0.327 N 
HETATM   16  C   UNL     1      48.213 -30.548   3.203  1.00  0.00     0.253 C 
HETATM   17  O   UNL     1      47.064 -30.388   3.594  1.00  0.00    -0.268 OA
HETATM   18  H   UNL     1      49.618 -30.150   1.767  1.00  0.00     0.164 HD
BRANCH  16  19
HETATM   19  C   UNL     1      49.270 -31.011   4.139  1.00  0.00     0.032 A 
HETATM   20  C   UNL     1      49.003 -32.100   4.967  1.00  0.00     0.017 A 
HETATM   21  C   UNL     1      49.978 -32.562   5.858  1.00  0.00     0.009 A 
HETATM   22  C   UNL     1      51.253 -31.969   5.926  1.00  0.00    -0.051 A 
HETATM   23  C   UNL     1      51.495 -30.866   5.085  1.00  0.00     0.009 A 
HETATM   24  C   UNL     1      50.522 -30.395   4.195  1.00  0.00     0.017 A 
BRANCH  22  25
HETATM   25  C   UNL     1      52.320 -32.482   6.912  1.00  0.00    -0.024 C 
HETATM   26  C   UNL     1      53.293 -31.366   7.356  1.00  0.00     0.019 C 
HETATM   27  C   UNL     1      53.128 -33.593   6.214  1.00  0.00     0.019 C 
HETATM   28  C   UNL     1      51.705 -33.065   8.207  1.00  0.00     0.019 C 
ENDBRANCH  22  25
ENDBRANCH  16  19
ENDBRANCH   1  15
BRANCH   1  29
HETATM   29  C   UNL     1      48.462 -29.212  -0.369  1.00  0.00     0.426 C 
HETATM   30  F   UNL     1      49.774 -29.550  -0.341  1.00  0.00    -0.167 F 
HETATM   31  F   UNL     1      47.956 -29.772  -1.494  1.00  0.00    -0.167 F 
HETATM   32  F   UNL     1      48.388 -27.871  -0.529  1.00  0.00    -0.167 F 
ENDBRANCH   1  29
BRANCH   7  33
HETATM   33  C   UNL     1      42.924 -29.782   0.857  1.00  0.00     0.140 C 
BRANCH  33  34
HETATM   34  C   UNL     1      42.725 -29.564   2.361  1.00  0.00     0.059 C 
BRANCH  34  35
HETATM   35  C   UNL     1      41.677 -30.485   2.933  1.00  0.00    -0.057 A 
HETATM   36  C   UNL     1      41.422 -30.508   4.312  1.00  0.00     0.007 A 
HETATM   37  C   UNL     1      40.464 -31.375   4.840  1.00  0.00     0.001 A 
HETATM   38  C   UNL     1      39.749 -32.221   3.996  1.00  0.00     0.000 A 
HETATM   39  C   UNL     1      39.992 -32.204   2.625  1.00  0.00     0.001 A 
HETATM   40  C   UNL     1      40.954 -31.342   2.094  1.00  0.00     0.007 A 
ENDBRANCH  34  35
ENDBRANCH  33  34
ENDBRANCH   7  33
TORSDOF 7
ENDMDL
MODEL 10
REMARK VINA RESULT:      -8.3      3.229      4.824
REMARK  7 active torsions:
REMARK  status: ('A' for Active; 'I' for Inactive)
REMARK    1  A    between atoms: C_2  and  C_3 
REMARK    2  A    between atoms: C_6  and  C_7 
REMARK       I    between atoms: C_7  and  N_8 
REMARK    3  A    between atoms: N_8  and  C_9 
REMARK    4  A    between atoms: C_9  and  C_10 
REMARK    5  A    between atoms: N_19  and  C_20 
REMARK    6  A    between atoms: C_20  and  C_21 
REMARK    7  A    between atoms: C_21  and  C_22 
ROOT
HETATM    1  C   UNL     1      39.884 -12.395  -1.218  1.00  0.00     0.249 A 
HETATM    2  C   UNL     1      39.436 -13.866  -1.146  1.00  0.00     0.266 A 
HETATM    3  O   UNL     1      38.677 -14.448  -1.905  1.00  0.00    -0.270 OA
HETATM    4  N   UNL     1      40.021 -14.433  -0.019  1.00  0.00    -0.310 N 
HETATM    5  C   UNL     1      40.739 -13.516   0.673  1.00  0.00     0.129 A 
HETATM    6  C   UNL     1      40.685 -12.344   0.043  1.00  0.00     0.101 A 
HETATM    7  N   UNL     1      41.436 -13.716   1.832  1.00  0.00    -0.284 N 
HETATM    8  C   UNL     1      42.176 -12.673   2.393  1.00  0.00     0.331 A 
HETATM    9  O   UNL     1      42.878 -12.784   3.394  1.00  0.00    -0.246 OA
HETATM   10  N   UNL     1      42.098 -11.466   1.735  1.00  0.00    -0.275 N 
HETATM   11  C   UNL     1      41.408 -11.206   0.582  1.00  0.00     0.262 A 
HETATM   12  O   UNL     1      41.412 -10.119   0.024  1.00  0.00    -0.267 OA
HETATM   13  H   UNL     1      39.837 -15.386   0.259  1.00  0.00     0.170 HD
HETATM   14  H   UNL     1      42.623 -10.704   2.138  1.00  0.00     0.173 HD
ENDROOT
BRANCH   1  15
HETATM   15  N   UNL     1      38.715 -11.492  -1.230  1.00  0.00    -0.327 N 
HETATM   16  C   UNL     1      37.858 -11.351  -0.162  1.00  0.00     0.253 C 
HETATM   17  O   UNL     1      38.018 -11.919   0.911  1.00  0.00    -0.268 OA
HETATM   18  H   UNL     1      38.357 -11.238  -2.145  1.00  0.00     0.164 HD
BRANCH  16  19
HETATM   19  C   UNL     1      36.665 -10.496  -0.392  1.00  0.00     0.032 A 
HETATM   20  C   UNL     1      36.288 -10.209  -1.703  1.00  0.00     0.017 A 
HETATM   21  C   UNL     1      35.168  -9.408  -1.953  1.00  0.00     0.009 A 
HETATM   22  C   UNL     1      34.379  -8.898  -0.905  1.00  0.00    -0.051 A 
HETATM   23  C   UNL     1      34.786  -9.197   0.410  1.00  0.00     0.009 A 
HETATM   24  C   UNL     1      35.909  -9.992   0.668  1.00  0.00     0.017 A 
BRANCH  22  25
HETATM   25  C   UNL     1      33.149  -8.015  -1.190  1.00  0.00    -0.024 C 
HETATM   26  C   UNL     1      33.500  -6.510  -1.212  1.00  0.00     0.019 C 
HETATM   27  C   UNL     1      32.109  -8.263  -0.080  1.00  0.00     0.019 C 
HETATM   28  C   UNL     1      32.492  -8.329  -2.554  1.00  0.00     0.019 C 
ENDBRANCH  22  25
ENDBRANCH  16  19
ENDBRANCH   1  15
BRANCH   1  29
HETATM   29  C   UNL     1      40.765 -12.297  -2.469  1.00  0.00     0.426 C 
HETATM   30  F   UNL     1      40.961 -13.515  -3.032  1.00  0.00    -0.167 F 
HETATM   31  F   UNL     1      40.197 -11.529  -3.428  1.00  0.00    -0.167 F 
HETATM   32  F   UNL     1      41.982 -11.767  -2.208  1.00  0.00    -0.167 F 
ENDBRANCH   1  29
BRANCH   7  33
HETATM   33  C   UNL     1      41.461 -15.022   2.490  1.00  0.00     0.140 C 
BRANCH  33  34
HETATM   34  C   UNL     1      42.418 -15.999   1.798  1.00  0.00     0.059 C 
BRANCH  34  35
HETATM   35  C   UNL     1      43.068 -16.944   2.777  1.00  0.00    -0.057 A 
HETATM   36  C   UNL     1      43.465 -16.497   4.045  1.00  0.00     0.007 A 
HETATM   37  C   UNL     1      44.083 -17.370   4.943  1.00  0.00     0.001 A 
HETATM   38  C   UNL     1      44.302 -18.698   4.583  1.00  0.00     0.000 A 
HETATM   39  C   UNL     1      43.908 -19.153   3.327  1.00  0.00     0.001 A 
HETATM   40  C   UNL     1      43.296 -18.280   2.426  1.00  0.00     0.007 A 
ENDBRANCH  34  35
ENDBRANCH  33  34
ENDBRANCH   7  33
TORSDOF 7
ENDMDL
