MODEL 1
REMARK VINA RESULT:      -8.3      0.000      0.000
REMARK  3 active torsions:
REMARK  status: ('A' for Active; 'I' for Inactive)
REMARK    1  A    between atoms: C_8  and  C_9 
REMARK    2  A    between atoms: C_10  and  O_11 
REMARK    3  A    between atoms: C_24  and  N_25 
ROOT
HETATM    1  C   UNL     1      42.384 -11.524   2.469  1.00  0.00     0.073 C 
HETATM    2  C   UNL     1      43.134 -11.877   3.700  1.00  0.00     0.062 A 
HETATM    3  N   UNL     1      44.330 -11.317   3.948  1.00  0.00    -0.177 NA
HETATM    4  N   UNL     1      44.707 -11.843   5.131  1.00  0.00    -0.256 N 
HETATM    5  H   UNL     1      45.595 -11.565   5.530  1.00  0.00     0.191 HD
HETATM    6  C   UNL     1      43.785 -12.699   5.640  1.00  0.00     0.175 A 
HETATM    7  C   UNL     1      42.761 -12.770   4.731  1.00  0.00     0.034 A 
HETATM    8  C   UNL     1      41.572 -13.617   5.028  1.00  0.00     0.109 A 
HETATM    9  C   UNL     1      41.750 -14.368   6.350  1.00  0.00     0.081 A 
HETATM   10  C   UNL     1      40.679 -15.217   6.754  1.00  0.00     0.100 C 
HETATM   11  N   UNL     1      39.799 -15.883   7.115  1.00  0.00    -0.191 NA
HETATM   12  C   UNL     1      42.842 -14.202   7.148  1.00  0.00     0.140 A 
HETATM   13  O   UNL     1      43.898 -13.336   6.800  1.00  0.00    -0.279 OA
ENDROOT
BRANCH   8  14
HETATM   14  C   UNL     1      41.292 -14.494   3.801  1.00  0.00     0.000 A 
HETATM   15  C   UNL     1      40.175 -14.141   2.994  1.00  0.00     0.076 A 
HETATM   16  C   UNL     1      39.859 -14.883   1.857  1.00  0.00     0.038 A 
HETATM   17  C   UNL     1      40.615 -15.998   1.516  1.00  0.00     0.015 A 
HETATM   18  C   UNL     1      41.703 -16.398   2.294  1.00  0.00    -0.025 A 
HETATM   19  C   UNL     1      42.066 -15.659   3.452  1.00  0.00    -0.016 A 
HETATM   20  C   UNL     1      42.424 -17.541   1.908  1.00  0.00     0.012 A 
HETATM   21  C   UNL     1      43.184 -16.154   4.173  1.00  0.00     0.013 A 
HETATM   22  C   UNL     1      43.894 -17.294   3.781  1.00  0.00     0.001 A 
HETATM   23  C   UNL     1      43.514 -17.988   2.645  1.00  0.00     0.001 A 
BRANCH  15  24
HETATM   24  O   UNL     1      39.465 -13.029   3.373  1.00  0.00    -0.355 OA
HETATM   25  C   UNL     1      38.765 -12.324   2.352  1.00  0.00     0.210 C 
ENDBRANCH  15  24
ENDBRANCH   8  14
BRANCH  12  26
HETATM   26  N   UNL     1      43.053 -14.829   8.356  1.00  0.00    -0.282 NA
HETATM   27  H   UNL     1      43.406 -14.236   9.103  1.00  0.00     0.126 HD
HETATM   28  H   UNL     1      43.577 -15.694   8.250  1.00  0.00     0.126 HD
ENDBRANCH  12  26
TORSDOF 3
ENDMDL
MODEL 2
REMARK VINA RESULT:      -8.2      8.486     10.019
REMARK  3 active torsions:
REMARK  status: ('A' for Active; 'I' for Inactive)
REMARK    1  A    between atoms: C_8  and  C_9 
REMARK    2  A    between atoms: C_10  and  O_11 
REMARK    3  A    between atoms: C_24  and  N_25 
ROOT
HETATM    1  C   UNL     1      42.304  -5.665  13.504  1.00  0.00     0.073 C 
HETATM    2  C   UNL     1      41.791  -6.974  13.979  1.00  0.00     0.062 A 
HETATM    3  N   UNL     1      41.989  -7.357  15.251  1.00  0.00    -0.177 NA
HETATM    4  N   UNL     1      41.391  -8.563  15.334  1.00  0.00    -0.256 N 
HETATM    5  H   UNL     1      41.410  -9.059  16.217  1.00  0.00     0.191 HD
HETATM    6  C   UNL     1      40.814  -8.941  14.166  1.00  0.00     0.175 A 
HETATM    7  C   UNL     1      41.072  -7.952  13.253  1.00  0.00     0.034 A 
HETATM    8  C   UNL     1      40.531  -8.068  11.870  1.00  0.00     0.109 A 
HETATM    9  C   UNL     1      39.799  -9.398  11.678  1.00  0.00     0.081 A 
HETATM   10  C   UNL     1      39.230  -9.637  10.393  1.00  0.00     0.100 C 
HETATM   11  N   UNL     1      38.730  -9.830   9.363  1.00  0.00    -0.191 NA
HETATM   12  C   UNL     1      39.631 -10.298  12.688  1.00  0.00     0.140 A 
HETATM   13  O   UNL     1      40.142 -10.072  13.982  1.00  0.00    -0.279 OA
ENDROOT
BRANCH   8  14
HETATM   14  C   UNL     1      41.677  -7.795  10.886  1.00  0.00     0.000 A 
HETATM   15  C   UNL     1      41.560  -6.644  10.059  1.00  0.00     0.076 A 
HETATM   16  C   UNL     1      42.562  -6.323   9.145  1.00  0.00     0.038 A 
HETATM   17  C   UNL     1      43.674  -7.143   9.008  1.00  0.00     0.015 A 
HETATM   18  C   UNL     1      43.818  -8.299   9.779  1.00  0.00    -0.025 A 
HETATM   19  C   UNL     1      42.826  -8.653  10.732  1.00  0.00    -0.016 A 
HETATM   20  C   UNL     1      44.959  -9.097   9.590  1.00  0.00     0.012 A 
HETATM   21  C   UNL     1      43.068  -9.847  11.458  1.00  0.00     0.013 A 
HETATM   22  C   UNL     1      44.206 -10.637  11.261  1.00  0.00     0.001 A 
HETATM   23  C   UNL     1      45.155 -10.260  10.325  1.00  0.00     0.001 A 
BRANCH  15  24
HETATM   24  O   UNL     1      40.442  -5.866  10.237  1.00  0.00    -0.355 OA
HETATM   25  C   UNL     1      39.479  -5.861   9.189  1.00  0.00     0.210 C 
ENDBRANCH  15  24
ENDBRANCH   8  14
BRANCH  12  26
HETATM   26  N   UNL     1      38.966 -11.499  12.587  1.00  0.00    -0.282 NA
HETATM   27  H   UNL     1      38.457 -11.790  13.418  1.00  0.00     0.126 HD
HETATM   28  H   UNL     1      39.557 -12.233  12.202  1.00  0.00     0.126 HD
ENDBRANCH  12  26
TORSDOF 3
ENDMDL
MODEL 3
REMARK VINA RESULT:      -7.1     15.413     17.603
REMARK  3 active torsions:
REMARK  status: ('A' for Active; 'I' for Inactive)
REMARK    1  A    between atoms: C_8  and  C_9 
REMARK    2  A    between atoms: C_10  and  O_11 
REMARK    3  A    between atoms: C_24  and  N_25 
ROOT
HETATM    1  C   UNL     1      42.401 -31.252   1.265  1.00  0.00     0.073 C 
HETATM    2  C   UNL     1      43.459 -30.334   1.757  1.00  0.00     0.062 A 
HETATM    3  N   UNL     1      43.148 -29.336   2.602  1.00  0.00    -0.177 NA
HETATM    4  N   UNL     1      44.327 -28.728   2.847  1.00  0.00    -0.256 N 
HETATM    5  H   UNL     1      44.346 -27.929   3.470  1.00  0.00     0.191 HD
HETATM    6  C   UNL     1      45.364 -29.317   2.200  1.00  0.00     0.175 A 
HETATM    7  C   UNL     1      44.841 -30.347   1.461  1.00  0.00     0.034 A 
HETATM    8  C   UNL     1      45.751 -31.210   0.657  1.00  0.00     0.109 A 
HETATM    9  C   UNL     1      47.196 -30.714   0.744  1.00  0.00     0.081 A 
HETATM   10  C   UNL     1      48.173 -31.457   0.018  1.00  0.00     0.100 C 
HETATM   11  N   UNL     1      48.985 -32.072  -0.537  1.00  0.00    -0.191 NA
HETATM   12  C   UNL     1      47.565 -29.657   1.520  1.00  0.00     0.140 A 
HETATM   13  O   UNL     1      46.632 -28.930   2.286  1.00  0.00    -0.279 OA
ENDROOT
BRANCH   8  14
HETATM   14  C   UNL     1      45.173 -31.322  -0.760  1.00  0.00     0.000 A 
HETATM   15  C   UNL     1      44.719 -32.604  -1.175  1.00  0.00     0.076 A 
HETATM   16  C   UNL     1      44.174 -32.787  -2.445  1.00  0.00     0.038 A 
HETATM   17  C   UNL     1      44.097 -31.722  -3.333  1.00  0.00     0.015 A 
HETATM   18  C   UNL     1      44.556 -30.452  -2.980  1.00  0.00    -0.025 A 
HETATM   19  C   UNL     1      45.105 -30.222  -1.689  1.00  0.00    -0.016 A 
HETATM   20  C   UNL     1      44.464 -29.415  -3.923  1.00  0.00     0.012 A 
HETATM   21  C   UNL     1      45.545 -28.897  -1.434  1.00  0.00     0.013 A 
HETATM   22  C   UNL     1      45.450 -27.872  -2.382  1.00  0.00     0.001 A 
HETATM   23  C   UNL     1      44.908 -28.131  -3.628  1.00  0.00     0.001 A 
BRANCH  15  24
HETATM   24  O   UNL     1      44.815 -33.621  -0.257  1.00  0.00    -0.355 OA
HETATM   25  C   UNL     1      43.735 -34.548  -0.197  1.00  0.00     0.210 C 
ENDBRANCH  15  24
ENDBRANCH   8  14
BRANCH  12  26
HETATM   26  N   UNL     1      48.848 -29.176   1.659  1.00  0.00    -0.282 NA
HETATM   27  H   UNL     1      48.989 -28.516   2.420  1.00  0.00     0.126 HD
HETATM   28  H   UNL     1      49.233 -28.854   0.774  1.00  0.00     0.126 HD
ENDBRANCH  12  26
TORSDOF 3
ENDMDL
MODEL 4
REMARK VINA RESULT:      -7.1      2.370      4.032
REMARK  3 active torsions:
REMARK  status: ('A' for Active; 'I' for Inactive)
REMARK    1  A    between atoms: C_8  and  C_9 
REMARK    2  A    between atoms: C_10  and  O_11 
REMARK    3  A    between atoms: C_24  and  N_25 
ROOT
HETATM    1  C   UNL     1      44.056 -12.411   5.075  1.00  0.00     0.073 C 
HETATM    2  C   UNL     1      43.030 -11.763   4.220  1.00  0.00     0.062 A 
HETATM    3  N   UNL     1      42.944 -10.423   4.164  1.00  0.00    -0.177 NA
HETATM    4  N   UNL     1      41.937 -10.189   3.299  1.00  0.00    -0.256 N 
HETATM    5  H   UNL     1      41.681  -9.231   3.093  1.00  0.00     0.191 HD
HETATM    6  C   UNL     1      41.400 -11.331   2.799  1.00  0.00     0.175 A 
HETATM    7  C   UNL     1      42.063 -12.376   3.390  1.00  0.00     0.034 A 
HETATM    8  C   UNL     1      41.715 -13.774   3.013  1.00  0.00     0.109 A 
HETATM    9  C   UNL     1      40.547 -13.800   2.024  1.00  0.00     0.081 A 
HETATM   10  C   UNL     1      40.113 -15.083   1.579  1.00  0.00     0.100 C 
HETATM   11  N   UNL     1      39.772 -16.118   1.179  1.00  0.00    -0.191 NA
HETATM   12  C   UNL     1      39.977 -12.666   1.529  1.00  0.00     0.140 A 
HETATM   13  O   UNL     1      40.412 -11.382   1.913  1.00  0.00    -0.279 OA
ENDROOT
BRANCH   8  14
HETATM   14  C   UNL     1      41.507 -14.578   4.303  1.00  0.00     0.000 A 
HETATM   15  C   UNL     1      40.491 -14.127   5.191  1.00  0.00     0.076 A 
HETATM   16  C   UNL     1      40.235 -14.807   6.380  1.00  0.00     0.038 A 
HETATM   17  C   UNL     1      40.992 -15.919   6.728  1.00  0.00     0.015 A 
HETATM   18  C   UNL     1      42.018 -16.382   5.901  1.00  0.00    -0.025 A 
HETATM   19  C   UNL     1      42.300 -15.724   4.673  1.00  0.00    -0.016 A 
HETATM   20  C   UNL     1      42.758 -17.504   6.309  1.00  0.00     0.012 A 
HETATM   21  C   UNL     1      43.364 -16.272   3.911  1.00  0.00     0.013 A 
HETATM   22  C   UNL     1      44.097 -17.389   4.328  1.00  0.00     0.001 A 
HETATM   23  C   UNL     1      43.793 -18.007   5.528  1.00  0.00     0.001 A 
BRANCH  15  24
HETATM   24  O   UNL     1      39.770 -13.026   4.798  1.00  0.00    -0.355 OA
HETATM   25  C   UNL     1      39.372 -12.112   5.814  1.00  0.00     0.210 C 
ENDBRANCH  15  24
ENDBRANCH   8  14
BRANCH  12  26
HETATM   26  N   UNL     1      38.942 -12.621   0.622  1.00  0.00    -0.282 NA
HETATM   27  H   UNL     1      38.354 -11.792   0.668  1.00  0.00     0.126 HD
HETATM   28  H   UNL     1      38.409 -13.488   0.606  1.00  0.00     0.126 HD
ENDBRANCH  12  26
TORSDOF 3
ENDMDL
MODEL 5
REMARK VINA RESULT:      -7.0      2.940      4.130
REMARK  3 active torsions:
REMARK  status: ('A' for Active; 'I' for Inactive)
REMARK    1  A    between atoms: C_8  and  C_9 
REMARK    2  A    between atoms: C_10  and  O_11 
REMARK    3  A    between atoms: C_24  and  N_25 
ROOT
HETATM    1  C   UNL     1      44.479 -11.424   5.366  1.00  0.00     0.073 C 
HETATM    2  C   UNL     1      43.300 -11.001   6.162  1.00  0.00     0.062 A 
HETATM    3  N   UNL     1      43.437 -10.692   7.463  1.00  0.00    -0.177 NA
HETATM    4  N   UNL     1      42.195 -10.344   7.856  1.00  0.00    -0.256 N 
HETATM    5  H   UNL     1      42.046 -10.067   8.819  1.00  0.00     0.191 HD
HETATM    6  C   UNL     1      41.290 -10.408   6.848  1.00  0.00     0.175 A 
HETATM    7  C   UNL     1      41.959 -10.854   5.738  1.00  0.00     0.034 A 
HETATM    8  C   UNL     1      41.229 -10.998   4.447  1.00  0.00     0.109 A 
HETATM    9  C   UNL     1      39.743 -10.672   4.620  1.00  0.00     0.081 A 
HETATM   10  C   UNL     1      38.927 -10.770   3.455  1.00  0.00     0.100 C 
HETATM   11  N   UNL     1      38.256 -10.808   2.508  1.00  0.00    -0.191 NA
HETATM   12  C   UNL     1      39.216 -10.247   5.802  1.00  0.00     0.140 A 
HETATM   13  O   UNL     1      40.004 -10.096   6.961  1.00  0.00    -0.279 OA
ENDROOT
BRANCH   8  14
HETATM   14  C   UNL     1      41.540 -12.387   3.875  1.00  0.00     0.000 A 
HETATM   15  C   UNL     1      42.167 -12.436   2.600  1.00  0.00     0.076 A 
HETATM   16  C   UNL     1      42.490 -13.659   2.015  1.00  0.00     0.038 A 
HETATM   17  C   UNL     1      42.172 -14.849   2.659  1.00  0.00     0.015 A 
HETATM   18  C   UNL     1      41.531 -14.849   3.899  1.00  0.00    -0.025 A 
HETATM   19  C   UNL     1      41.199 -13.623   4.535  1.00  0.00    -0.016 A 
HETATM   20  C   UNL     1      41.223 -16.083   4.498  1.00  0.00     0.012 A 
HETATM   21  C   UNL     1      40.545 -13.737   5.789  1.00  0.00     0.013 A 
HETATM   22  C   UNL     1      40.242 -14.970   6.376  1.00  0.00     0.001 A 
HETATM   23  C   UNL     1      40.582 -16.145   5.730  1.00  0.00     0.001 A 
BRANCH  15  24
HETATM   24  O   UNL     1      42.463 -11.232   2.009  1.00  0.00    -0.355 OA
HETATM   25  C   UNL     1      41.650 -10.830   0.911  1.00  0.00     0.210 C 
ENDBRANCH  15  24
ENDBRANCH   8  14
BRANCH  12  26
HETATM   26  N   UNL     1      37.896  -9.918   6.017  1.00  0.00    -0.282 NA
HETATM   27  H   UNL     1      37.726  -9.250   6.765  1.00  0.00     0.126 HD
HETATM   28  H   UNL     1      37.301 -10.741   6.073  1.00  0.00     0.126 HD
ENDBRANCH  12  26
TORSDOF 3
ENDMDL
MODEL 6
REMARK VINA RESULT:      -6.9      2.554      5.230
REMARK  3 active torsions:
REMARK  status: ('A' for Active; 'I' for Inactive)
REMARK    1  A    between atoms: C_8  and  C_9 
REMARK    2  A    between atoms: C_10  and  O_11 
REMARK    3  A    between atoms: C_24  and  N_25 
ROOT
HETATM    1  C   UNL     1      43.154 -17.157   3.608  1.00  0.00     0.073 C 
HETATM    2  C   UNL     1      42.670 -16.094   2.692  1.00  0.00     0.062 A 
HETATM    3  N   UNL     1      43.057 -16.083   1.405  1.00  0.00    -0.177 NA
HETATM    4  N   UNL     1      42.429 -15.012   0.877  1.00  0.00    -0.256 N 
HETATM    5  H   UNL     1      42.571 -14.795  -0.102  1.00  0.00     0.191 HD
HETATM    6  C   UNL     1      41.654 -14.362   1.781  1.00  0.00     0.175 A 
HETATM    7  C   UNL     1      41.801 -15.015   2.978  1.00  0.00     0.034 A 
HETATM    8  C   UNL     1      41.039 -14.549   4.169  1.00  0.00     0.109 A 
HETATM    9  C   UNL     1      40.229 -13.291   3.843  1.00  0.00     0.081 A 
HETATM   10  C   UNL     1      39.449 -12.740   4.901  1.00  0.00     0.100 C 
HETATM   11  N   UNL     1      38.780 -12.300   5.742  1.00  0.00    -0.191 NA
HETATM   12  C   UNL     1      40.190 -12.745   2.596  1.00  0.00     0.140 A 
HETATM   13  O   UNL     1      40.914 -13.292   1.517  1.00  0.00    -0.279 OA
ENDROOT
BRANCH   8  14
HETATM   14  C   UNL     1      42.019 -14.419   5.342  1.00  0.00     0.000 A 
HETATM   15  C   UNL     1      41.901 -15.371   6.392  1.00  0.00     0.076 A 
HETATM   16  C   UNL     1      42.759 -15.326   7.490  1.00  0.00     0.038 A 
HETATM   17  C   UNL     1      43.722 -14.329   7.586  1.00  0.00     0.015 A 
HETATM   18  C   UNL     1      43.856 -13.357   6.592  1.00  0.00    -0.025 A 
HETATM   19  C   UNL     1      43.010 -13.378   5.451  1.00  0.00    -0.016 A 
HETATM   20  C   UNL     1      44.840 -12.366   6.748  1.00  0.00     0.012 A 
HETATM   21  C   UNL     1      43.227 -12.343   4.505  1.00  0.00     0.013 A 
HETATM   22  C   UNL     1      44.208 -11.359   4.670  1.00  0.00     0.001 A 
HETATM   23  C   UNL     1      45.017 -11.371   5.793  1.00  0.00     0.001 A 
BRANCH  15  24
HETATM   24  O   UNL     1      40.936 -16.337   6.246  1.00  0.00    -0.355 OA
HETATM   25  C   UNL     1      39.663 -16.079   6.831  1.00  0.00     0.210 C 
ENDBRANCH  15  24
ENDBRANCH   8  14
BRANCH  12  26
HETATM   26  N   UNL     1      39.467 -11.631   2.233  1.00  0.00    -0.282 NA
HETATM   27  H   UNL     1      38.513 -11.807   1.927  1.00  0.00     0.126 HD
HETATM   28  H   UNL     1      39.986 -11.028   1.598  1.00  0.00     0.126 HD
ENDBRANCH  12  26
TORSDOF 3
ENDMDL
MODEL 7
REMARK VINA RESULT:      -6.7      8.099     10.001
REMARK  3 active torsions:
REMARK  status: ('A' for Active; 'I' for Inactive)
REMARK    1  A    between atoms: C_8  and  C_9 
REMARK    2  A    between atoms: C_10  and  O_11 
REMARK    3  A    between atoms: C_24  and  N_25 
ROOT
HETATM    1  C   UNL     1      39.228 -10.049   9.526  1.00  0.00     0.073 C 
HETATM    2  C   UNL     1      39.427  -8.668   9.019  1.00  0.00     0.062 A 
HETATM    3  N   UNL     1      38.944  -8.313   7.816  1.00  0.00    -0.177 NA
HETATM    4  N   UNL     1      39.286  -7.014   7.689  1.00  0.00    -0.256 N 
HETATM    5  H   UNL     1      39.024  -6.519   6.845  1.00  0.00     0.191 HD
HETATM    6  C   UNL     1      39.951  -6.540   8.773  1.00  0.00     0.175 A 
HETATM    7  C   UNL     1      40.086  -7.587   9.648  1.00  0.00     0.034 A 
HETATM    8  C   UNL     1      40.754  -7.365  10.961  1.00  0.00     0.109 A 
HETATM    9  C   UNL     1      41.274  -5.930  11.076  1.00  0.00     0.081 A 
HETATM   10  C   UNL     1      41.936  -5.584  12.290  1.00  0.00     0.100 C 
HETATM   11  N   UNL     1      42.445  -5.276  13.287  1.00  0.00    -0.191 NA
HETATM   12  C   UNL     1      41.071  -4.995  10.107  1.00  0.00     0.140 A 
HETATM   13  O   UNL     1      40.381  -5.292   8.914  1.00  0.00    -0.279 OA
ENDROOT
BRANCH   8  14
HETATM   14  C   UNL     1      41.805  -8.467  11.154  1.00  0.00     0.000 A 
HETATM   15  C   UNL     1      41.577  -9.403  12.200  1.00  0.00     0.076 A 
HETATM   16  C   UNL     1      42.480 -10.438  12.434  1.00  0.00     0.038 A 
HETATM   17  C   UNL     1      43.632 -10.550  11.666  1.00  0.00     0.015 A 
HETATM   18  C   UNL     1      43.911  -9.637  10.647  1.00  0.00    -0.025 A 
HETATM   19  C   UNL     1      43.008  -8.577  10.367  1.00  0.00    -0.016 A 
HETATM   20  C   UNL     1      45.098  -9.792   9.910  1.00  0.00     0.012 A 
HETATM   21  C   UNL     1      43.389  -7.705   9.315  1.00  0.00     0.013 A 
HETATM   22  C   UNL     1      44.574  -7.867   8.588  1.00  0.00     0.001 A 
HETATM   23  C   UNL     1      45.430  -8.913   8.886  1.00  0.00     0.001 A 
BRANCH  15  24
HETATM   24  O   UNL     1      40.421  -9.250  12.926  1.00  0.00    -0.355 OA
HETATM   25  C   UNL     1      39.651 -10.421  13.177  1.00  0.00     0.210 C 
ENDBRANCH  15  24
ENDBRANCH   8  14
BRANCH  12  26
HETATM   26  N   UNL     1      41.492  -3.685  10.158  1.00  0.00    -0.282 NA
HETATM   27  H   UNL     1      40.753  -2.987  10.206  1.00  0.00     0.126 HD
HETATM   28  H   UNL     1      42.190  -3.480   9.447  1.00  0.00     0.126 HD
ENDBRANCH  12  26
TORSDOF 3
ENDMDL
MODEL 8
REMARK VINA RESULT:      -6.7      7.325      9.963
REMARK  3 active torsions:
REMARK  status: ('A' for Active; 'I' for Inactive)
REMARK    1  A    between atoms: C_8  and  C_9 
REMARK    2  A    between atoms: C_10  and  O_11 
REMARK    3  A    between atoms: C_24  and  N_25 
ROOT
HETATM    1  C   UNL     1      42.042  -5.274  10.066  1.00  0.00     0.073 C 
HETATM    2  C   UNL     1      42.313  -6.325   9.054  1.00  0.00     0.062 A 
HETATM    3  N   UNL     1      42.196  -6.049   7.744  1.00  0.00    -0.177 NA
HETATM    4  N   UNL     1      42.524  -7.203   7.129  1.00  0.00    -0.256 N 
HETATM    5  H   UNL     1      42.508  -7.240   6.116  1.00  0.00     0.191 HD
HETATM    6  C   UNL     1      42.857  -8.186   8.003  1.00  0.00     0.175 A 
HETATM    7  C   UNL     1      42.708  -7.667   9.263  1.00  0.00     0.034 A 
HETATM    8  C   UNL     1      43.035  -8.508  10.448  1.00  0.00     0.109 A 
HETATM    9  C   UNL     1      43.432  -9.923  10.022  1.00  0.00     0.081 A 
HETATM   10  C   UNL     1      43.772 -10.835  11.064  1.00  0.00     0.100 C 
HETATM   11  N   UNL     1      44.088 -11.577  11.899  1.00  0.00    -0.191 NA
HETATM   12  C   UNL     1      43.525 -10.299   8.716  1.00  0.00     0.140 A 
HETATM   13  O   UNL     1      43.240  -9.410   7.660  1.00  0.00    -0.279 OA
ENDROOT
BRANCH   8  14
HETATM   14  C   UNL     1      41.863  -8.418  11.435  1.00  0.00     0.000 A 
HETATM   15  C   UNL     1      40.590  -8.846  10.968  1.00  0.00     0.076 A 
HETATM   16  C   UNL     1      39.477  -8.804  11.806  1.00  0.00     0.038 A 
HETATM   17  C   UNL     1      39.593  -8.312  13.100  1.00  0.00     0.015 A 
HETATM   18  C   UNL     1      40.818  -7.855  13.592  1.00  0.00    -0.025 A 
HETATM   19  C   UNL     1      41.979  -7.896  12.773  1.00  0.00    -0.016 A 
HETATM   20  C   UNL     1      40.873  -7.358  14.905  1.00  0.00     0.012 A 
HETATM   21  C   UNL     1      43.169  -7.404  13.369  1.00  0.00     0.013 A 
HETATM   22  C   UNL     1      43.213  -6.909  14.677  1.00  0.00     0.001 A 
HETATM   23  C   UNL     1      42.064  -6.887  15.447  1.00  0.00     0.001 A 
BRANCH  15  24
HETATM   24  O   UNL     1      40.531  -9.326   9.683  1.00  0.00    -0.355 OA
HETATM   25  C   UNL     1      39.240  -9.604   9.150  1.00  0.00     0.210 C 
ENDBRANCH  15  24
ENDBRANCH   8  14
BRANCH  12  26
HETATM   26  N   UNL     1      43.897 -11.547   8.266  1.00  0.00    -0.282 NA
HETATM   27  H   UNL     1      43.333 -12.322   8.607  1.00  0.00     0.126 HD
HETATM   28  H   UNL     1      44.897 -11.706   8.364  1.00  0.00     0.126 HD
ENDBRANCH  12  26
TORSDOF 3
ENDMDL
MODEL 9
REMARK VINA RESULT:      -6.7      1.925      3.834
REMARK  3 active torsions:
REMARK  status: ('A' for Active; 'I' for Inactive)
REMARK    1  A    between atoms: C_8  and  C_9 
REMARK    2  A    between atoms: C_10  and  O_11 
REMARK    3  A    between atoms: C_24  and  N_25 
ROOT
HETATM    1  C   UNL     1      40.486 -15.583   6.290  1.00  0.00     0.073 C 
HETATM    2  C   UNL     1      40.275 -14.127   6.098  1.00  0.00     0.062 A 
HETATM    3  N   UNL     1      39.120 -13.554   6.479  1.00  0.00    -0.177 NA
HETATM    4  N   UNL     1      39.279 -12.250   6.177  1.00  0.00    -0.256 N 
HETATM    5  H   UNL     1      38.523 -11.606   6.376  1.00  0.00     0.191 HD
HETATM    6  C   UNL     1      40.493 -11.982   5.635  1.00  0.00     0.175 A 
HETATM    7  C   UNL     1      41.162 -13.176   5.542  1.00  0.00     0.034 A 
HETATM    8  C   UNL     1      42.552 -13.201   5.009  1.00  0.00     0.109 A 
HETATM    9  C   UNL     1      42.990 -11.806   4.557  1.00  0.00     0.081 A 
HETATM   10  C   UNL     1      44.308 -11.689   4.024  1.00  0.00     0.100 C 
HETATM   11  N   UNL     1      45.391 -11.571   3.624  1.00  0.00    -0.191 NA
HETATM   12  C   UNL     1      42.202 -10.704   4.704  1.00  0.00     0.140 A 
HETATM   13  O   UNL     1      40.913 -10.777   5.267  1.00  0.00    -0.279 OA
ENDROOT
BRANCH   8  14
HETATM   14  C   UNL     1      42.634 -14.299   3.940  1.00  0.00     0.000 A 
HETATM   15  C   UNL     1      42.061 -14.011   2.671  1.00  0.00     0.076 A 
HETATM   16  C   UNL     1      42.102 -14.952   1.644  1.00  0.00     0.038 A 
HETATM   17  C   UNL     1      42.676 -16.199   1.860  1.00  0.00     0.015 A 
HETATM   18  C   UNL     1      43.226 -16.536   3.098  1.00  0.00    -0.025 A 
HETATM   19  C   UNL     1      43.217 -15.598   4.165  1.00  0.00    -0.016 A 
HETATM   20  C   UNL     1      43.782 -17.816   3.263  1.00  0.00     0.012 A 
HETATM   21  C   UNL     1      43.797 -16.043   5.381  1.00  0.00     0.013 A 
HETATM   22  C   UNL     1      44.347 -17.320   5.535  1.00  0.00     0.001 A 
HETATM   23  C   UNL     1      44.341 -18.208   4.474  1.00  0.00     0.001 A 
BRANCH  15  24
HETATM   24  O   UNL     1      41.510 -12.763   2.509  1.00  0.00    -0.355 OA
HETATM   25  C   UNL     1      40.198 -12.697   1.958  1.00  0.00     0.210 C 
ENDBRANCH  15  24
ENDBRANCH   8  14
BRANCH  12  26
HETATM   26  N   UNL     1      42.545  -9.421   4.339  1.00  0.00    -0.282 NA
HETATM   27  H   UNL     1      41.853  -8.923   3.784  1.00  0.00     0.126 HD
HETATM   28  H   UNL     1      43.483  -9.372   3.947  1.00  0.00     0.126 HD
ENDBRANCH  12  26
TORSDOF 3
ENDMDL
MODEL 10
REMARK VINA RESULT:      -6.7      7.291     10.138
REMARK  3 active torsions:
REMARK  status: ('A' for Active; 'I' for Inactive)
REMARK    1  A    between atoms: C_8  and  C_9 
REMARK    2  A    between atoms: C_10  and  O_11 
REMARK    3  A    between atoms: C_24  and  N_25 
ROOT
HETATM    1  C   UNL     1      43.199 -10.558  12.325  1.00  0.00     0.073 C 
HETATM    2  C   UNL     1      43.560 -10.214  10.927  1.00  0.00     0.062 A 
HETATM    3  N   UNL     1      44.803 -10.447  10.474  1.00  0.00    -0.177 NA
HETATM    4  N   UNL     1      44.772 -10.037   9.189  1.00  0.00    -0.256 N 
HETATM    5  H   UNL     1      45.613 -10.114   8.630  1.00  0.00     0.191 HD
HETATM    6  C   UNL     1      43.552  -9.572   8.818  1.00  0.00     0.175 A 
HETATM    7  C   UNL     1      42.744  -9.645   9.923  1.00  0.00     0.034 A 
HETATM    8  C   UNL     1      41.317  -9.230   9.818  1.00  0.00     0.109 A 
HETATM    9  C   UNL     1      41.006  -8.686   8.422  1.00  0.00     0.081 A 
HETATM   10  C   UNL     1      39.668  -8.253   8.187  1.00  0.00     0.100 C 
HETATM   11  N   UNL     1      38.574  -7.931   7.968  1.00  0.00    -0.191 NA
HETATM   12  C   UNL     1      41.927  -8.666   7.419  1.00  0.00     0.140 A 
HETATM   13  O   UNL     1      43.245  -9.129   7.605  1.00  0.00    -0.279 OA
ENDROOT
BRANCH   8  14
HETATM   14  C   UNL     1      41.010  -8.278  10.982  1.00  0.00     0.000 A 
HETATM   15  C   UNL     1      40.124  -8.751  11.989  1.00  0.00     0.076 A 
HETATM   16  C   UNL     1      39.802  -7.950  13.083  1.00  0.00     0.038 A 
HETATM   17  C   UNL     1      40.319  -6.665  13.187  1.00  0.00     0.015 A 
HETATM   18  C   UNL     1      41.171  -6.148  12.209  1.00  0.00    -0.025 A 
HETATM   19  C   UNL     1      41.536  -6.940  11.086  1.00  0.00    -0.016 A 
HETATM   20  C   UNL     1      41.656  -4.838  12.360  1.00  0.00     0.012 A 
HETATM   21  C   UNL     1      42.402  -6.318  10.150  1.00  0.00     0.013 A 
HETATM   22  C   UNL     1      42.877  -5.011  10.309  1.00  0.00     0.001 A 
HETATM   23  C   UNL     1      42.505  -4.270  11.417  1.00  0.00     0.001 A 
BRANCH  15  24
HETATM   24  O   UNL     1      39.644 -10.029  11.840  1.00  0.00    -0.355 OA
HETATM   25  C   UNL     1      39.466 -10.799  13.024  1.00  0.00     0.210 C 
ENDBRANCH  15  24
ENDBRANCH   8  14
BRANCH  12  26
HETATM   26  N   UNL     1      41.705  -8.212   6.138  1.00  0.00    -0.282 NA
HETATM   27  H   UNL     1      41.565  -7.209   6.045  1.00  0.00     0.126 HD
HETATM   28  H   UNL     1      40.998  -8.761   5.654  1.00  0.00     0.126 HD
ENDBRANCH  12  26
TORSDOF 3
ENDMDL
