MODEL 1
REMARK VINA RESULT:      -9.7      0.000      0.000
REMARK  7 active torsions:
REMARK  status: ('A' for Active; 'I' for Inactive)
REMARK    1  A    between atoms: C_2  and  O_3 
REMARK    2  A    between atoms: O_3  and  C_4 
REMARK    3  A    between atoms: C_7  and  N_8 
REMARK    4  A    between atoms: C_9  and  C_11 
REMARK    5  A    between atoms: C_9  and  O_10 
REMARK       I    between atoms: C_11  and  N_12 
REMARK    6  A    between atoms: N_12  and  C_13 
REMARK    7  A    between atoms: C_13  and  C_14 
ROOT
HETATM    1  N   UNL     1      42.423 -12.572   4.307  1.00  0.00    -0.254 N 
HETATM    2  C   UNL     1      41.356 -13.586   4.418  1.00  0.00     0.256 C 
HETATM    3  C   UNL     1      40.976 -14.208   3.087  1.00  0.00     0.034 A 
HETATM    4  C   UNL     1      41.270 -13.505   1.925  1.00  0.00     0.048 A 
HETATM    5  N   UNL     1      41.950 -12.298   2.022  1.00  0.00    -0.308 N 
HETATM    6  C   UNL     1      42.526 -11.805   3.155  1.00  0.00     0.330 C 
HETATM    7  O   UNL     1      43.157 -10.750   3.062  1.00  0.00    -0.246 OA
HETATM    8  C   UNL     1      40.259 -15.413   2.971  1.00  0.00     0.015 A 
HETATM    9  C   UNL     1      39.889 -15.906   1.716  1.00  0.00     0.001 A 
HETATM   10  C   UNL     1      40.205 -15.190   0.565  1.00  0.00     0.002 A 
HETATM   11  C   UNL     1      40.889 -13.980   0.668  1.00  0.00     0.030 A 
HETATM   12  H   UNL     1      42.133 -11.752   1.190  1.00  0.00     0.170 HD
ENDROOT
BRANCH   2  13
HETATM   13  C   UNL     1      41.681 -14.730   5.469  1.00  0.00     0.279 C 
HETATM   14  N   UNL     1      42.767 -15.518   5.117  1.00  0.00    -0.352 N 
HETATM   15  H   UNL     1      43.394 -15.134   4.417  1.00  0.00     0.162 HD
HETATM   16  O   UNL     1      41.022 -14.943   6.487  1.00  0.00    -0.268 OA
BRANCH  14  17
HETATM   17  C   UNL     1      43.240 -16.569   5.980  1.00  0.00     0.161 C 
BRANCH  17  18
HETATM   18  C   UNL     1      43.459 -17.838   5.201  1.00  0.00    -0.038 A 
HETATM   19  C   UNL     1      43.314 -17.848   3.805  1.00  0.00     0.048 A 
HETATM   20  C   UNL     1      43.516 -19.039   3.139  1.00  0.00     0.105 A 
HETATM   21  C   UNL     1      43.843 -20.196   3.805  1.00  0.00     0.105 A 
HETATM   22  O   UNL     1      43.424 -19.222   1.795  1.00  0.00    -0.323 OA
HETATM   23  O   UNL     1      44.001 -21.253   2.963  1.00  0.00    -0.323 OA
HETATM   24  C   UNL     1      43.980 -20.231   5.175  1.00  0.00     0.040 A 
HETATM   25  C   UNL     1      43.744 -20.625   1.689  1.00  0.00     0.352 A 
HETATM   26  C   UNL     1      43.781 -19.038   5.878  1.00  0.00     0.012 A 
ENDBRANCH  17  18
ENDBRANCH  14  17
ENDBRANCH   2  13
BRANCH   2  27
HETATM   27  O   UNL     1      40.174 -12.891   4.858  1.00  0.00    -0.359 OA
HETATM   28  H   UNL     1      39.669 -13.565   5.340  1.00  0.00     0.213 HD
ENDBRANCH   2  27
BRANCH   1  29
HETATM   29  C   UNL     1      43.038 -12.086   5.504  1.00  0.00     0.043 A 
HETATM   30  C   UNL     1      44.293 -12.551   5.911  1.00  0.00     0.032 A 
HETATM   31  C   UNL     1      44.888 -12.053   7.075  1.00  0.00     0.039 A 
HETATM   32  C   UNL     1      44.231 -11.104   7.862  1.00  0.00     0.068 A 
HETATM   33  C   UNL     1      42.967 -10.663   7.478  1.00  0.00     0.039 A 
HETATM   34  C   UNL     1      42.373 -11.159   6.312  1.00  0.00     0.032 A 
BRANCH  32  35
HETATM   35  O   UNL     1      44.920 -10.702   8.972  1.00  0.00    -0.352 OA
BRANCH  35  36
HETATM   36  C   UNL     1      45.342  -9.339   9.012  1.00  0.00     0.171 C 
HETATM   37  C   UNL     1      46.424  -9.149   7.964  1.00  0.00     0.034 C 
ENDBRANCH  35  36
ENDBRANCH  32  35
ENDBRANCH   1  29
TORSDOF 7
ENDMDL
MODEL 2
REMARK VINA RESULT:      -9.3      2.879      6.755
REMARK  7 active torsions:
REMARK  status: ('A' for Active; 'I' for Inactive)
REMARK    1  A    between atoms: C_2  and  O_3 
REMARK    2  A    between atoms: O_3  and  C_4 
REMARK    3  A    between atoms: C_7  and  N_8 
REMARK    4  A    between atoms: C_9  and  C_11 
REMARK    5  A    between atoms: C_9  and  O_10 
REMARK       I    between atoms: C_11  and  N_12 
REMARK    6  A    between atoms: N_12  and  C_13 
REMARK    7  A    between atoms: C_13  and  C_14 
ROOT
HETATM    1  N   UNL     1      42.595 -15.427   4.660  1.00  0.00    -0.254 N 
HETATM    2  C   UNL     1      42.570 -16.006   3.302  1.00  0.00     0.256 C 
HETATM    3  C   UNL     1      43.006 -17.458   3.259  1.00  0.00     0.034 A 
HETATM    4  C   UNL     1      43.788 -17.941   4.302  1.00  0.00     0.048 A 
HETATM    5  N   UNL     1      44.087 -17.100   5.365  1.00  0.00    -0.308 N 
HETATM    6  C   UNL     1      43.533 -15.873   5.581  1.00  0.00     0.330 C 
HETATM    7  O   UNL     1      43.851 -15.276   6.612  1.00  0.00    -0.246 OA
HETATM    8  C   UNL     1      42.741 -18.316   2.175  1.00  0.00     0.015 A 
HETATM    9  C   UNL     1      43.219 -19.629   2.170  1.00  0.00     0.001 A 
HETATM   10  C   UNL     1      43.991 -20.094   3.232  1.00  0.00     0.002 A 
HETATM   11  C   UNL     1      44.285 -19.246   4.298  1.00  0.00     0.030 A 
HETATM   12  H   UNL     1      44.691 -17.421   6.110  1.00  0.00     0.170 HD
ENDROOT
BRANCH   2  13
HETATM   13  C   UNL     1      41.167 -15.847   2.576  1.00  0.00     0.279 C 
HETATM   14  N   UNL     1      41.248 -15.230   1.337  1.00  0.00    -0.352 N 
HETATM   15  H   UNL     1      42.166 -15.204   0.905  1.00  0.00     0.162 HD
HETATM   16  O   UNL     1      40.092 -16.194   3.065  1.00  0.00    -0.268 OA
BRANCH  14  17
HETATM   17  C   UNL     1      40.081 -15.052   0.512  1.00  0.00     0.161 C 
BRANCH  17  18
HETATM   18  C   UNL     1      40.293 -13.937  -0.475  1.00  0.00    -0.038 A 
HETATM   19  C   UNL     1      40.750 -12.682  -0.043  1.00  0.00     0.048 A 
HETATM   20  C   UNL     1      40.918 -11.690  -0.987  1.00  0.00     0.105 A 
HETATM   21  C   UNL     1      40.645 -11.902  -2.318  1.00  0.00     0.105 A 
HETATM   22  O   UNL     1      41.358 -10.427  -0.741  1.00  0.00    -0.323 OA
HETATM   23  O   UNL     1      40.882 -10.798  -3.077  1.00  0.00    -0.323 OA
HETATM   24  C   UNL     1      40.182 -13.113  -2.780  1.00  0.00     0.040 A 
HETATM   25  C   UNL     1      41.343  -9.871  -2.072  1.00  0.00     0.352 A 
HETATM   26  C   UNL     1      40.002 -14.138  -1.845  1.00  0.00     0.012 A 
ENDBRANCH  17  18
ENDBRANCH  14  17
ENDBRANCH   2  13
BRANCH   2  27
HETATM   27  O   UNL     1      43.559 -15.293   2.535  1.00  0.00    -0.359 OA
HETATM   28  H   UNL     1      43.163 -15.215   1.652  1.00  0.00     0.213 HD
ENDBRANCH   2  27
BRANCH   1  29
HETATM   29  C   UNL     1      41.984 -14.151   4.876  1.00  0.00     0.043 A 
HETATM   30  C   UNL     1      42.548 -12.983   4.352  1.00  0.00     0.032 A 
HETATM   31  C   UNL     1      41.929 -11.746   4.558  1.00  0.00     0.039 A 
HETATM   32  C   UNL     1      40.755 -11.651   5.309  1.00  0.00     0.068 A 
HETATM   33  C   UNL     1      40.209 -12.808   5.861  1.00  0.00     0.039 A 
HETATM   34  C   UNL     1      40.826 -14.047   5.652  1.00  0.00     0.032 A 
BRANCH  32  35
HETATM   35  O   UNL     1      40.253 -10.386   5.436  1.00  0.00    -0.352 OA
BRANCH  35  36
HETATM   36  C   UNL     1      38.854 -10.221   5.215  1.00  0.00     0.171 C 
HETATM   37  C   UNL     1      38.617 -10.152   3.717  1.00  0.00     0.034 C 
ENDBRANCH  35  36
ENDBRANCH  32  35
ENDBRANCH   1  29
TORSDOF 7
ENDMDL
MODEL 3
REMARK VINA RESULT:      -9.0      2.412      3.845
REMARK  7 active torsions:
REMARK  status: ('A' for Active; 'I' for Inactive)
REMARK    1  A    between atoms: C_2  and  O_3 
REMARK    2  A    between atoms: O_3  and  C_4 
REMARK    3  A    between atoms: C_7  and  N_8 
REMARK    4  A    between atoms: C_9  and  C_11 
REMARK    5  A    between atoms: C_9  and  O_10 
REMARK       I    between atoms: C_11  and  N_12 
REMARK    6  A    between atoms: N_12  and  C_13 
REMARK    7  A    between atoms: C_13  and  C_14 
ROOT
HETATM    1  N   UNL     1      40.119 -12.488   3.447  1.00  0.00    -0.254 N 
HETATM    2  C   UNL     1      39.947 -13.286   2.217  1.00  0.00     0.256 C 
HETATM    3  C   UNL     1      39.272 -12.520   1.094  1.00  0.00     0.034 A 
HETATM    4  C   UNL     1      38.499 -11.413   1.425  1.00  0.00     0.048 A 
HETATM    5  N   UNL     1      38.426 -11.015   2.752  1.00  0.00    -0.308 N 
HETATM    6  C   UNL     1      39.191 -11.507   3.767  1.00  0.00     0.330 C 
HETATM    7  O   UNL     1      39.056 -11.000   4.882  1.00  0.00    -0.246 OA
HETATM    8  C   UNL     1      39.308 -12.927  -0.253  1.00  0.00     0.015 A 
HETATM    9  C   UNL     1      38.618 -12.210  -1.234  1.00  0.00     0.001 A 
HETATM   10  C   UNL     1      37.860 -11.097  -0.881  1.00  0.00     0.002 A 
HETATM   11  C   UNL     1      37.792 -10.701   0.454  1.00  0.00     0.030 A 
HETATM   12  H   UNL     1      37.833 -10.239   3.016  1.00  0.00     0.170 HD
ENDROOT
BRANCH   2  13
HETATM   13  C   UNL     1      41.298 -13.929   1.688  1.00  0.00     0.279 C 
HETATM   14  N   UNL     1      41.338 -15.311   1.798  1.00  0.00    -0.352 N 
HETATM   15  H   UNL     1      40.446 -15.779   1.924  1.00  0.00     0.162 HD
HETATM   16  O   UNL     1      42.250 -13.280   1.255  1.00  0.00    -0.268 OA
BRANCH  14  17
HETATM   17  C   UNL     1      42.465 -16.068   1.317  1.00  0.00     0.161 C 
BRANCH  17  18
HETATM   18  C   UNL     1      42.981 -16.990   2.388  1.00  0.00    -0.038 A 
HETATM   19  C   UNL     1      43.040 -18.375   2.165  1.00  0.00     0.048 A 
HETATM   20  C   UNL     1      43.511 -19.178   3.183  1.00  0.00     0.105 A 
HETATM   21  C   UNL     1      43.910 -18.658   4.391  1.00  0.00     0.105 A 
HETATM   22  O   UNL     1      43.641 -20.530   3.131  1.00  0.00    -0.323 OA
HETATM   23  O   UNL     1      44.344 -19.619   5.251  1.00  0.00    -0.323 OA
HETATM   24  C   UNL     1      43.854 -17.307   4.654  1.00  0.00     0.040 A 
HETATM   25  C   UNL     1      44.179 -20.802   4.442  1.00  0.00     0.352 A 
HETATM   26  C   UNL     1      43.380 -16.468   3.640  1.00  0.00     0.012 A 
ENDBRANCH  17  18
ENDBRANCH  14  17
ENDBRANCH   2  13
BRANCH   2  27
HETATM   27  O   UNL     1      39.036 -14.353   2.545  1.00  0.00    -0.359 OA
HETATM   28  H   UNL     1      38.751 -14.150   3.450  1.00  0.00     0.213 HD
ENDBRANCH   2  27
BRANCH   1  29
HETATM   29  C   UNL     1      40.950 -13.005   4.492  1.00  0.00     0.043 A 
HETATM   30  C   UNL     1      42.241 -12.510   4.699  1.00  0.00     0.032 A 
HETATM   31  C   UNL     1      43.034 -13.014   5.736  1.00  0.00     0.039 A 
HETATM   32  C   UNL     1      42.561 -14.034   6.563  1.00  0.00     0.068 A 
HETATM   33  C   UNL     1      41.288 -14.554   6.339  1.00  0.00     0.039 A 
HETATM   34  C   UNL     1      40.493 -14.047   5.304  1.00  0.00     0.032 A 
BRANCH  32  35
HETATM   35  O   UNL     1      43.433 -14.438   7.535  1.00  0.00    -0.352 OA
BRANCH  35  36
HETATM   36  C   UNL     1      43.093 -15.618   8.260  1.00  0.00     0.171 C 
HETATM   37  C   UNL     1      44.083 -16.706   7.882  1.00  0.00     0.034 C 
ENDBRANCH  35  36
ENDBRANCH  32  35
ENDBRANCH   1  29
TORSDOF 7
ENDMDL
MODEL 4
REMARK VINA RESULT:      -9.0      1.467      2.062
REMARK  7 active torsions:
REMARK  status: ('A' for Active; 'I' for Inactive)
REMARK    1  A    between atoms: C_2  and  O_3 
REMARK    2  A    between atoms: O_3  and  C_4 
REMARK    3  A    between atoms: C_7  and  N_8 
REMARK    4  A    between atoms: C_9  and  C_11 
REMARK    5  A    between atoms: C_9  and  O_10 
REMARK       I    between atoms: C_11  and  N_12 
REMARK    6  A    between atoms: N_12  and  C_13 
REMARK    7  A    between atoms: C_13  and  C_14 
ROOT
HETATM    1  N   UNL     1      41.195 -11.948   3.616  1.00  0.00    -0.254 N 
HETATM    2  C   UNL     1      40.559 -13.279   3.673  1.00  0.00     0.256 C 
HETATM    3  C   UNL     1      40.354 -13.907   2.307  1.00  0.00     0.034 A 
HETATM    4  C   UNL     1      40.321 -13.070   1.198  1.00  0.00     0.048 A 
HETATM    5  N   UNL     1      40.538 -11.710   1.373  1.00  0.00    -0.308 N 
HETATM    6  C   UNL     1      40.963 -11.121   2.526  1.00  0.00     0.330 C 
HETATM    7  O   UNL     1      41.177  -9.907   2.502  1.00  0.00    -0.246 OA
HETATM    8  C   UNL     1      40.099 -15.277   2.113  1.00  0.00     0.015 A 
HETATM    9  C   UNL     1      39.861 -15.786   0.834  1.00  0.00     0.001 A 
HETATM   10  C   UNL     1      39.845 -14.930  -0.265  1.00  0.00     0.002 A 
HETATM   11  C   UNL     1      40.066 -13.565  -0.083  1.00  0.00     0.030 A 
HETATM   12  H   UNL     1      40.474 -11.081   0.583  1.00  0.00     0.170 HD
ENDROOT
BRANCH   2  13
HETATM   13  C   UNL     1      41.320 -14.300   4.621  1.00  0.00     0.279 C 
HETATM   14  N   UNL     1      42.556 -14.698   4.134  1.00  0.00    -0.352 N 
HETATM   15  H   UNL     1      42.964 -14.115   3.410  1.00  0.00     0.162 HD
HETATM   16  O   UNL     1      40.860 -14.742   5.674  1.00  0.00    -0.268 OA
BRANCH  14  17
HETATM   17  C   UNL     1      43.410 -15.579   4.888  1.00  0.00     0.161 C 
BRANCH  17  18
HETATM   18  C   UNL     1      43.466 -16.940   4.250  1.00  0.00    -0.038 A 
HETATM   19  C   UNL     1      43.916 -18.051   4.981  1.00  0.00     0.048 A 
HETATM   20  C   UNL     1      43.957 -19.274   4.346  1.00  0.00     0.105 A 
HETATM   21  C   UNL     1      43.580 -19.423   3.032  1.00  0.00     0.105 A 
HETATM   22  O   UNL     1      44.357 -20.446   4.907  1.00  0.00    -0.323 OA
HETATM   23  O   UNL     1      43.693 -20.709   2.603  1.00  0.00    -0.323 OA
HETATM   24  C   UNL     1      43.147 -18.356   2.277  1.00  0.00     0.040 A 
HETATM   25  C   UNL     1      44.176 -21.353   3.800  1.00  0.00     0.352 A 
HETATM   26  C   UNL     1      43.094 -17.102   2.894  1.00  0.00     0.012 A 
ENDBRANCH  17  18
ENDBRANCH  14  17
ENDBRANCH   2  13
BRANCH   2  27
HETATM   27  O   UNL     1      39.233 -13.078   4.198  1.00  0.00    -0.359 OA
HETATM   28  H   UNL     1      39.216 -12.138   4.441  1.00  0.00     0.213 HD
ENDBRANCH   2  27
BRANCH   1  29
HETATM   29  C   UNL     1      41.663 -11.356   4.832  1.00  0.00     0.043 A 
HETATM   30  C   UNL     1      40.773 -10.763   5.734  1.00  0.00     0.032 A 
HETATM   31  C   UNL     1      41.244 -10.203   6.926  1.00  0.00     0.039 A 
HETATM   32  C   UNL     1      42.608 -10.204   7.225  1.00  0.00     0.068 A 
HETATM   33  C   UNL     1      43.501 -10.763   6.313  1.00  0.00     0.039 A 
HETATM   34  C   UNL     1      43.030 -11.326   5.122  1.00  0.00     0.032 A 
BRANCH  32  35
HETATM   35  O   UNL     1      42.936  -9.625   8.419  1.00  0.00    -0.352 OA
BRANCH  35  36
HETATM   36  C   UNL     1      42.663  -8.232   8.558  1.00  0.00     0.171 C 
HETATM   37  C   UNL     1      43.943  -7.542   8.995  1.00  0.00     0.034 C 
ENDBRANCH  35  36
ENDBRANCH  32  35
ENDBRANCH   1  29
TORSDOF 7
ENDMDL
MODEL 5
REMARK VINA RESULT:      -9.0      3.011      7.025
REMARK  7 active torsions:
REMARK  status: ('A' for Active; 'I' for Inactive)
REMARK    1  A    between atoms: C_2  and  O_3 
REMARK    2  A    between atoms: O_3  and  C_4 
REMARK    3  A    between atoms: C_7  and  N_8 
REMARK    4  A    between atoms: C_9  and  C_11 
REMARK    5  A    between atoms: C_9  and  O_10 
REMARK       I    between atoms: C_11  and  N_12 
REMARK    6  A    between atoms: N_12  and  C_13 
REMARK    7  A    between atoms: C_13  and  C_14 
ROOT
HETATM    1  N   UNL     1      42.502 -15.081   4.363  1.00  0.00    -0.254 N 
HETATM    2  C   UNL     1      42.518 -15.779   3.062  1.00  0.00     0.256 C 
HETATM    3  C   UNL     1      42.980 -17.220   3.159  1.00  0.00     0.034 A 
HETATM    4  C   UNL     1      43.747 -17.592   4.257  1.00  0.00     0.048 A 
HETATM    5  N   UNL     1      44.007 -16.654   5.246  1.00  0.00    -0.308 N 
HETATM    6  C   UNL     1      43.426 -15.424   5.339  1.00  0.00     0.330 C 
HETATM    7  O   UNL     1      43.710 -14.731   6.319  1.00  0.00    -0.246 OA
HETATM    8  C   UNL     1      42.755 -18.177   2.151  1.00  0.00     0.015 A 
HETATM    9  C   UNL     1      43.256 -19.475   2.274  1.00  0.00     0.001 A 
HETATM   10  C   UNL     1      44.012 -19.828   3.389  1.00  0.00     0.002 A 
HETATM   11  C   UNL     1      44.268 -18.883   4.381  1.00  0.00     0.030 A 
HETATM   12  H   UNL     1      44.600 -16.895   6.030  1.00  0.00     0.170 HD
ENDROOT
BRANCH   2  13
HETATM   13  C   UNL     1      41.129 -15.713   2.295  1.00  0.00     0.279 C 
HETATM   14  N   UNL     1      41.199 -15.068   1.070  1.00  0.00    -0.352 N 
HETATM   15  H   UNL     1      42.125 -14.962   0.668  1.00  0.00     0.162 HD
HETATM   16  O   UNL     1      40.070 -16.152   2.744  1.00  0.00    -0.268 OA
BRANCH  14  17
HETATM   17  C   UNL     1      40.047 -14.963   0.213  1.00  0.00     0.161 C 
BRANCH  17  18
HETATM   18  C   UNL     1      39.887 -13.555  -0.293  1.00  0.00    -0.038 A 
HETATM   19  C   UNL     1      38.976 -13.268  -1.322  1.00  0.00     0.048 A 
HETATM   20  C   UNL     1      38.875 -11.963  -1.755  1.00  0.00     0.105 A 
HETATM   21  C   UNL     1      39.640 -10.957  -1.214  1.00  0.00     0.105 A 
HETATM   22  O   UNL     1      38.042 -11.513  -2.732  1.00  0.00    -0.323 OA
HETATM   23  O   UNL     1      39.382  -9.747  -1.780  1.00  0.00    -0.323 OA
HETATM   24  C   UNL     1      40.555 -11.200  -0.213  1.00  0.00     0.040 A 
HETATM   25  C   UNL     1      38.361 -10.106  -2.734  1.00  0.00     0.352 A 
HETATM   26  C   UNL     1      40.679 -12.515   0.247  1.00  0.00     0.012 A 
ENDBRANCH  17  18
ENDBRANCH  14  17
ENDBRANCH   2  13
BRANCH   2  27
HETATM   27  O   UNL     1      43.511 -15.119   2.255  1.00  0.00    -0.359 OA
HETATM   28  H   UNL     1      44.290 -15.068   2.832  1.00  0.00     0.213 HD
ENDBRANCH   2  27
BRANCH   1  29
HETATM   29  C   UNL     1      41.864 -13.803   4.450  1.00  0.00     0.043 A 
HETATM   30  C   UNL     1      40.661 -13.643   5.147  1.00  0.00     0.032 A 
HETATM   31  C   UNL     1      40.059 -12.384   5.238  1.00  0.00     0.039 A 
HETATM   32  C   UNL     1      40.633 -11.272   4.616  1.00  0.00     0.068 A 
HETATM   33  C   UNL     1      41.813 -11.434   3.893  1.00  0.00     0.039 A 
HETATM   34  C   UNL     1      42.417 -12.693   3.805  1.00  0.00     0.032 A 
BRANCH  32  35
HETATM   35  O   UNL     1      39.945 -10.102   4.780  1.00  0.00    -0.352 OA
BRANCH  35  36
HETATM   36  C   UNL     1      38.585 -10.087   4.349  1.00  0.00     0.171 C 
HETATM   37  C   UNL     1      38.571 -10.090   2.831  1.00  0.00     0.034 C 
ENDBRANCH  35  36
ENDBRANCH  32  35
ENDBRANCH   1  29
TORSDOF 7
ENDMDL
MODEL 6
REMARK VINA RESULT:      -8.9      1.961      8.235
REMARK  7 active torsions:
REMARK  status: ('A' for Active; 'I' for Inactive)
REMARK    1  A    between atoms: C_2  and  O_3 
REMARK    2  A    between atoms: O_3  and  C_4 
REMARK    3  A    between atoms: C_7  and  N_8 
REMARK    4  A    between atoms: C_9  and  C_11 
REMARK    5  A    between atoms: C_9  and  O_10 
REMARK       I    between atoms: C_11  and  N_12 
REMARK    6  A    between atoms: N_12  and  C_13 
REMARK    7  A    between atoms: C_13  and  C_14 
ROOT
HETATM    1  N   UNL     1      41.939 -15.744   3.190  1.00  0.00    -0.254 N 
HETATM    2  C   UNL     1      41.431 -15.356   4.521  1.00  0.00     0.256 C 
HETATM    3  C   UNL     1      42.310 -15.831   5.662  1.00  0.00     0.034 A 
HETATM    4  C   UNL     1      43.164 -16.904   5.431  1.00  0.00     0.048 A 
HETATM    5  N   UNL     1      43.225 -17.455   4.159  1.00  0.00    -0.308 N 
HETATM    6  C   UNL     1      42.648 -16.928   3.042  1.00  0.00     0.330 C 
HETATM    7  O   UNL     1      42.852 -17.500   1.969  1.00  0.00    -0.246 OA
HETATM    8  C   UNL     1      42.239 -15.307   6.966  1.00  0.00     0.015 A 
HETATM    9  C   UNL     1      43.036 -15.827   7.989  1.00  0.00     0.001 A 
HETATM   10  C   UNL     1      43.893 -16.894   7.732  1.00  0.00     0.002 A 
HETATM   11  C   UNL     1      43.951 -17.442   6.451  1.00  0.00     0.030 A 
HETATM   12  H   UNL     1      43.807 -18.264   3.985  1.00  0.00     0.170 HD
ENDROOT
BRANCH   2  13
HETATM   13  C   UNL     1      41.165 -13.797   4.664  1.00  0.00     0.279 C 
HETATM   14  N   UNL     1      42.324 -13.040   4.749  1.00  0.00    -0.352 N 
HETATM   15  H   UNL     1      43.180 -13.489   4.438  1.00  0.00     0.162 HD
HETATM   16  O   UNL     1      40.046 -13.290   4.734  1.00  0.00    -0.268 OA
BRANCH  14  17
HETATM   17  C   UNL     1      42.275 -11.603   4.828  1.00  0.00     0.161 C 
BRANCH  17  18
HETATM   18  C   UNL     1      43.190 -11.099   5.910  1.00  0.00    -0.038 A 
HETATM   19  C   UNL     1      42.696 -10.273   6.932  1.00  0.00     0.048 A 
HETATM   20  C   UNL     1      43.579  -9.830   7.894  1.00  0.00     0.105 A 
HETATM   21  C   UNL     1      44.911 -10.169   7.869  1.00  0.00     0.105 A 
HETATM   22  O   UNL     1      43.267  -9.034   8.952  1.00  0.00    -0.323 OA
HETATM   23  O   UNL     1      45.603  -9.632   8.909  1.00  0.00    -0.323 OA
HETATM   24  C   UNL     1      45.438 -10.965   6.876  1.00  0.00     0.040 A 
HETATM   25  C   UNL     1      44.552  -8.922   9.597  1.00  0.00     0.352 A 
HETATM   26  C   UNL     1      44.566 -11.430   5.886  1.00  0.00     0.012 A 
ENDBRANCH  17  18
ENDBRANCH  14  17
ENDBRANCH   2  13
BRANCH   2  27
HETATM   27  O   UNL     1      40.179 -16.046   4.698  1.00  0.00    -0.359 OA
HETATM   28  H   UNL     1      39.626 -15.412   5.181  1.00  0.00     0.213 HD
ENDBRANCH   2  27
BRANCH   1  29
HETATM   29  C   UNL     1      41.342 -15.159   2.028  1.00  0.00     0.043 A 
HETATM   30  C   UNL     1      40.256 -15.769   1.390  1.00  0.00     0.032 A 
HETATM   31  C   UNL     1      39.673 -15.176   0.266  1.00  0.00     0.039 A 
HETATM   32  C   UNL     1      40.178 -13.982  -0.254  1.00  0.00     0.068 A 
HETATM   33  C   UNL     1      41.281 -13.390   0.358  1.00  0.00     0.039 A 
HETATM   34  C   UNL     1      41.862 -13.981   1.485  1.00  0.00     0.032 A 
BRANCH  32  35
HETATM   35  O   UNL     1      39.520 -13.510  -1.355  1.00  0.00    -0.352 OA
BRANCH  35  36
HETATM   36  C   UNL     1      39.849 -14.104  -2.609  1.00  0.00     0.171 C 
HETATM   37  C   UNL     1      38.580 -14.695  -3.198  1.00  0.00     0.034 C 
ENDBRANCH  35  36
ENDBRANCH  32  35
ENDBRANCH   1  29
TORSDOF 7
ENDMDL
MODEL 7
REMARK VINA RESULT:      -8.8      2.466      3.759
REMARK  7 active torsions:
REMARK  status: ('A' for Active; 'I' for Inactive)
REMARK    1  A    between atoms: C_2  and  O_3 
REMARK    2  A    between atoms: O_3  and  C_4 
REMARK    3  A    between atoms: C_7  and  N_8 
REMARK    4  A    between atoms: C_9  and  C_11 
REMARK    5  A    between atoms: C_9  and  O_10 
REMARK       I    between atoms: C_11  and  N_12 
REMARK    6  A    between atoms: N_12  and  C_13 
REMARK    7  A    between atoms: C_13  and  C_14 
ROOT
HETATM    1  N   UNL     1      39.708 -12.259   1.983  1.00  0.00    -0.254 N 
HETATM    2  C   UNL     1      39.956 -13.522   1.261  1.00  0.00     0.256 C 
HETATM    3  C   UNL     1      39.402 -13.526  -0.151  1.00  0.00     0.034 A 
HETATM    4  C   UNL     1      38.380 -12.636  -0.459  1.00  0.00     0.048 A 
HETATM    5  N   UNL     1      37.951 -11.742   0.512  1.00  0.00    -0.308 N 
HETATM    6  C   UNL     1      38.563 -11.524   1.711  1.00  0.00     0.330 C 
HETATM    7  O   UNL     1      38.099 -10.643   2.437  1.00  0.00    -0.246 OA
HETATM    8  C   UNL     1      39.801 -14.447  -1.139  1.00  0.00     0.015 A 
HETATM    9  C   UNL     1      39.211 -14.436  -2.405  1.00  0.00     0.001 A 
HETATM   10  C   UNL     1      38.196 -13.526  -2.694  1.00  0.00     0.002 A 
HETATM   11  C   UNL     1      37.771 -12.629  -1.716  1.00  0.00     0.030 A 
HETATM   12  H   UNL     1      37.178 -11.117   0.320  1.00  0.00     0.170 HD
ENDROOT
BRANCH   2  13
HETATM   13  C   UNL     1      41.487 -13.943   1.235  1.00  0.00     0.279 C 
HETATM   14  N   UNL     1      41.700 -15.287   1.500  1.00  0.00    -0.352 N 
HETATM   15  H   UNL     1      40.896 -15.899   1.401  1.00  0.00     0.162 HD
HETATM   16  O   UNL     1      42.416 -13.159   1.041  1.00  0.00    -0.268 OA
BRANCH  14  17
HETATM   17  C   UNL     1      43.022 -15.857   1.464  1.00  0.00     0.161 C 
BRANCH  17  18
HETATM   18  C   UNL     1      43.269 -16.705   2.682  1.00  0.00    -0.038 A 
HETATM   19  C   UNL     1      43.532 -18.078   2.551  1.00  0.00     0.048 A 
HETATM   20  C   UNL     1      43.740 -18.812   3.700  1.00  0.00     0.105 A 
HETATM   21  C   UNL     1      43.690 -18.237   4.948  1.00  0.00     0.105 A 
HETATM   22  O   UNL     1      44.013 -20.143   3.752  1.00  0.00    -0.323 OA
HETATM   23  O   UNL     1      43.927 -19.134   5.942  1.00  0.00    -0.323 OA
HETATM   24  C   UNL     1      43.420 -16.897   5.119  1.00  0.00     0.040 A 
HETATM   25  C   UNL     1      44.141 -20.338   5.176  1.00  0.00     0.352 A 
HETATM   26  C   UNL     1      43.204 -16.127   3.972  1.00  0.00     0.012 A 
ENDBRANCH  17  18
ENDBRANCH  14  17
ENDBRANCH   2  13
BRANCH   2  27
HETATM   27  O   UNL     1      39.218 -14.545   1.957  1.00  0.00    -0.359 OA
HETATM   28  H   UNL     1      38.306 -14.214   1.966  1.00  0.00     0.213 HD
ENDBRANCH   2  27
BRANCH   1  29
HETATM   29  C   UNL     1      40.381 -12.033   3.226  1.00  0.00     0.043 A 
HETATM   30  C   UNL     1      41.349 -11.032   3.351  1.00  0.00     0.032 A 
HETATM   31  C   UNL     1      41.985 -10.813   4.578  1.00  0.00     0.039 A 
HETATM   32  C   UNL     1      41.683 -11.603   5.689  1.00  0.00     0.068 A 
HETATM   33  C   UNL     1      40.744 -12.623   5.560  1.00  0.00     0.039 A 
HETATM   34  C   UNL     1      40.105 -12.841   4.334  1.00  0.00     0.032 A 
BRANCH  32  35
HETATM   35  O   UNL     1      42.375 -11.286   6.825  1.00  0.00    -0.352 OA
BRANCH  35  36
HETATM   36  C   UNL     1      43.796 -11.214   6.717  1.00  0.00     0.171 C 
HETATM   37  C   UNL     1      44.342 -12.631   6.724  1.00  0.00     0.034 C 
ENDBRANCH  35  36
ENDBRANCH  32  35
ENDBRANCH   1  29
TORSDOF 7
ENDMDL
MODEL 8
REMARK VINA RESULT:      -8.8      3.226      8.252
REMARK  7 active torsions:
REMARK  status: ('A' for Active; 'I' for Inactive)
REMARK    1  A    between atoms: C_2  and  O_3 
REMARK    2  A    between atoms: O_3  and  C_4 
REMARK    3  A    between atoms: C_7  and  N_8 
REMARK    4  A    between atoms: C_9  and  C_11 
REMARK    5  A    between atoms: C_9  and  O_10 
REMARK       I    between atoms: C_11  and  N_12 
REMARK    6  A    between atoms: N_12  and  C_13 
REMARK    7  A    between atoms: C_13  and  C_14 
ROOT
HETATM    1  N   UNL     1      41.914 -15.788   3.168  1.00  0.00    -0.254 N 
HETATM    2  C   UNL     1      41.389 -15.364   4.481  1.00  0.00     0.256 C 
HETATM    3  C   UNL     1      42.269 -15.785   5.644  1.00  0.00     0.034 A 
HETATM    4  C   UNL     1      43.143 -16.849   5.456  1.00  0.00     0.048 A 
HETATM    5  N   UNL     1      43.222 -17.442   4.204  1.00  0.00    -0.308 N 
HETATM    6  C   UNL     1      42.644 -16.964   3.065  1.00  0.00     0.330 C 
HETATM    7  O   UNL     1      42.867 -17.568   2.014  1.00  0.00    -0.246 OA
HETATM    8  C   UNL     1      42.179 -15.218   6.929  1.00  0.00     0.015 A 
HETATM    9  C   UNL     1      42.978 -15.689   7.975  1.00  0.00     0.001 A 
HETATM   10  C   UNL     1      43.855 -16.748   7.759  1.00  0.00     0.002 A 
HETATM   11  C   UNL     1      43.932 -17.338   6.499  1.00  0.00     0.030 A 
HETATM   12  H   UNL     1      43.820 -18.246   4.061  1.00  0.00     0.170 HD
ENDROOT
BRANCH   2  13
HETATM   13  C   UNL     1      41.096 -13.807   4.570  1.00  0.00     0.279 C 
HETATM   14  N   UNL     1      39.755 -13.483   4.423  1.00  0.00    -0.352 N 
HETATM   15  H   UNL     1      39.092 -14.240   4.558  1.00  0.00     0.162 HD
HETATM   16  O   UNL     1      41.964 -12.946   4.714  1.00  0.00    -0.268 OA
BRANCH  14  17
HETATM   17  C   UNL     1      39.298 -12.122   4.530  1.00  0.00     0.161 C 
BRANCH  17  18
HETATM   18  C   UNL     1      39.257 -11.467   3.176  1.00  0.00    -0.038 A 
HETATM   19  C   UNL     1      38.339 -11.898   2.205  1.00  0.00     0.048 A 
HETATM   20  C   UNL     1      38.350 -11.271   0.976  1.00  0.00     0.105 A 
HETATM   21  C   UNL     1      39.231 -10.257   0.687  1.00  0.00     0.105 A 
HETATM   22  O   UNL     1      37.527 -11.558  -0.068  1.00  0.00    -0.323 OA
HETATM   23  O   UNL     1      39.071  -9.775  -0.575  1.00  0.00    -0.323 OA
HETATM   24  C   UNL     1      40.156  -9.815   1.607  1.00  0.00     0.040 A 
HETATM   25  C   UNL     1      37.983 -10.598  -1.044  1.00  0.00     0.352 A 
HETATM   26  C   UNL     1      40.169 -10.432   2.862  1.00  0.00     0.012 A 
ENDBRANCH  17  18
ENDBRANCH  14  17
ENDBRANCH   2  13
BRANCH   2  27
HETATM   27  O   UNL     1      40.148 -16.070   4.674  1.00  0.00    -0.359 OA
HETATM   28  H   UNL     1      39.963 -15.968   5.621  1.00  0.00     0.213 HD
ENDBRANCH   2  27
BRANCH   1  29
HETATM   29  C   UNL     1      41.315 -15.254   1.983  1.00  0.00     0.043 A 
HETATM   30  C   UNL     1      41.803 -14.084   1.392  1.00  0.00     0.032 A 
HETATM   31  C   UNL     1      41.217 -13.585   0.224  1.00  0.00     0.039 A 
HETATM   32  C   UNL     1      40.123 -14.230  -0.357  1.00  0.00     0.068 A 
HETATM   33  C   UNL     1      39.613 -15.377   0.247  1.00  0.00     0.039 A 
HETATM   34  C   UNL     1      40.201 -15.878   1.414  1.00  0.00     0.032 A 
BRANCH  32  35
HETATM   35  O   UNL     1      39.644 -13.640  -1.494  1.00  0.00    -0.352 OA
BRANCH  35  36
HETATM   36  C   UNL     1      39.074 -14.501  -2.478  1.00  0.00     0.171 C 
HETATM   37  C   UNL     1      37.782 -13.869  -2.966  1.00  0.00     0.034 C 
ENDBRANCH  35  36
ENDBRANCH  32  35
ENDBRANCH   1  29
TORSDOF 7
ENDMDL
MODEL 9
REMARK VINA RESULT:      -8.7      2.831      6.097
REMARK  7 active torsions:
REMARK  status: ('A' for Active; 'I' for Inactive)
REMARK    1  A    between atoms: C_2  and  O_3 
REMARK    2  A    between atoms: O_3  and  C_4 
REMARK    3  A    between atoms: C_7  and  N_8 
REMARK    4  A    between atoms: C_9  and  C_11 
REMARK    5  A    between atoms: C_9  and  O_10 
REMARK       I    between atoms: C_11  and  N_12 
REMARK    6  A    between atoms: N_12  and  C_13 
REMARK    7  A    between atoms: C_13  and  C_14 
ROOT
HETATM    1  N   UNL     1      40.085 -13.629   0.969  1.00  0.00    -0.254 N 
HETATM    2  C   UNL     1      40.026 -12.341   1.688  1.00  0.00     0.256 C 
HETATM    3  C   UNL     1      38.849 -11.477   1.277  1.00  0.00     0.034 A 
HETATM    4  C   UNL     1      38.263 -11.710   0.038  1.00  0.00     0.048 A 
HETATM    5  N   UNL     1      38.733 -12.757  -0.743  1.00  0.00    -0.308 N 
HETATM    6  C   UNL     1      39.616 -13.712  -0.335  1.00  0.00     0.330 C 
HETATM    7  O   UNL     1      39.882 -14.619  -1.126  1.00  0.00    -0.246 OA
HETATM    8  C   UNL     1      38.380 -10.391   2.039  1.00  0.00     0.015 A 
HETATM    9  C   UNL     1      37.326  -9.597   1.579  1.00  0.00     0.001 A 
HETATM   10  C   UNL     1      36.747  -9.857   0.340  1.00  0.00     0.002 A 
HETATM   11  C   UNL     1      37.222 -10.911  -0.439  1.00  0.00     0.030 A 
HETATM   12  H   UNL     1      38.348 -12.913  -1.666  1.00  0.00     0.170 HD
ENDROOT
BRANCH   2  13
HETATM   13  C   UNL     1      40.046 -12.500   3.267  1.00  0.00     0.279 C 
HETATM   14  N   UNL     1      41.247 -12.125   3.850  1.00  0.00    -0.352 N 
HETATM   15  H   UNL     1      41.860 -11.545   3.286  1.00  0.00     0.162 HD
HETATM   16  O   UNL     1      39.111 -12.950   3.929  1.00  0.00    -0.268 OA
BRANCH  14  17
HETATM   17  C   UNL     1      41.427 -12.151   5.279  1.00  0.00     0.161 C 
BRANCH  17  18
HETATM   18  C   UNL     1      42.227 -13.356   5.691  1.00  0.00    -0.038 A 
HETATM   19  C   UNL     1      41.710 -14.649   5.511  1.00  0.00     0.048 A 
HETATM   20  C   UNL     1      42.481 -15.719   5.916  1.00  0.00     0.105 A 
HETATM   21  C   UNL     1      43.718 -15.547   6.488  1.00  0.00     0.105 A 
HETATM   22  O   UNL     1      42.136 -17.030   5.808  1.00  0.00    -0.323 OA
HETATM   23  O   UNL     1      44.310 -16.729   6.810  1.00  0.00    -0.323 OA
HETATM   24  C   UNL     1      44.254 -14.295   6.696  1.00  0.00     0.040 A 
HETATM   25  C   UNL     1      43.305 -17.665   6.366  1.00  0.00     0.352 A 
HETATM   26  C   UNL     1      43.496 -13.190   6.295  1.00  0.00     0.012 A 
ENDBRANCH  17  18
ENDBRANCH  14  17
ENDBRANCH   2  13
BRANCH   2  27
HETATM   27  O   UNL     1      41.194 -11.597   1.294  1.00  0.00    -0.359 OA
HETATM   28  H   UNL     1      41.306 -11.812   0.354  1.00  0.00     0.213 HD
ENDBRANCH   2  27
BRANCH   1  29
HETATM   29  C   UNL     1      40.998 -14.632   1.427  1.00  0.00     0.043 A 
HETATM   30  C   UNL     1      40.534 -15.836   1.968  1.00  0.00     0.032 A 
HETATM   31  C   UNL     1      41.438 -16.813   2.396  1.00  0.00     0.039 A 
HETATM   32  C   UNL     1      42.816 -16.595   2.315  1.00  0.00     0.068 A 
HETATM   33  C   UNL     1      43.281 -15.384   1.809  1.00  0.00     0.039 A 
HETATM   34  C   UNL     1      42.376 -14.407   1.377  1.00  0.00     0.032 A 
BRANCH  32  35
HETATM   35  O   UNL     1      43.589 -17.628   2.767  1.00  0.00    -0.352 OA
BRANCH  35  36
HETATM   36  C   UNL     1      43.217 -18.942   2.356  1.00  0.00     0.171 C 
HETATM   37  C   UNL     1      43.872 -19.934   3.301  1.00  0.00     0.034 C 
ENDBRANCH  35  36
ENDBRANCH  32  35
ENDBRANCH   1  29
TORSDOF 7
ENDMDL
MODEL 10
REMARK VINA RESULT:      -8.6      2.378      7.724
REMARK  7 active torsions:
REMARK  status: ('A' for Active; 'I' for Inactive)
REMARK    1  A    between atoms: C_2  and  O_3 
REMARK    2  A    between atoms: O_3  and  C_4 
REMARK    3  A    between atoms: C_7  and  N_8 
REMARK    4  A    between atoms: C_9  and  C_11 
REMARK    5  A    between atoms: C_9  and  O_10 
REMARK       I    between atoms: C_11  and  N_12 
REMARK    6  A    between atoms: N_12  and  C_13 
REMARK    7  A    between atoms: C_13  and  C_14 
ROOT
HETATM    1  N   UNL     1      40.666 -13.514   1.976  1.00  0.00    -0.254 N 
HETATM    2  C   UNL     1      40.966 -12.406   2.904  1.00  0.00     0.256 C 
HETATM    3  C   UNL     1      39.897 -11.330   2.921  1.00  0.00     0.034 A 
HETATM    4  C   UNL     1      39.053 -11.224   1.821  1.00  0.00     0.048 A 
HETATM    5  N   UNL     1      39.179 -12.139   0.785  1.00  0.00    -0.308 N 
HETATM    6  C   UNL     1      39.948 -13.265   0.815  1.00  0.00     0.330 C 
HETATM    7  O   UNL     1      39.899 -14.016  -0.161  1.00  0.00    -0.246 OA
HETATM    8  C   UNL     1      39.775 -10.373   3.946  1.00  0.00     0.015 A 
HETATM    9  C   UNL     1      38.804  -9.370   3.875  1.00  0.00     0.001 A 
HETATM   10  C   UNL     1      37.962  -9.292   2.769  1.00  0.00     0.002 A 
HETATM   11  C   UNL     1      38.092 -10.215   1.733  1.00  0.00     0.030 A 
HETATM   12  H   UNL     1      38.603 -12.051  -0.042  1.00  0.00     0.170 HD
ENDROOT
BRANCH   2  13
HETATM   13  C   UNL     1      41.261 -12.888   4.387  1.00  0.00     0.279 C 
HETATM   14  N   UNL     1      42.562 -12.648   4.803  1.00  0.00    -0.352 N 
HETATM   15  H   UNL     1      43.088 -11.966   4.266  1.00  0.00     0.162 HD
HETATM   16  O   UNL     1      40.441 -13.460   5.105  1.00  0.00    -0.268 OA
BRANCH  14  17
HETATM   17  C   UNL     1      42.993 -12.970   6.139  1.00  0.00     0.161 C 
BRANCH  17  18
HETATM   18  C   UNL     1      43.774 -11.831   6.735  1.00  0.00    -0.038 A 
HETATM   19  C   UNL     1      43.109 -10.719   7.277  1.00  0.00     0.048 A 
HETATM   20  C   UNL     1      43.873  -9.697   7.801  1.00  0.00     0.105 A 
HETATM   21  C   UNL     1      45.247  -9.741   7.796  1.00  0.00     0.105 A 
HETATM   22  O   UNL     1      43.392  -8.559   8.369  1.00  0.00    -0.323 OA
HETATM   23  O   UNL     1      45.803  -8.638   8.363  1.00  0.00    -0.323 OA
HETATM   24  C   UNL     1      45.936 -10.807   7.261  1.00  0.00     0.040 A 
HETATM   25  C   UNL     1      44.621  -7.897   8.733  1.00  0.00     0.352 A 
HETATM   26  C   UNL     1      45.189 -11.859   6.722  1.00  0.00     0.012 A 
ENDBRANCH  17  18
ENDBRANCH  14  17
ENDBRANCH   2  13
BRANCH   2  27
HETATM   27  O   UNL     1      42.147 -11.755   2.397  1.00  0.00    -0.359 OA
HETATM   28  H   UNL     1      42.258 -10.984   2.975  1.00  0.00     0.213 HD
ENDBRANCH   2  27
BRANCH   1  29
HETATM   29  C   UNL     1      41.464 -14.701   2.040  1.00  0.00     0.043 A 
HETATM   30  C   UNL     1      40.939 -15.898   2.536  1.00  0.00     0.032 A 
HETATM   31  C   UNL     1      41.727 -17.053   2.575  1.00  0.00     0.039 A 
HETATM   32  C   UNL     1      43.056 -17.025   2.145  1.00  0.00     0.068 A 
HETATM   33  C   UNL     1      43.593 -15.826   1.682  1.00  0.00     0.039 A 
HETATM   34  C   UNL     1      42.803 -14.671   1.639  1.00  0.00     0.032 A 
BRANCH  32  35
HETATM   35  O   UNL     1      43.715 -18.219   2.237  1.00  0.00    -0.352 OA
BRANCH  35  36
HETATM   36  C   UNL     1      42.913 -19.394   2.339  1.00  0.00     0.171 C 
HETATM   37  C   UNL     1      43.685 -20.546   1.720  1.00  0.00     0.034 C 
ENDBRANCH  35  36
ENDBRANCH  32  35
ENDBRANCH   1  29
TORSDOF 7
ENDMDL
