MODEL 1
REMARK VINA RESULT:      -8.3      0.000      0.000
REMARK  7 active torsions:
REMARK  status: ('A' for Active; 'I' for Inactive)
REMARK    1  A    between atoms: C_2  and  O_3 
REMARK    2  A    between atoms: O_3  and  C_4 
REMARK    3  A    between atoms: C_4  and  C_5 
REMARK    4  A    between atoms: C_6  and  C_7 
REMARK    5  A    between atoms: C_18  and  C_19 
REMARK    6  A    between atoms: C_19  and  N_20 
REMARK    7  A    between atoms: N_20  and  C_21 
ROOT
HETATM    1  C   UNL     1      41.682 -12.956   4.478  1.00  0.00     0.068 A 
HETATM    2  C   UNL     1      41.755 -11.485   4.778  1.00  0.00     0.161 A 
HETATM    3  N   UNL     1      41.869 -10.694   3.567  1.00  0.00    -0.330 N 
HETATM    4  C   UNL     1      42.050 -11.190   2.321  1.00  0.00     0.321 A 
HETATM    5  O   UNL     1      42.220 -10.455   1.355  1.00  0.00    -0.247 OA
HETATM    6  N   UNL     1      42.017 -12.543   2.196  1.00  0.00    -0.310 N 
HETATM    7  C   UNL     1      41.813 -13.441   3.226  1.00  0.00     0.046 A 
HETATM    8  H   UNL     1      41.919  -9.688   3.641  1.00  0.00     0.165 HD
HETATM    9  H   UNL     1      42.126 -12.881   1.246  1.00  0.00     0.170 HD
ENDROOT
BRANCH   7  10
HETATM   10  C   UNL     1      41.722 -14.896   2.809  1.00  0.00     0.177 C 
BRANCH  10  11
HETATM   11  N   UNL     1      43.062 -15.456   2.799  1.00  0.00    -0.384 N 
HETATM   12  H   UNL     1      43.631 -15.206   1.996  1.00  0.00     0.160 HD
BRANCH  11  13
HETATM   13  C   UNL     1      43.322 -16.722   3.318  1.00  0.00     0.029 A 
HETATM   14  C   UNL     1      43.271 -17.824   2.455  1.00  0.00     0.053 A 
HETATM   15  C   UNL     1      43.606 -19.113   2.893  1.00  0.00     0.042 A 
HETATM   16 CL   UNL     1      43.517 -20.403   1.745  1.00  0.00    -0.084 Cl
HETATM   17  C   UNL     1      44.013 -19.336   4.213  1.00  0.00    -0.040 A 
HETATM   18  C   UNL     1      44.407 -20.696   4.715  1.00  0.00     0.050 C 
HETATM   19  C   UNL     1      44.101 -18.235   5.070  1.00  0.00     0.011 A 
HETATM   20  C   UNL     1      43.770 -16.949   4.623  1.00  0.00     0.030 A 
ENDBRANCH  11  13
ENDBRANCH  10  11
ENDBRANCH   7  10
BRANCH   1  21
HETATM   21  C   UNL     1      41.484 -13.862   5.633  1.00  0.00     0.293 C 
HETATM   22  O   UNL     1      40.429 -14.020   6.222  1.00  0.00    -0.259 OA
BRANCH  21  23
HETATM   23  O   UNL     1      42.661 -14.461   5.946  1.00  0.00    -0.318 OA
BRANCH  23  24
HETATM   24  C   UNL     1      43.049 -14.373   7.327  1.00  0.00     0.174 C 
HETATM   25  C   UNL     1      43.000 -15.745   7.970  1.00  0.00     0.034 C 
ENDBRANCH  23  24
ENDBRANCH  21  23
ENDBRANCH   1  21
BRANCH   2  26
HETATM   26  C   UNL     1      42.882 -11.112   5.733  1.00  0.00    -0.031 A 
HETATM   27  C   UNL     1      42.620 -10.457   6.949  1.00  0.00     0.011 A 
HETATM   28  C   UNL     1      43.663 -10.120   7.815  1.00  0.00     0.024 A 
HETATM   29  C   UNL     1      44.976 -10.431   7.472  1.00  0.00     0.034 A 
HETATM   30 CL   UNL     1      46.260 -10.019   8.540  1.00  0.00    -0.084 Cl
HETATM   31  C   UNL     1      45.256 -11.075   6.269  1.00  0.00     0.024 A 
HETATM   32  C   UNL     1      44.214 -11.416   5.404  1.00  0.00     0.011 A 
ENDBRANCH   2  26
TORSDOF 7
ENDMDL
MODEL 2
REMARK VINA RESULT:      -8.2      3.224      5.371
REMARK  7 active torsions:
REMARK  status: ('A' for Active; 'I' for Inactive)
REMARK    1  A    between atoms: C_2  and  O_3 
REMARK    2  A    between atoms: O_3  and  C_4 
REMARK    3  A    between atoms: C_4  and  C_5 
REMARK    4  A    between atoms: C_6  and  C_7 
REMARK    5  A    between atoms: C_18  and  C_19 
REMARK    6  A    between atoms: C_19  and  N_20 
REMARK    7  A    between atoms: N_20  and  C_21 
ROOT
HETATM    1  C   UNL     1      42.157 -13.848   4.973  1.00  0.00     0.068 A 
HETATM    2  C   UNL     1      40.709 -13.628   4.639  1.00  0.00     0.161 A 
HETATM    3  N   UNL     1      39.835 -14.396   5.505  1.00  0.00    -0.330 N 
HETATM    4  C   UNL     1      40.239 -15.325   6.402  1.00  0.00     0.321 A 
HETATM    5  O   UNL     1      39.436 -15.994   7.041  1.00  0.00    -0.247 OA
HETATM    6  N   UNL     1      41.581 -15.464   6.568  1.00  0.00    -0.310 N 
HETATM    7  C   UNL     1      42.552 -14.740   5.904  1.00  0.00     0.046 A 
HETATM    8  H   UNL     1      38.834 -14.325   5.381  1.00  0.00     0.165 HD
HETATM    9  H   UNL     1      41.850 -16.146   7.269  1.00  0.00     0.170 HD
ENDROOT
BRANCH   7  10
HETATM   10  C   UNL     1      43.978 -15.015   6.341  1.00  0.00     0.177 C 
BRANCH  10  11
HETATM   11  N   UNL     1      44.151 -16.452   6.466  1.00  0.00    -0.384 N 
HETATM   12  H   UNL     1      44.829 -16.749   7.161  1.00  0.00     0.160 HD
BRANCH  11  13
HETATM   13  C   UNL     1      44.055 -17.292   5.359  1.00  0.00     0.029 A 
HETATM   14  C   UNL     1      44.022 -18.676   5.569  1.00  0.00     0.053 A 
HETATM   15  C   UNL     1      43.839 -19.574   4.507  1.00  0.00     0.042 A 
HETATM   16 CL   UNL     1      43.806 -21.263   4.875  1.00  0.00    -0.084 Cl
HETATM   17  C   UNL     1      43.675 -19.108   3.198  1.00  0.00    -0.040 A 
HETATM   18  C   UNL     1      43.448 -20.034   2.037  1.00  0.00     0.050 C 
HETATM   19  C   UNL     1      43.670 -17.725   2.987  1.00  0.00     0.011 A 
HETATM   20  C   UNL     1      43.847 -16.835   4.054  1.00  0.00     0.030 A 
ENDBRANCH  11  13
ENDBRANCH  10  11
ENDBRANCH   7  10
BRANCH   1  21
HETATM   21  C   UNL     1      43.145 -13.054   4.205  1.00  0.00     0.293 C 
HETATM   22  O   UNL     1      43.614 -13.379   3.128  1.00  0.00    -0.259 OA
BRANCH  21  23
HETATM   23  O   UNL     1      43.462 -11.931   4.898  1.00  0.00    -0.318 OA
BRANCH  23  24
HETATM   24  C   UNL     1      42.837 -10.724   4.433  1.00  0.00     0.174 C 
HETATM   25  C   UNL     1      42.021 -10.097   5.547  1.00  0.00     0.034 C 
ENDBRANCH  23  24
ENDBRANCH  21  23
ENDBRANCH   1  21
BRANCH   2  26
HETATM   26  C   UNL     1      40.365 -13.922   3.184  1.00  0.00    -0.031 A 
HETATM   27  C   UNL     1      40.014 -12.892   2.295  1.00  0.00     0.011 A 
HETATM   28  C   UNL     1      39.702 -13.177   0.963  1.00  0.00     0.024 A 
HETATM   29  C   UNL     1      39.732 -14.493   0.511  1.00  0.00     0.034 A 
HETATM   30 CL   UNL     1      39.348 -14.843  -1.129  1.00  0.00    -0.084 Cl
HETATM   31  C   UNL     1      40.071 -15.528   1.378  1.00  0.00     0.024 A 
HETATM   32  C   UNL     1      40.388 -15.245   2.709  1.00  0.00     0.011 A 
ENDBRANCH   2  26
TORSDOF 7
ENDMDL
MODEL 3
REMARK VINA RESULT:      -8.1      2.861      4.267
REMARK  7 active torsions:
REMARK  status: ('A' for Active; 'I' for Inactive)
REMARK    1  A    between atoms: C_2  and  O_3 
REMARK    2  A    between atoms: O_3  and  C_4 
REMARK    3  A    between atoms: C_4  and  C_5 
REMARK    4  A    between atoms: C_6  and  C_7 
REMARK    5  A    between atoms: C_18  and  C_19 
REMARK    6  A    between atoms: C_19  and  N_20 
REMARK    7  A    between atoms: N_20  and  C_21 
ROOT
HETATM    1  C   UNL     1      42.632 -12.928   5.017  1.00  0.00     0.068 A 
HETATM    2  C   UNL     1      42.966 -11.465   5.097  1.00  0.00     0.161 A 
HETATM    3  N   UNL     1      43.660 -11.140   6.329  1.00  0.00    -0.330 N 
HETATM    4  C   UNL     1      43.856 -11.986   7.366  1.00  0.00     0.321 A 
HETATM    5  O   UNL     1      44.380 -11.615   8.409  1.00  0.00    -0.247 OA
HETATM    6  N   UNL     1      43.457 -13.273   7.182  1.00  0.00    -0.310 N 
HETATM    7  C   UNL     1      42.876 -13.778   6.035  1.00  0.00     0.046 A 
HETATM    8  H   UNL     1      43.943 -10.183   6.495  1.00  0.00     0.165 HD
HETATM    9  H   UNL     1      43.645 -13.888   7.966  1.00  0.00     0.170 HD
ENDROOT
BRANCH   7  10
HETATM   10  C   UNL     1      42.611 -15.271   6.046  1.00  0.00     0.177 C 
BRANCH  10  11
HETATM   11  N   UNL     1      43.829 -15.957   5.651  1.00  0.00    -0.384 N 
HETATM   12  H   UNL     1      44.664 -15.380   5.628  1.00  0.00     0.160 HD
BRANCH  11  13
HETATM   13  C   UNL     1      43.810 -16.981   4.708  1.00  0.00     0.029 A 
HETATM   14  C   UNL     1      44.111 -18.284   5.126  1.00  0.00     0.053 A 
HETATM   15  C   UNL     1      44.025 -19.373   4.248  1.00  0.00     0.042 A 
HETATM   16 CL   UNL     1      44.412 -20.941   4.867  1.00  0.00    -0.084 Cl
HETATM   17  C   UNL     1      43.624 -19.191   2.920  1.00  0.00    -0.040 A 
HETATM   18  C   UNL     1      43.491 -20.335   1.955  1.00  0.00     0.050 C 
HETATM   19  C   UNL     1      43.285 -17.899   2.506  1.00  0.00     0.011 A 
HETATM   20  C   UNL     1      43.369 -16.816   3.392  1.00  0.00     0.030 A 
ENDBRANCH  11  13
ENDBRANCH  10  11
ENDBRANCH   7  10
BRANCH   1  21
HETATM   21  C   UNL     1      41.991 -13.396   3.766  1.00  0.00     0.293 C 
HETATM   22  O   UNL     1      42.553 -13.496   2.689  1.00  0.00    -0.259 OA
BRANCH  21  23
HETATM   23  O   UNL     1      40.681 -13.667   4.001  1.00  0.00    -0.318 OA
BRANCH  23  24
HETATM   24  C   UNL     1      39.818 -13.570   2.857  1.00  0.00     0.174 C 
HETATM   25  C   UNL     1      39.076 -12.249   2.876  1.00  0.00     0.034 C 
ENDBRANCH  23  24
ENDBRANCH  21  23
ENDBRANCH   1  21
BRANCH   2  26
HETATM   26  C   UNL     1      41.756 -10.553   4.943  1.00  0.00    -0.031 A 
HETATM   27  C   UNL     1      41.641  -9.672   3.853  1.00  0.00     0.011 A 
HETATM   28  C   UNL     1      40.526  -8.841   3.723  1.00  0.00     0.024 A 
HETATM   29  C   UNL     1      39.519  -8.879   4.683  1.00  0.00     0.034 A 
HETATM   30 CL   UNL     1      38.144  -7.857   4.524  1.00  0.00    -0.084 Cl
HETATM   31  C   UNL     1      39.617  -9.740   5.774  1.00  0.00     0.024 A 
HETATM   32  C   UNL     1      40.730 -10.575   5.903  1.00  0.00     0.011 A 
ENDBRANCH   2  26
TORSDOF 7
ENDMDL
MODEL 4
REMARK VINA RESULT:      -8.1      2.371      8.146
REMARK  7 active torsions:
REMARK  status: ('A' for Active; 'I' for Inactive)
REMARK    1  A    between atoms: C_2  and  O_3 
REMARK    2  A    between atoms: O_3  and  C_4 
REMARK    3  A    between atoms: C_4  and  C_5 
REMARK    4  A    between atoms: C_6  and  C_7 
REMARK    5  A    between atoms: C_18  and  C_19 
REMARK    6  A    between atoms: C_19  and  N_20 
REMARK    7  A    between atoms: N_20  and  C_21 
ROOT
HETATM    1  C   UNL     1      42.709 -14.292   4.816  1.00  0.00     0.068 A 
HETATM    2  C   UNL     1      42.106 -15.619   5.181  1.00  0.00     0.161 A 
HETATM    3  N   UNL     1      42.269 -15.914   6.592  1.00  0.00    -0.330 N 
HETATM    4  C   UNL     1      43.004 -15.187   7.465  1.00  0.00     0.321 A 
HETATM    5  O   UNL     1      43.162 -15.545   8.626  1.00  0.00    -0.247 OA
HETATM    6  N   UNL     1      43.542 -14.032   6.990  1.00  0.00    -0.310 N 
HETATM    7  C   UNL     1      43.398 -13.548   5.705  1.00  0.00     0.046 A 
HETATM    8  H   UNL     1      41.896 -16.779   6.959  1.00  0.00     0.165 HD
HETATM    9  H   UNL     1      44.062 -13.497   7.677  1.00  0.00     0.170 HD
ENDROOT
BRANCH   7  10
HETATM   10  C   UNL     1      44.017 -12.186   5.453  1.00  0.00     0.177 C 
BRANCH  10  11
HETATM   11  N   UNL     1      44.753 -11.788   6.640  1.00  0.00    -0.384 N 
HETATM   12  H   UNL     1      44.971 -12.539   7.287  1.00  0.00     0.160 HD
BRANCH  11  13
HETATM   13  C   UNL     1      44.540 -10.551   7.243  1.00  0.00     0.029 A 
HETATM   14  C   UNL     1      43.233 -10.048   7.297  1.00  0.00     0.053 A 
HETATM   15  C   UNL     1      42.937  -8.851   7.965  1.00  0.00     0.042 A 
HETATM   16 CL   UNL     1      41.291  -8.321   7.978  1.00  0.00    -0.084 Cl
HETATM   17  C   UNL     1      43.944  -8.125   8.611  1.00  0.00    -0.040 A 
HETATM   18  C   UNL     1      43.664  -6.854   9.361  1.00  0.00     0.050 C 
HETATM   19  C   UNL     1      45.243  -8.641   8.592  1.00  0.00     0.011 A 
HETATM   20  C   UNL     1      45.530  -9.841   7.927  1.00  0.00     0.030 A 
ENDBRANCH  11  13
ENDBRANCH  10  11
ENDBRANCH   7  10
BRANCH   1  21
HETATM   21  C   UNL     1      42.535 -13.845   3.414  1.00  0.00     0.293 C 
HETATM   22  O   UNL     1      43.420 -13.818   2.577  1.00  0.00    -0.259 OA
BRANCH  21  23
HETATM   23  O   UNL     1      41.252 -13.448   3.220  1.00  0.00    -0.318 OA
BRANCH  23  24
HETATM   24  C   UNL     1      40.861 -13.282   1.847  1.00  0.00     0.174 C 
HETATM   25  C   UNL     1      40.150 -14.528   1.355  1.00  0.00     0.034 C 
ENDBRANCH  23  24
ENDBRANCH  21  23
ENDBRANCH   1  21
BRANCH   2  26
HETATM   26  C   UNL     1      42.642 -16.782   4.356  1.00  0.00    -0.031 A 
HETATM   27  C   UNL     1      43.695 -17.585   4.828  1.00  0.00     0.011 A 
HETATM   28  C   UNL     1      44.177 -18.649   4.062  1.00  0.00     0.024 A 
HETATM   29  C   UNL     1      43.616 -18.916   2.817  1.00  0.00     0.034 A 
HETATM   30 CL   UNL     1      44.208 -20.227   1.873  1.00  0.00    -0.084 Cl
HETATM   31  C   UNL     1      42.576 -18.128   2.329  1.00  0.00     0.024 A 
HETATM   32  C   UNL     1      42.090 -17.066   3.096  1.00  0.00     0.011 A 
ENDBRANCH   2  26
TORSDOF 7
ENDMDL
MODEL 5
REMARK VINA RESULT:      -7.9      3.320      4.032
REMARK  7 active torsions:
REMARK  status: ('A' for Active; 'I' for Inactive)
REMARK    1  A    between atoms: C_2  and  O_3 
REMARK    2  A    between atoms: O_3  and  C_4 
REMARK    3  A    between atoms: C_4  and  C_5 
REMARK    4  A    between atoms: C_6  and  C_7 
REMARK    5  A    between atoms: C_18  and  C_19 
REMARK    6  A    between atoms: C_19  and  N_20 
REMARK    7  A    between atoms: N_20  and  C_21 
ROOT
HETATM    1  C   UNL     1      41.270 -13.970   2.690  1.00  0.00     0.068 A 
HETATM    2  C   UNL     1      39.918 -13.350   2.471  1.00  0.00     0.161 A 
HETATM    3  N   UNL     1      39.414 -13.617   1.137  1.00  0.00    -0.330 N 
HETATM    4  C   UNL     1      40.112 -14.207   0.139  1.00  0.00     0.321 A 
HETATM    5  O   UNL     1      39.646 -14.325  -0.988  1.00  0.00    -0.247 OA
HETATM    6  N   UNL     1      41.347 -14.676   0.457  1.00  0.00    -0.310 N 
HETATM    7  C   UNL     1      41.939 -14.601   1.703  1.00  0.00     0.046 A 
HETATM    8  H   UNL     1      38.508 -13.256   0.873  1.00  0.00     0.165 HD
HETATM    9  H   UNL     1      41.831 -15.138  -0.305  1.00  0.00     0.170 HD
ENDROOT
BRANCH   7  10
HETATM   10  C   UNL     1      43.286 -15.287   1.824  1.00  0.00     0.177 C 
BRANCH  10  11
HETATM   11  N   UNL     1      43.111 -16.698   1.525  1.00  0.00    -0.384 N 
HETATM   12  H   UNL     1      42.314 -16.921   0.937  1.00  0.00     0.160 HD
BRANCH  11  13
HETATM   13  C   UNL     1      43.435 -17.680   2.456  1.00  0.00     0.029 A 
HETATM   14  C   UNL     1      43.524 -17.320   3.807  1.00  0.00     0.053 A 
HETATM   15  C   UNL     1      43.760 -18.276   4.806  1.00  0.00     0.042 A 
HETATM   16 CL   UNL     1      43.845 -17.727   6.443  1.00  0.00    -0.084 Cl
HETATM   17  C   UNL     1      43.906 -19.629   4.480  1.00  0.00    -0.040 A 
HETATM   18  C   UNL     1      44.131 -20.688   5.522  1.00  0.00     0.050 C 
HETATM   19  C   UNL     1      43.781 -20.000   3.138  1.00  0.00     0.011 A 
HETATM   20  C   UNL     1      43.539 -19.040   2.147  1.00  0.00     0.030 A 
ENDBRANCH  11  13
ENDBRANCH  10  11
ENDBRANCH   7  10
BRANCH   1  21
HETATM   21  C   UNL     1      41.853 -13.831   4.044  1.00  0.00     0.293 C 
HETATM   22  O   UNL     1      42.599 -12.932   4.393  1.00  0.00    -0.259 OA
BRANCH  21  23
HETATM   23  O   UNL     1      41.452 -14.870   4.821  1.00  0.00    -0.318 OA
BRANCH  23  24
HETATM   24  C   UNL     1      40.623 -14.516   5.940  1.00  0.00     0.174 C 
HETATM   25  C   UNL     1      40.152 -15.768   6.654  1.00  0.00     0.034 C 
ENDBRANCH  23  24
ENDBRANCH  21  23
ENDBRANCH   1  21
BRANCH   2  26
HETATM   26  C   UNL     1      39.884 -11.850   2.733  1.00  0.00    -0.031 A 
HETATM   27  C   UNL     1      40.610 -10.953   1.930  1.00  0.00     0.011 A 
HETATM   28  C   UNL     1      40.569  -9.579   2.181  1.00  0.00     0.024 A 
HETATM   29  C   UNL     1      39.807  -9.091   3.239  1.00  0.00     0.034 A 
HETATM   30 CL   UNL     1      39.755  -7.399   3.547  1.00  0.00    -0.084 Cl
HETATM   31  C   UNL     1      39.085  -9.964   4.049  1.00  0.00     0.024 A 
HETATM   32  C   UNL     1      39.122 -11.338   3.797  1.00  0.00     0.011 A 
ENDBRANCH   2  26
TORSDOF 7
ENDMDL
MODEL 6
REMARK VINA RESULT:      -7.9      2.043      7.513
REMARK  7 active torsions:
REMARK  status: ('A' for Active; 'I' for Inactive)
REMARK    1  A    between atoms: C_2  and  O_3 
REMARK    2  A    between atoms: O_3  and  C_4 
REMARK    3  A    between atoms: C_4  and  C_5 
REMARK    4  A    between atoms: C_6  and  C_7 
REMARK    5  A    between atoms: C_18  and  C_19 
REMARK    6  A    between atoms: C_19  and  N_20 
REMARK    7  A    between atoms: N_20  and  C_21 
ROOT
HETATM    1  C   UNL     1      41.556 -13.599   3.649  1.00  0.00     0.068 A 
HETATM    2  C   UNL     1      40.846 -14.921   3.720  1.00  0.00     0.161 A 
HETATM    3  N   UNL     1      40.171 -15.101   4.991  1.00  0.00    -0.330 N 
HETATM    4  C   UNL     1      40.278 -14.278   6.059  1.00  0.00     0.321 A 
HETATM    5  O   UNL     1      39.742 -14.539   7.130  1.00  0.00    -0.247 OA
HETATM    6  N   UNL     1      40.997 -13.138   5.877  1.00  0.00    -0.310 N 
HETATM    7  C   UNL     1      41.617 -12.759   4.702  1.00  0.00     0.046 A 
HETATM    8  H   UNL     1      39.651 -15.953   5.155  1.00  0.00     0.165 HD
HETATM    9  H   UNL     1      41.033 -12.529   6.687  1.00  0.00     0.170 HD
ENDROOT
BRANCH   7  10
HETATM   10  C   UNL     1      42.275 -11.393   4.729  1.00  0.00     0.177 C 
BRANCH  10  11
HETATM   11  N   UNL     1      43.658 -11.557   5.144  1.00  0.00    -0.384 N 
HETATM   12  H   UNL     1      44.093 -12.431   4.866  1.00  0.00     0.160 HD
BRANCH  11  13
HETATM   13  C   UNL     1      44.116 -11.043   6.354  1.00  0.00     0.029 A 
HETATM   14  C   UNL     1      43.185 -10.493   7.244  1.00  0.00     0.053 A 
HETATM   15  C   UNL     1      43.567 -10.038   8.514  1.00  0.00     0.042 A 
HETATM   16 CL   UNL     1      42.338  -9.381   9.539  1.00  0.00    -0.084 Cl
HETATM   17  C   UNL     1      44.898 -10.129   8.936  1.00  0.00    -0.040 A 
HETATM   18  C   UNL     1      45.344  -9.680  10.299  1.00  0.00     0.050 C 
HETATM   19  C   UNL     1      45.826 -10.712   8.067  1.00  0.00     0.011 A 
HETATM   20  C   UNL     1      45.435 -11.170   6.801  1.00  0.00     0.030 A 
ENDBRANCH  11  13
ENDBRANCH  10  11
ENDBRANCH   7  10
BRANCH   1  21
HETATM   21  C   UNL     1      42.218 -13.267   2.366  1.00  0.00     0.293 C 
HETATM   22  O   UNL     1      43.353 -13.592   2.063  1.00  0.00    -0.259 OA
BRANCH  21  23
HETATM   23  O   UNL     1      41.377 -12.528   1.598  1.00  0.00    -0.318 OA
BRANCH  23  24
HETATM   24  C   UNL     1      41.185 -13.009   0.258  1.00  0.00     0.174 C 
HETATM   25  C   UNL     1      40.168 -14.132   0.248  1.00  0.00     0.034 C 
ENDBRANCH  23  24
ENDBRANCH  21  23
ENDBRANCH   1  21
BRANCH   2  26
HETATM   26  C   UNL     1      41.752 -16.117   3.455  1.00  0.00    -0.031 A 
HETATM   27  C   UNL     1      41.644 -16.865   2.270  1.00  0.00     0.011 A 
HETATM   28  C   UNL     1      42.481 -17.959   2.040  1.00  0.00     0.024 A 
HETATM   29  C   UNL     1      43.430 -18.318   2.994  1.00  0.00     0.034 A 
HETATM   30 CL   UNL     1      44.463 -19.664   2.711  1.00  0.00    -0.084 Cl
HETATM   31  C   UNL     1      43.549 -17.592   4.177  1.00  0.00     0.024 A 
HETATM   32  C   UNL     1      42.714 -16.495   4.407  1.00  0.00     0.011 A 
ENDBRANCH   2  26
TORSDOF 7
ENDMDL
MODEL 7
REMARK VINA RESULT:      -7.7      3.262      4.808
REMARK  7 active torsions:
REMARK  status: ('A' for Active; 'I' for Inactive)
REMARK    1  A    between atoms: C_2  and  O_3 
REMARK    2  A    between atoms: O_3  and  C_4 
REMARK    3  A    between atoms: C_4  and  C_5 
REMARK    4  A    between atoms: C_6  and  C_7 
REMARK    5  A    between atoms: C_18  and  C_19 
REMARK    6  A    between atoms: C_19  and  N_20 
REMARK    7  A    between atoms: N_20  and  C_21 
ROOT
HETATM    1  C   UNL     1      41.521 -12.923   1.908  1.00  0.00     0.068 A 
HETATM    2  C   UNL     1      40.269 -12.299   1.361  1.00  0.00     0.161 A 
HETATM    3  N   UNL     1      39.585 -13.186   0.438  1.00  0.00    -0.330 N 
HETATM    4  C   UNL     1      40.067 -14.365  -0.019  1.00  0.00     0.321 A 
HETATM    5  O   UNL     1      39.468 -15.021  -0.862  1.00  0.00    -0.247 OA
HETATM    6  N   UNL     1      41.241 -14.790   0.520  1.00  0.00    -0.310 N 
HETATM    7  C   UNL     1      41.970 -14.123   1.485  1.00  0.00     0.046 A 
HETATM    8  H   UNL     1      38.723 -12.878   0.008  1.00  0.00     0.165 HD
HETATM    9  H   UNL     1      41.559 -15.690   0.178  1.00  0.00     0.170 HD
ENDROOT
BRANCH   7  10
HETATM   10  C   UNL     1      43.198 -14.855   1.992  1.00  0.00     0.177 C 
BRANCH  10  11
HETATM   11  N   UNL     1      42.947 -15.281   3.358  1.00  0.00    -0.384 N 
HETATM   12  H   UNL     1      43.075 -14.565   4.066  1.00  0.00     0.160 HD
BRANCH  11  13
HETATM   13  C   UNL     1      43.253 -16.571   3.781  1.00  0.00     0.029 A 
HETATM   14  C   UNL     1      43.235 -17.608   2.839  1.00  0.00     0.053 A 
HETATM   15  C   UNL     1      43.618 -18.913   3.179  1.00  0.00     0.042 A 
HETATM   16 CL   UNL     1      43.565 -20.118   1.940  1.00  0.00    -0.084 Cl
HETATM   17  C   UNL     1      44.040 -19.219   4.478  1.00  0.00    -0.040 A 
HETATM   18  C   UNL     1      44.484 -20.598   4.877  1.00  0.00     0.050 C 
HETATM   19  C   UNL     1      44.096 -18.181   5.414  1.00  0.00     0.011 A 
HETATM   20  C   UNL     1      43.717 -16.878   5.064  1.00  0.00     0.030 A 
ENDBRANCH  11  13
ENDBRANCH  10  11
ENDBRANCH   7  10
BRANCH   1  21
HETATM   21  C   UNL     1      42.265 -12.142   2.923  1.00  0.00     0.293 C 
HETATM   22  O   UNL     1      43.091 -11.281   2.673  1.00  0.00    -0.259 OA
BRANCH  21  23
HETATM   23  O   UNL     1      41.903 -12.551   4.166  1.00  0.00    -0.318 OA
BRANCH  23  24
HETATM   24  C   UNL     1      40.898 -11.750   4.809  1.00  0.00     0.174 C 
HETATM   25  C   UNL     1      39.912 -12.641   5.539  1.00  0.00     0.034 C 
ENDBRANCH  23  24
ENDBRANCH  21  23
ENDBRANCH   1  21
BRANCH   2  26
HETATM   26  C   UNL     1      40.500 -10.952   0.688  1.00  0.00    -0.031 A 
HETATM   27  C   UNL     1      40.055  -9.756   1.280  1.00  0.00     0.011 A 
HETATM   28  C   UNL     1      40.274  -8.528   0.652  1.00  0.00     0.024 A 
HETATM   29  C   UNL     1      40.935  -8.483  -0.572  1.00  0.00     0.034 A 
HETATM   30 CL   UNL     1      41.206  -6.970  -1.344  1.00  0.00    -0.084 Cl
HETATM   31  C   UNL     1      41.378  -9.657  -1.177  1.00  0.00     0.024 A 
HETATM   32  C   UNL     1      41.163 -10.886  -0.549  1.00  0.00     0.011 A 
ENDBRANCH   2  26
TORSDOF 7
ENDMDL
MODEL 8
REMARK VINA RESULT:      -7.7      3.617      5.303
REMARK  7 active torsions:
REMARK  status: ('A' for Active; 'I' for Inactive)
REMARK    1  A    between atoms: C_2  and  O_3 
REMARK    2  A    between atoms: O_3  and  C_4 
REMARK    3  A    between atoms: C_4  and  C_5 
REMARK    4  A    between atoms: C_6  and  C_7 
REMARK    5  A    between atoms: C_18  and  C_19 
REMARK    6  A    between atoms: C_19  and  N_20 
REMARK    7  A    between atoms: N_20  and  C_21 
ROOT
HETATM    1  C   UNL     1      42.947  -9.444   7.510  1.00  0.00     0.068 A 
HETATM    2  C   UNL     1      43.907  -8.734   8.423  1.00  0.00     0.161 A 
HETATM    3  N   UNL     1      45.258  -9.243   8.282  1.00  0.00    -0.330 N 
HETATM    4  C   UNL     1      45.617 -10.324   7.552  1.00  0.00     0.321 A 
HETATM    5  O   UNL     1      46.768 -10.744   7.547  1.00  0.00    -0.247 OA
HETATM    6  N   UNL     1      44.637 -10.908   6.812  1.00  0.00    -0.310 N 
HETATM    7  C   UNL     1      43.322 -10.490   6.746  1.00  0.00     0.046 A 
HETATM    8  H   UNL     1      45.996  -8.838   8.842  1.00  0.00     0.165 HD
HETATM    9  H   UNL     1      44.946 -11.697   6.254  1.00  0.00     0.170 HD
ENDROOT
BRANCH   7  10
HETATM   10  C   UNL     1      42.448 -11.253   5.770  1.00  0.00     0.177 C 
BRANCH  10  11
HETATM   11  N   UNL     1      41.910 -12.419   6.450  1.00  0.00    -0.384 N 
HETATM   12  H   UNL     1      41.647 -12.273   7.419  1.00  0.00     0.160 HD
BRANCH  11  13
HETATM   13  C   UNL     1      42.373 -13.701   6.165  1.00  0.00     0.029 A 
HETATM   14  C   UNL     1      41.821 -14.386   5.075  1.00  0.00     0.053 A 
HETATM   15  C   UNL     1      42.302 -15.643   4.680  1.00  0.00     0.042 A 
HETATM   16 CL   UNL     1      41.555 -16.401   3.317  1.00  0.00    -0.084 Cl
HETATM   17  C   UNL     1      43.362 -16.249   5.364  1.00  0.00    -0.040 A 
HETATM   18  C   UNL     1      43.925 -17.581   4.956  1.00  0.00     0.050 C 
HETATM   19  C   UNL     1      43.942 -15.554   6.429  1.00  0.00     0.011 A 
HETATM   20  C   UNL     1      43.459 -14.296   6.813  1.00  0.00     0.030 A 
ENDBRANCH  11  13
ENDBRANCH  10  11
ENDBRANCH   7  10
BRANCH   1  21
HETATM   21  C   UNL     1      41.548  -8.957   7.508  1.00  0.00     0.293 C 
HETATM   22  O   UNL     1      41.161  -7.954   6.934  1.00  0.00    -0.259 OA
BRANCH  21  23
HETATM   23  O   UNL     1      40.778  -9.782   8.262  1.00  0.00    -0.318 OA
BRANCH  23  24
HETATM   24  C   UNL     1      39.720  -9.140   8.991  1.00  0.00     0.174 C 
HETATM   25  C   UNL     1      39.730  -9.599  10.436  1.00  0.00     0.034 C 
ENDBRANCH  23  24
ENDBRANCH  21  23
ENDBRANCH   1  21
BRANCH   2  26
HETATM   26  C   UNL     1      43.501  -8.778   9.890  1.00  0.00    -0.031 A 
HETATM   27  C   UNL     1      43.078  -7.619  10.565  1.00  0.00     0.011 A 
HETATM   28  C   UNL     1      42.709  -7.673  11.911  1.00  0.00     0.024 A 
HETATM   29  C   UNL     1      42.763  -8.884  12.595  1.00  0.00     0.034 A 
HETATM   30 CL   UNL     1      42.306  -8.952  14.253  1.00  0.00    -0.084 Cl
HETATM   31  C   UNL     1      43.184 -10.042  11.947  1.00  0.00     0.024 A 
HETATM   32  C   UNL     1      43.551  -9.990  10.599  1.00  0.00     0.011 A 
ENDBRANCH   2  26
TORSDOF 7
ENDMDL
MODEL 9
REMARK VINA RESULT:      -7.6      2.956      4.415
REMARK  7 active torsions:
REMARK  status: ('A' for Active; 'I' for Inactive)
REMARK    1  A    between atoms: C_2  and  O_3 
REMARK    2  A    between atoms: O_3  and  C_4 
REMARK    3  A    between atoms: C_4  and  C_5 
REMARK    4  A    between atoms: C_6  and  C_7 
REMARK    5  A    between atoms: C_18  and  C_19 
REMARK    6  A    between atoms: C_19  and  N_20 
REMARK    7  A    between atoms: N_20  and  C_21 
ROOT
HETATM    1  C   UNL     1      41.103 -13.564   2.399  1.00  0.00     0.068 A 
HETATM    2  C   UNL     1      39.724 -13.083   2.046  1.00  0.00     0.161 A 
HETATM    3  N   UNL     1      39.252 -13.669   0.805  1.00  0.00    -0.330 N 
HETATM    4  C   UNL     1      39.993 -14.428  -0.035  1.00  0.00     0.321 A 
HETATM    5  O   UNL     1      39.549 -14.820  -1.108  1.00  0.00    -0.247 OA
HETATM    6  N   UNL     1      41.247 -14.746   0.382  1.00  0.00    -0.310 N 
HETATM    7  C   UNL     1      41.817 -14.362   1.580  1.00  0.00     0.046 A 
HETATM    8  H   UNL     1      38.331 -13.425   0.466  1.00  0.00     0.165 HD
HETATM    9  H   UNL     1      41.764 -15.340  -0.257  1.00  0.00     0.170 HD
ENDROOT
BRANCH   7  10
HETATM   10  C   UNL     1      43.197 -14.930   1.852  1.00  0.00     0.177 C 
BRANCH  10  11
HETATM   11  N   UNL     1      43.290 -15.253   3.265  1.00  0.00    -0.384 N 
HETATM   12  H   UNL     1      43.759 -14.560   3.839  1.00  0.00     0.160 HD
BRANCH  11  13
HETATM   13  C   UNL     1      43.455 -16.566   3.698  1.00  0.00     0.029 A 
HETATM   14  C   UNL     1      43.405 -17.596   2.749  1.00  0.00     0.053 A 
HETATM   15  C   UNL     1      43.649 -18.931   3.103  1.00  0.00     0.042 A 
HETATM   16 CL   UNL     1      43.569 -20.124   1.854  1.00  0.00    -0.084 Cl
HETATM   17  C   UNL     1      43.962 -19.274   4.423  1.00  0.00    -0.040 A 
HETATM   18  C   UNL     1      44.258 -20.687   4.839  1.00  0.00     0.050 C 
HETATM   19  C   UNL     1      44.050 -18.246   5.368  1.00  0.00     0.011 A 
HETATM   20  C   UNL     1      43.810 -16.915   5.004  1.00  0.00     0.030 A 
ENDBRANCH  11  13
ENDBRANCH  10  11
ENDBRANCH   7  10
BRANCH   1  21
HETATM   21  C   UNL     1      41.660 -13.095   3.689  1.00  0.00     0.293 C 
HETATM   22  O   UNL     1      41.303 -13.486   4.786  1.00  0.00    -0.259 OA
BRANCH  21  23
HETATM   23  O   UNL     1      42.606 -12.148   3.457  1.00  0.00    -0.318 OA
BRANCH  23  24
HETATM   24  C   UNL     1      42.839 -11.234   4.541  1.00  0.00     0.174 C 
HETATM   25  C   UNL     1      42.045  -9.961   4.328  1.00  0.00     0.034 C 
ENDBRANCH  23  24
ENDBRANCH  21  23
ENDBRANCH   1  21
BRANCH   2  26
HETATM   26  C   UNL     1      39.607 -11.566   1.965  1.00  0.00    -0.031 A 
HETATM   27  C   UNL     1      38.730 -10.857   2.804  1.00  0.00     0.011 A 
HETATM   28  C   UNL     1      38.633  -9.466   2.719  1.00  0.00     0.024 A 
HETATM   29  C   UNL     1      39.408  -8.773   1.793  1.00  0.00     0.034 A 
HETATM   30 CL   UNL     1      39.290  -7.060   1.690  1.00  0.00    -0.084 Cl
HETATM   31  C   UNL     1      40.278  -9.458   0.949  1.00  0.00     0.024 A 
HETATM   32  C   UNL     1      40.379 -10.849   1.035  1.00  0.00     0.011 A 
ENDBRANCH   2  26
TORSDOF 7
ENDMDL
MODEL 10
REMARK VINA RESULT:      -7.6      2.558      3.850
REMARK  7 active torsions:
REMARK  status: ('A' for Active; 'I' for Inactive)
REMARK    1  A    between atoms: C_2  and  O_3 
REMARK    2  A    between atoms: O_3  and  C_4 
REMARK    3  A    between atoms: C_4  and  C_5 
REMARK    4  A    between atoms: C_6  and  C_7 
REMARK    5  A    between atoms: C_18  and  C_19 
REMARK    6  A    between atoms: C_19  and  N_20 
REMARK    7  A    between atoms: N_20  and  C_21 
ROOT
HETATM    1  C   UNL     1      41.762 -12.971   4.636  1.00  0.00     0.068 A 
HETATM    2  C   UNL     1      41.300 -12.490   5.983  1.00  0.00     0.161 A 
HETATM    3  N   UNL     1      40.563 -13.516   6.696  1.00  0.00    -0.330 N 
HETATM    4  C   UNL     1      40.183 -14.709   6.182  1.00  0.00     0.321 A 
HETATM    5  O   UNL     1      39.490 -15.492   6.821  1.00  0.00    -0.247 OA
HETATM    6  N   UNL     1      40.625 -14.998   4.929  1.00  0.00    -0.310 N 
HETATM    7  C   UNL     1      41.421 -14.182   4.150  1.00  0.00     0.046 A 
HETATM    8  H   UNL     1      40.206 -13.312   7.619  1.00  0.00     0.165 HD
HETATM    9  H   UNL     1      40.347 -15.911   4.586  1.00  0.00     0.170 HD
ENDROOT
BRANCH   7  10
HETATM   10  C   UNL     1      41.858 -14.777   2.825  1.00  0.00     0.177 C 
BRANCH  10  11
HETATM   11  N   UNL     1      43.200 -15.312   2.981  1.00  0.00    -0.384 N 
HETATM   12  H   UNL     1      43.865 -15.029   2.269  1.00  0.00     0.160 HD
BRANCH  11  13
HETATM   13  C   UNL     1      43.415 -16.586   3.498  1.00  0.00     0.029 A 
HETATM   14  C   UNL     1      43.379 -17.679   2.622  1.00  0.00     0.053 A 
HETATM   15  C   UNL     1      43.673 -18.979   3.060  1.00  0.00     0.042 A 
HETATM   16 CL   UNL     1      43.606 -20.256   1.897  1.00  0.00    -0.084 Cl
HETATM   17  C   UNL     1      44.021 -19.222   4.394  1.00  0.00    -0.040 A 
HETATM   18  C   UNL     1      44.370 -20.593   4.897  1.00  0.00     0.050 C 
HETATM   19  C   UNL     1      44.095 -18.130   5.264  1.00  0.00     0.011 A 
HETATM   20  C   UNL     1      43.806 -16.834   4.817  1.00  0.00     0.030 A 
ENDBRANCH  11  13
ENDBRANCH  10  11
ENDBRANCH   7  10
BRANCH   1  21
HETATM   21  C   UNL     1      42.595 -12.035   3.845  1.00  0.00     0.293 C 
HETATM   22  O   UNL     1      42.168 -11.267   3.000  1.00  0.00    -0.259 OA
BRANCH  21  23
HETATM   23  O   UNL     1      43.899 -12.185   4.189  1.00  0.00    -0.318 OA
BRANCH  23  24
HETATM   24  C   UNL     1      44.369 -11.303   5.221  1.00  0.00     0.174 C 
HETATM   25  C   UNL     1      44.913 -12.107   6.386  1.00  0.00     0.034 C 
ENDBRANCH  23  24
ENDBRANCH  21  23
ENDBRANCH   1  21
BRANCH   2  26
HETATM   26  C   UNL     1      40.465 -11.217   5.924  1.00  0.00    -0.031 A 
HETATM   27  C   UNL     1      39.230 -11.186   5.253  1.00  0.00     0.011 A 
HETATM   28  C   UNL     1      38.474 -10.012   5.207  1.00  0.00     0.024 A 
HETATM   29  C   UNL     1      38.948  -8.859   5.827  1.00  0.00     0.034 A 
HETATM   30 CL   UNL     1      38.016  -7.413   5.773  1.00  0.00    -0.084 Cl
HETATM   31  C   UNL     1      40.171  -8.868   6.492  1.00  0.00     0.024 A 
HETATM   32  C   UNL     1      40.927 -10.043   6.542  1.00  0.00     0.011 A 
ENDBRANCH   2  26
TORSDOF 7
ENDMDL
