MODEL 1
REMARK VINA RESULT:      -8.4      0.000      0.000
REMARK  4 active torsions:
REMARK  status: ('A' for Active; 'I' for Inactive)
REMARK    1  A    between atoms: C_4  and  C_5 
REMARK    2  A    between atoms: C_9  and  C_10 
REMARK       I    between atoms: C_10  and  N_11 
REMARK    3  A    between atoms: N_11  and  C_12 
REMARK    4  A    between atoms: C_13  and  O_14 
ROOT
HETATM    1  C   UNL     1      42.629 -14.884   2.226  1.00  0.00     0.270 C 
HETATM    2  N   UNL     1      42.392 -15.770   3.244  1.00  0.00    -0.344 N 
HETATM    3  O   UNL     1      43.764 -14.596   1.861  1.00  0.00    -0.266 OA
HETATM    4  H   UNL     1      41.467 -15.858   3.638  1.00  0.00     0.163 HD
ENDROOT
BRANCH   1   5
HETATM    5  C   UNL     1      41.459 -14.290   1.644  1.00  0.00     0.120 A 
HETATM    6  N   UNL     1      40.577 -13.554   2.389  1.00  0.00    -0.272 N 
HETATM    7  N   UNL     1      39.545 -13.058   1.689  1.00  0.00    -0.173 NA
HETATM    8  H   UNL     1      40.635 -13.359   3.385  1.00  0.00     0.189 HD
HETATM    9  C   UNL     1      39.782 -13.457   0.433  1.00  0.00     0.096 A 
HETATM   10  C   UNL     1      40.958 -14.245   0.358  1.00  0.00     0.071 A 
BRANCH   9  11
HETATM   11  C   UNL     1      38.892 -13.069  -0.709  1.00  0.00     0.035 A 
HETATM   12  S   UNL     1      38.027 -11.599  -0.808  1.00  0.00    -0.093 SA
HETATM   13  C   UNL     1      37.314 -12.031  -2.301  1.00  0.00    -0.021 A 
HETATM   14  C   UNL     1      36.356 -11.111  -2.978  1.00  0.00     0.056 C 
HETATM   15  C   UNL     1      37.750 -13.267  -2.731  1.00  0.00     0.015 A 
HETATM   16  C   UNL     1      38.660 -13.868  -1.811  1.00  0.00     0.022 A 
ENDBRANCH   9  11
ENDBRANCH   1   5
BRANCH   2  17
HETATM   17  C   UNL     1      43.471 -16.487   3.891  1.00  0.00     0.147 C 
HETATM   18  C   UNL     1      43.342 -16.561   5.443  1.00  0.00     0.149 C 
HETATM   19  C   UNL     1      44.000 -17.888   5.864  1.00  0.00     0.073 C 
HETATM   20  C   UNL     1      43.802 -18.733   4.637  1.00  0.00    -0.047 A 
HETATM   21  C   UNL     1      43.505 -17.944   3.519  1.00  0.00    -0.027 A 
HETATM   22  C   UNL     1      43.928 -20.108   4.531  1.00  0.00     0.008 A 
HETATM   23  C   UNL     1      43.343 -18.522   2.268  1.00  0.00     0.010 A 
HETATM   24  C   UNL     1      43.453 -19.910   2.155  1.00  0.00     0.001 A 
HETATM   25  C   UNL     1      43.742 -20.697   3.280  1.00  0.00     0.001 A 
BRANCH  18  26
HETATM   26  O   UNL     1      41.967 -16.576   5.866  1.00  0.00    -0.393 OA
HETATM   27  H   UNL     1      41.847 -15.784   6.419  1.00  0.00     0.210 HD
ENDBRANCH  18  26
ENDBRANCH   2  17
TORSDOF 4
ENDMDL
MODEL 2
REMARK VINA RESULT:      -8.3      4.790      8.119
REMARK  4 active torsions:
REMARK  status: ('A' for Active; 'I' for Inactive)
REMARK    1  A    between atoms: C_4  and  C_5 
REMARK    2  A    between atoms: C_9  and  C_10 
REMARK       I    between atoms: C_10  and  N_11 
REMARK    3  A    between atoms: N_11  and  C_12 
REMARK    4  A    between atoms: C_13  and  O_14 
ROOT
HETATM    1  C   UNL     1      42.934 -12.732   3.366  1.00  0.00     0.270 C 
HETATM    2  N   UNL     1      43.028 -12.461   4.706  1.00  0.00    -0.344 N 
HETATM    3  O   UNL     1      42.723 -11.854   2.535  1.00  0.00    -0.266 OA
HETATM    4  H   UNL     1      43.028 -13.214   5.379  1.00  0.00     0.163 HD
ENDROOT
BRANCH   1   5
HETATM    5  C   UNL     1      43.063 -14.116   3.008  1.00  0.00     0.120 A 
HETATM    6  N   UNL     1      43.195 -14.515   1.705  1.00  0.00    -0.272 N 
HETATM    7  N   UNL     1      43.319 -15.842   1.545  1.00  0.00    -0.173 NA
HETATM    8  H   UNL     1      43.207 -13.917   0.884  1.00  0.00     0.189 HD
HETATM    9  C   UNL     1      43.302 -16.323   2.795  1.00  0.00     0.096 A 
HETATM   10  C   UNL     1      43.126 -15.284   3.743  1.00  0.00     0.071 A 
BRANCH   9  11
HETATM   11  C   UNL     1      43.474 -17.783   3.091  1.00  0.00     0.035 A 
HETATM   12  S   UNL     1      43.964 -18.414   4.600  1.00  0.00    -0.093 SA
HETATM   13  C   UNL     1      43.935 -20.024   4.021  1.00  0.00    -0.021 A 
HETATM   14  C   UNL     1      44.309 -21.157   4.913  1.00  0.00     0.056 C 
HETATM   15  C   UNL     1      43.530 -20.079   2.703  1.00  0.00     0.015 A 
HETATM   16  C   UNL     1      43.265 -18.785   2.165  1.00  0.00     0.022 A 
ENDBRANCH   9  11
ENDBRANCH   1   5
BRANCH   2  17
HETATM   17  C   UNL     1      42.970 -11.106   5.211  1.00  0.00     0.147 C 
HETATM   18  C   UNL     1      41.630 -10.752   5.926  1.00  0.00     0.149 C 
HETATM   19  C   UNL     1      41.984  -9.714   7.007  1.00  0.00     0.073 C 
HETATM   20  C   UNL     1      43.412 -10.064   7.316  1.00  0.00    -0.047 A 
HETATM   21  C   UNL     1      43.974 -10.849   6.302  1.00  0.00    -0.027 A 
HETATM   22  C   UNL     1      44.160  -9.662   8.409  1.00  0.00     0.008 A 
HETATM   23  C   UNL     1      45.305 -11.235   6.361  1.00  0.00     0.010 A 
HETATM   24  C   UNL     1      46.064 -10.847   7.468  1.00  0.00     0.001 A 
HETATM   25  C   UNL     1      45.494 -10.068   8.486  1.00  0.00     0.001 A 
BRANCH  18  26
HETATM   26  O   UNL     1      41.046 -11.900   6.567  1.00  0.00    -0.393 OA
HETATM   27  H   UNL     1      41.104 -11.732   7.524  1.00  0.00     0.210 HD
ENDBRANCH  18  26
ENDBRANCH   2  17
TORSDOF 4
ENDMDL
MODEL 3
REMARK VINA RESULT:      -8.1      5.287      7.929
REMARK  4 active torsions:
REMARK  status: ('A' for Active; 'I' for Inactive)
REMARK    1  A    between atoms: C_4  and  C_5 
REMARK    2  A    between atoms: C_9  and  C_10 
REMARK       I    between atoms: C_10  and  N_11 
REMARK    3  A    between atoms: N_11  and  C_12 
REMARK    4  A    between atoms: C_13  and  O_14 
ROOT
HETATM    1  C   UNL     1      42.406 -13.257   4.628  1.00  0.00     0.270 C 
HETATM    2  N   UNL     1      43.036 -14.441   4.345  1.00  0.00    -0.344 N 
HETATM    3  O   UNL     1      41.326 -12.956   4.130  1.00  0.00    -0.266 OA
HETATM    4  H   UNL     1      43.995 -14.587   4.627  1.00  0.00     0.163 HD
ENDROOT
BRANCH   1   5
HETATM    5  C   UNL     1      43.116 -12.381   5.517  1.00  0.00     0.120 A 
HETATM    6  N   UNL     1      44.117 -11.559   5.072  1.00  0.00    -0.272 N 
HETATM    7  N   UNL     1      44.666 -10.794   6.028  1.00  0.00    -0.173 NA
HETATM    8  H   UNL     1      44.463 -11.482   4.120  1.00  0.00     0.189 HD
HETATM    9  C   UNL     1      43.974 -11.105   7.131  1.00  0.00     0.096 A 
HETATM   10  C   UNL     1      43.005 -12.104   6.865  1.00  0.00     0.071 A 
BRANCH   9  11
HETATM   11  C   UNL     1      44.223 -10.429   8.447  1.00  0.00     0.035 A 
HETATM   12  S   UNL     1      43.001  -9.782   9.450  1.00  0.00    -0.093 SA
HETATM   13  C   UNL     1      44.137  -9.220  10.599  1.00  0.00    -0.021 A 
HETATM   14  C   UNL     1      43.686  -8.486  11.815  1.00  0.00     0.056 C 
HETATM   15  C   UNL     1      45.428  -9.546  10.235  1.00  0.00     0.015 A 
HETATM   16  C   UNL     1      45.477 -10.243   8.991  1.00  0.00     0.022 A 
ENDBRANCH   9  11
ENDBRANCH   1   5
BRANCH   2  17
HETATM   17  C   UNL     1      42.419 -15.446   3.507  1.00  0.00     0.147 C 
HETATM   18  C   UNL     1      42.632 -15.217   1.980  1.00  0.00     0.149 C 
HETATM   19  C   UNL     1      42.653 -16.617   1.337  1.00  0.00     0.073 C 
HETATM   20  C   UNL     1      43.155 -17.468   2.468  1.00  0.00    -0.047 A 
HETATM   21  C   UNL     1      43.022 -16.811   3.697  1.00  0.00    -0.027 A 
HETATM   22  C   UNL     1      43.650 -18.760   2.396  1.00  0.00     0.008 A 
HETATM   23  C   UNL     1      43.371 -17.446   4.881  1.00  0.00     0.010 A 
HETATM   24  C   UNL     1      43.887 -18.742   4.816  1.00  0.00     0.001 A 
HETATM   25  C   UNL     1      44.027 -19.394   3.581  1.00  0.00     0.001 A 
BRANCH  18  26
HETATM   26  O   UNL     1      43.886 -14.568   1.706  1.00  0.00    -0.393 OA
HETATM   27  H   UNL     1      44.551 -15.027   2.249  1.00  0.00     0.210 HD
ENDBRANCH  18  26
ENDBRANCH   2  17
TORSDOF 4
ENDMDL
MODEL 4
REMARK VINA RESULT:      -7.9      7.167      9.909
REMARK  4 active torsions:
REMARK  status: ('A' for Active; 'I' for Inactive)
REMARK    1  A    between atoms: C_4  and  C_5 
REMARK    2  A    between atoms: C_9  and  C_10 
REMARK       I    between atoms: C_10  and  N_11 
REMARK    3  A    between atoms: N_11  and  C_12 
REMARK    4  A    between atoms: C_13  and  O_14 
ROOT
HETATM    1  C   UNL     1      44.348 -11.152   7.901  1.00  0.00     0.270 C 
HETATM    2  N   UNL     1      43.492 -10.128   8.211  1.00  0.00    -0.344 N 
HETATM    3  O   UNL     1      45.530 -11.137   8.228  1.00  0.00    -0.266 OA
HETATM    4  H   UNL     1      42.577 -10.083   7.785  1.00  0.00     0.163 HD
ENDROOT
BRANCH   1   5
HETATM    5  C   UNL     1      43.774 -12.223   7.136  1.00  0.00     0.120 A 
HETATM    6  N   UNL     1      42.477 -12.184   6.702  1.00  0.00    -0.272 N 
HETATM    7  N   UNL     1      42.102 -13.258   5.989  1.00  0.00    -0.173 NA
HETATM    8  H   UNL     1      41.802 -11.443   6.867  1.00  0.00     0.189 HD
HETATM    9  C   UNL     1      43.209 -14.009   5.926  1.00  0.00     0.096 A 
HETATM   10  C   UNL     1      44.276 -13.412   6.643  1.00  0.00     0.071 A 
BRANCH   9  11
HETATM   11  C   UNL     1      43.258 -15.297   5.160  1.00  0.00     0.035 A 
HETATM   12  S   UNL     1      42.777 -15.473   3.531  1.00  0.00    -0.093 SA
HETATM   13  C   UNL     1      43.107 -17.152   3.537  1.00  0.00    -0.021 A 
HETATM   14  C   UNL     1      42.863 -17.977   2.320  1.00  0.00     0.056 C 
HETATM   15  C   UNL     1      43.602 -17.565   4.757  1.00  0.00     0.015 A 
HETATM   16  C   UNL     1      43.687 -16.494   5.695  1.00  0.00     0.022 A 
ENDBRANCH   9  11
ENDBRANCH   1   5
BRANCH   2  17
HETATM   17  C   UNL     1      43.914  -9.006   9.022  1.00  0.00     0.147 C 
HETATM   18  C   UNL     1      43.310  -7.639   8.577  1.00  0.00     0.149 C 
HETATM   19  C   UNL     1      43.181  -6.793   9.857  1.00  0.00     0.073 C 
HETATM   20  C   UNL     1      43.017  -7.851  10.911  1.00  0.00    -0.047 A 
HETATM   21  C   UNL     1      43.432  -9.103  10.444  1.00  0.00    -0.027 A 
HETATM   22  C   UNL     1      42.569  -7.683  12.211  1.00  0.00     0.008 A 
HETATM   23  C   UNL     1      43.420 -10.211  11.280  1.00  0.00     0.010 A 
HETATM   24  C   UNL     1      42.956 -10.054  12.588  1.00  0.00     0.001 A 
HETATM   25  C   UNL     1      42.531  -8.799  13.049  1.00  0.00     0.001 A 
BRANCH  18  26
HETATM   26  O   UNL     1      42.004  -7.795   7.996  1.00  0.00    -0.393 OA
HETATM   27  H   UNL     1      41.726  -8.705   8.200  1.00  0.00     0.210 HD
ENDBRANCH  18  26
ENDBRANCH   2  17
TORSDOF 4
ENDMDL
MODEL 5
REMARK VINA RESULT:      -7.6      7.033      9.366
REMARK  4 active torsions:
REMARK  status: ('A' for Active; 'I' for Inactive)
REMARK    1  A    between atoms: C_4  and  C_5 
REMARK    2  A    between atoms: C_9  and  C_10 
REMARK       I    between atoms: C_10  and  N_11 
REMARK    3  A    between atoms: N_11  and  C_12 
REMARK    4  A    between atoms: C_13  and  O_14 
ROOT
HETATM    1  C   UNL     1      44.157 -12.131   7.262  1.00  0.00     0.270 C 
HETATM    2  N   UNL     1      43.362 -13.241   7.147  1.00  0.00    -0.344 N 
HETATM    3  O   UNL     1      45.269 -12.067   6.746  1.00  0.00    -0.266 OA
HETATM    4  H   UNL     1      42.535 -13.336   7.719  1.00  0.00     0.163 HD
ENDROOT
BRANCH   1   5
HETATM    5  C   UNL     1      43.615 -11.066   8.057  1.00  0.00     0.120 A 
HETATM    6  N   UNL     1      42.490 -10.384   7.679  1.00  0.00    -0.272 N 
HETATM    7  N   UNL     1      42.108  -9.429   8.541  1.00  0.00    -0.173 NA
HETATM    8  H   UNL     1      41.942 -10.534   6.836  1.00  0.00     0.189 HD
HETATM    9  C   UNL     1      42.999  -9.515   9.537  1.00  0.00     0.096 A 
HETATM   10  C   UNL     1      43.971 -10.512   9.271  1.00  0.00     0.071 A 
BRANCH   9  11
HETATM   11  C   UNL     1      42.913  -8.654  10.761  1.00  0.00     0.035 A 
HETATM   12  S   UNL     1      42.162  -7.121  10.816  1.00  0.00    -0.093 SA
HETATM   13  C   UNL     1      42.572  -6.896  12.462  1.00  0.00    -0.021 A 
HETATM   14  C   UNL     1      42.191  -5.643  13.173  1.00  0.00     0.056 C 
HETATM   15  C   UNL     1      43.248  -7.987  12.968  1.00  0.00     0.015 A 
HETATM   16  C   UNL     1      43.447  -9.001  11.985  1.00  0.00     0.022 A 
ENDBRANCH   9  11
ENDBRANCH   1   5
BRANCH   2  17
HETATM   17  C   UNL     1      43.753 -14.372   6.334  1.00  0.00     0.147 C 
HETATM   18  C   UNL     1      43.791 -15.726   7.106  1.00  0.00     0.149 C 
HETATM   19  C   UNL     1      43.439 -16.815   6.076  1.00  0.00     0.073 C 
HETATM   20  C   UNL     1      42.587 -16.055   5.101  1.00  0.00    -0.047 A 
HETATM   21  C   UNL     1      42.763 -14.673   5.242  1.00  0.00    -0.027 A 
HETATM   22  C   UNL     1      41.750 -16.575   4.128  1.00  0.00     0.008 A 
HETATM   23  C   UNL     1      42.112 -13.786   4.396  1.00  0.00     0.010 A 
HETATM   24  C   UNL     1      41.254 -14.302   3.421  1.00  0.00     0.001 A 
HETATM   25  C   UNL     1      41.073 -15.687   3.290  1.00  0.00     0.001 A 
BRANCH  18  26
HETATM   26  O   UNL     1      42.819 -15.765   8.165  1.00  0.00    -0.393 OA
HETATM   27  H   UNL     1      42.251 -14.984   8.038  1.00  0.00     0.210 HD
ENDBRANCH  18  26
ENDBRANCH   2  17
TORSDOF 4
ENDMDL
MODEL 6
REMARK VINA RESULT:      -7.4      6.696      9.142
REMARK  4 active torsions:
REMARK  status: ('A' for Active; 'I' for Inactive)
REMARK    1  A    between atoms: C_4  and  C_5 
REMARK    2  A    between atoms: C_9  and  C_10 
REMARK       I    between atoms: C_10  and  N_11 
REMARK    3  A    between atoms: N_11  and  C_12 
REMARK    4  A    between atoms: C_13  and  O_14 
ROOT
HETATM    1  C   UNL     1      42.101 -10.789   6.104  1.00  0.00     0.270 C 
HETATM    2  N   UNL     1      42.071 -10.574   7.457  1.00  0.00    -0.344 N 
HETATM    3  O   UNL     1      42.069  -9.868   5.294  1.00  0.00    -0.266 OA
HETATM    4  H   UNL     1      41.924 -11.345   8.092  1.00  0.00     0.163 HD
ENDROOT
BRANCH   1   5
HETATM    5  C   UNL     1      42.136 -12.167   5.701  1.00  0.00     0.120 A 
HETATM    6  N   UNL     1      41.413 -13.127   6.355  1.00  0.00    -0.272 N 
HETATM    7  N   UNL     1      41.546 -14.361   5.844  1.00  0.00    -0.173 NA
HETATM    8  H   UNL     1      40.808 -12.991   7.161  1.00  0.00     0.189 HD
HETATM    9  C   UNL     1      42.361 -14.191   4.795  1.00  0.00     0.096 A 
HETATM   10  C   UNL     1      42.770 -12.840   4.676  1.00  0.00     0.071 A 
BRANCH   9  11
HETATM   11  C   UNL     1      42.738 -15.323   3.886  1.00  0.00     0.035 A 
HETATM   12  S   UNL     1      42.949 -16.941   4.390  1.00  0.00    -0.093 SA
HETATM   13  C   UNL     1      43.383 -17.454   2.817  1.00  0.00    -0.021 A 
HETATM   14  C   UNL     1      43.739 -18.877   2.555  1.00  0.00     0.056 C 
HETATM   15  C   UNL     1      43.340 -16.410   1.915  1.00  0.00     0.015 A 
HETATM   16  C   UNL     1      42.969 -15.179   2.533  1.00  0.00     0.022 A 
ENDBRANCH   9  11
ENDBRANCH   1   5
BRANCH   2  17
HETATM   17  C   UNL     1      42.087  -9.237   8.012  1.00  0.00     0.147 C 
HETATM   18  C   UNL     1      40.681  -8.702   8.419  1.00  0.00     0.149 C 
HETATM   19  C   UNL     1      40.913  -7.754   9.610  1.00  0.00     0.073 C 
HETATM   20  C   UNL     1      42.164  -8.321  10.218  1.00  0.00    -0.047 A 
HETATM   21  C   UNL     1      42.832  -9.159   9.316  1.00  0.00    -0.027 A 
HETATM   22  C   UNL     1      42.683  -8.062  11.475  1.00  0.00     0.008 A 
HETATM   23  C   UNL     1      44.045  -9.742   9.657  1.00  0.00     0.010 A 
HETATM   24  C   UNL     1      44.568  -9.498  10.929  1.00  0.00     0.001 A 
HETATM   25  C   UNL     1      43.890  -8.665  11.832  1.00  0.00     0.001 A 
BRANCH  18  26
HETATM   26  O   UNL     1      39.807  -9.764   8.842  1.00  0.00    -0.393 OA
HETATM   27  H   UNL     1      39.559 -10.246   8.034  1.00  0.00     0.210 HD
ENDBRANCH  18  26
ENDBRANCH   2  17
TORSDOF 4
ENDMDL
MODEL 7
REMARK VINA RESULT:      -7.2     14.824     17.590
REMARK  4 active torsions:
REMARK  status: ('A' for Active; 'I' for Inactive)
REMARK    1  A    between atoms: C_4  and  C_5 
REMARK    2  A    between atoms: C_9  and  C_10 
REMARK       I    between atoms: C_10  and  N_11 
REMARK    3  A    between atoms: N_11  and  C_12 
REMARK    4  A    between atoms: C_13  and  O_14 
ROOT
HETATM    1  C   UNL     1      44.825 -29.405   0.752  1.00  0.00     0.270 C 
HETATM    2  N   UNL     1      45.449 -29.218  -0.453  1.00  0.00    -0.344 N 
HETATM    3  O   UNL     1      43.615 -29.259   0.892  1.00  0.00    -0.266 OA
HETATM    4  H   UNL     1      46.457 -29.175  -0.503  1.00  0.00     0.163 HD
ENDROOT
BRANCH   1   5
HETATM    5  C   UNL     1      45.691 -29.749   1.845  1.00  0.00     0.120 A 
HETATM    6  N   UNL     1      45.202 -30.010   3.097  1.00  0.00    -0.272 N 
HETATM    7  N   UNL     1      46.142 -30.329   4.000  1.00  0.00    -0.173 NA
HETATM    8  H   UNL     1      44.229 -29.985   3.388  1.00  0.00     0.189 HD
HETATM    9  C   UNL     1      47.285 -30.308   3.301  1.00  0.00     0.096 A 
HETATM   10  C   UNL     1      47.055 -29.934   1.954  1.00  0.00     0.071 A 
BRANCH   9  11
HETATM   11  C   UNL     1      48.604 -30.667   3.916  1.00  0.00     0.035 A 
HETATM   12  S   UNL     1      48.835 -31.928   5.044  1.00  0.00    -0.093 SA
HETATM   13  C   UNL     1      50.502 -31.579   5.207  1.00  0.00    -0.021 A 
HETATM   14  C   UNL     1      51.356 -32.372   6.136  1.00  0.00     0.056 C 
HETATM   15  C   UNL     1      50.881 -30.533   4.391  1.00  0.00     0.015 A 
HETATM   16  C   UNL     1      49.784 -30.005   3.648  1.00  0.00     0.022 A 
ENDBRANCH   9  11
ENDBRANCH   1   5
BRANCH   2  17
HETATM   17  C   UNL     1      44.701 -28.920  -1.655  1.00  0.00     0.147 C 
HETATM   18  C   UNL     1      45.401 -27.898  -2.602  1.00  0.00     0.149 C 
HETATM   19  C   UNL     1      44.966 -28.271  -4.031  1.00  0.00     0.073 C 
HETATM   20  C   UNL     1      44.703 -29.744  -3.898  1.00  0.00    -0.047 A 
HETATM   21  C   UNL     1      44.550 -30.115  -2.557  1.00  0.00    -0.027 A 
HETATM   22  C   UNL     1      44.565 -30.671  -4.918  1.00  0.00     0.008 A 
HETATM   23  C   UNL     1      44.241 -31.424  -2.215  1.00  0.00     0.010 A 
HETATM   24  C   UNL     1      44.116 -32.368  -3.236  1.00  0.00     0.001 A 
HETATM   25  C   UNL     1      44.279 -31.994  -4.579  1.00  0.00     0.001 A 
BRANCH  18  26
HETATM   26  O   UNL     1      46.834 -27.988  -2.520  1.00  0.00    -0.393 OA
HETATM   27  H   UNL     1      47.174 -27.618  -3.353  1.00  0.00     0.210 HD
ENDBRANCH  18  26
ENDBRANCH   2  17
TORSDOF 4
ENDMDL
MODEL 8
REMARK VINA RESULT:      -7.0      7.577     10.123
REMARK  4 active torsions:
REMARK  status: ('A' for Active; 'I' for Inactive)
REMARK    1  A    between atoms: C_4  and  C_5 
REMARK    2  A    between atoms: C_9  and  C_10 
REMARK       I    between atoms: C_10  and  N_11 
REMARK    3  A    between atoms: N_11  and  C_12 
REMARK    4  A    between atoms: C_13  and  O_14 
ROOT
HETATM    1  C   UNL     1      42.168  -9.973   7.316  1.00  0.00     0.270 C 
HETATM    2  N   UNL     1      41.852  -9.972   8.650  1.00  0.00    -0.344 N 
HETATM    3  O   UNL     1      41.956  -9.006   6.593  1.00  0.00    -0.266 OA
HETATM    4  H   UNL     1      41.875 -10.831   9.179  1.00  0.00     0.163 HD
ENDROOT
BRANCH   1   5
HETATM    5  C   UNL     1      42.730 -11.198   6.820  1.00  0.00     0.120 A 
HETATM    6  N   UNL     1      43.988 -11.608   7.171  1.00  0.00    -0.272 N 
HETATM    7  N   UNL     1      44.356 -12.781   6.631  1.00  0.00    -0.173 NA
HETATM    8  H   UNL     1      44.639 -11.121   7.780  1.00  0.00     0.189 HD
HETATM    9  C   UNL     1      43.282 -13.166   5.928  1.00  0.00     0.096 A 
HETATM   10  C   UNL     1      42.248 -12.200   6.001  1.00  0.00     0.071 A 
BRANCH   9  11
HETATM   11  C   UNL     1      43.235 -14.474   5.196  1.00  0.00     0.035 A 
HETATM   12  S   UNL     1      42.793 -14.650   3.556  1.00  0.00    -0.093 SA
HETATM   13  C   UNL     1      42.963 -16.351   3.615  1.00  0.00    -0.021 A 
HETATM   14  C   UNL     1      42.682 -17.183   2.411  1.00  0.00     0.056 C 
HETATM   15  C   UNL     1      43.378 -16.775   4.861  1.00  0.00     0.015 A 
HETATM   16  C   UNL     1      43.533 -15.690   5.775  1.00  0.00     0.022 A 
ENDBRANCH   9  11
ENDBRANCH   1   5
BRANCH   2  17
HETATM   17  C   UNL     1      41.327  -8.792   9.302  1.00  0.00     0.147 C 
HETATM   18  C   UNL     1      39.808  -8.878   9.643  1.00  0.00     0.149 C 
HETATM   19  C   UNL     1      39.607  -8.033  10.915  1.00  0.00     0.073 C 
HETATM   20  C   UNL     1      40.955  -8.136  11.570  1.00  0.00    -0.047 A 
HETATM   21  C   UNL     1      41.931  -8.562  10.661  1.00  0.00    -0.027 A 
HETATM   22  C   UNL     1      41.283  -7.821  12.878  1.00  0.00     0.008 A 
HETATM   23  C   UNL     1      43.260  -8.666  11.046  1.00  0.00     0.010 A 
HETATM   24  C   UNL     1      43.597  -8.366  12.368  1.00  0.00     0.001 A 
HETATM   25  C   UNL     1      42.614  -7.948  13.278  1.00  0.00     0.001 A 
BRANCH  18  26
HETATM   26  O   UNL     1      39.397 -10.229   9.920  1.00  0.00    -0.393 OA
HETATM   27  H   UNL     1      39.388 -10.688   9.062  1.00  0.00     0.210 HD
ENDBRANCH  18  26
ENDBRANCH   2  17
TORSDOF 4
ENDMDL
MODEL 9
REMARK VINA RESULT:      -7.0     14.655     16.079
REMARK  4 active torsions:
REMARK  status: ('A' for Active; 'I' for Inactive)
REMARK    1  A    between atoms: C_4  and  C_5 
REMARK    2  A    between atoms: C_9  and  C_10 
REMARK       I    between atoms: C_10  and  N_11 
REMARK    3  A    between atoms: N_11  and  C_12 
REMARK    4  A    between atoms: C_13  and  O_14 
ROOT
HETATM    1  C   UNL     1      46.562 -28.780   1.530  1.00  0.00     0.270 C 
HETATM    2  N   UNL     1      46.622 -29.956   2.231  1.00  0.00    -0.344 N 
HETATM    3  O   UNL     1      46.858 -27.702   2.036  1.00  0.00    -0.266 OA
HETATM    4  H   UNL     1      46.211 -30.796   1.851  1.00  0.00     0.163 HD
ENDROOT
BRANCH   1   5
HETATM    5  C   UNL     1      46.094 -28.894   0.178  1.00  0.00     0.120 A 
HETATM    6  N   UNL     1      45.400 -27.884  -0.433  1.00  0.00    -0.272 N 
HETATM    7  N   UNL     1      45.049 -28.146  -1.701  1.00  0.00    -0.173 NA
HETATM    8  H   UNL     1      45.140 -26.991  -0.024  1.00  0.00     0.189 HD
HETATM    9  C   UNL     1      45.565 -29.359  -1.938  1.00  0.00     0.096 A 
HETATM   10  C   UNL     1      46.212 -29.875  -0.788  1.00  0.00     0.071 A 
BRANCH   9  11
HETATM   11  C   UNL     1      45.457 -30.025  -3.277  1.00  0.00     0.035 A 
HETATM   12  S   UNL     1      44.192 -29.757  -4.393  1.00  0.00    -0.093 SA
HETATM   13  C   UNL     1      44.832 -30.889  -5.505  1.00  0.00    -0.021 A 
HETATM   14  C   UNL     1      44.133 -31.166  -6.792  1.00  0.00     0.056 C 
HETATM   15  C   UNL     1      46.008 -31.442  -5.042  1.00  0.00     0.015 A 
HETATM   16  C   UNL     1      46.368 -30.945  -3.755  1.00  0.00     0.022 A 
ENDBRANCH   9  11
ENDBRANCH   1   5
BRANCH   2  17
HETATM   17  C   UNL     1      47.123 -30.004   3.588  1.00  0.00     0.147 C 
HETATM   18  C   UNL     1      46.557 -31.187   4.432  1.00  0.00     0.149 C 
HETATM   19  C   UNL     1      47.664 -31.565   5.433  1.00  0.00     0.073 C 
HETATM   20  C   UNL     1      48.904 -31.151   4.694  1.00  0.00    -0.047 A 
HETATM   21  C   UNL     1      48.603 -30.267   3.651  1.00  0.00    -0.027 A 
HETATM   22  C   UNL     1      50.212 -31.511   4.973  1.00  0.00     0.008 A 
HETATM   23  C   UNL     1      49.614 -29.714   2.877  1.00  0.00     0.010 A 
HETATM   24  C   UNL     1      50.935 -30.084   3.142  1.00  0.00     0.001 A 
HETATM   25  C   UNL     1      51.231 -30.978   4.182  1.00  0.00     0.001 A 
BRANCH  18  26
HETATM   26  O   UNL     1      46.265 -32.335   3.615  1.00  0.00    -0.393 OA
HETATM   27  H   UNL     1      45.780 -32.955   4.187  1.00  0.00     0.210 HD
ENDBRANCH  18  26
ENDBRANCH   2  17
TORSDOF 4
ENDMDL
MODEL 10
REMARK VINA RESULT:      -7.0      1.691      2.142
REMARK  4 active torsions:
REMARK  status: ('A' for Active; 'I' for Inactive)
REMARK    1  A    between atoms: C_4  and  C_5 
REMARK    2  A    between atoms: C_9  and  C_10 
REMARK       I    between atoms: C_10  and  N_11 
REMARK    3  A    between atoms: N_11  and  C_12 
REMARK    4  A    between atoms: C_13  and  O_14 
ROOT
HETATM    1  C   UNL     1      42.005 -13.144   1.910  1.00  0.00     0.270 C 
HETATM    2  N   UNL     1      42.068 -14.432   2.375  1.00  0.00    -0.344 N 
HETATM    3  O   UNL     1      42.678 -12.241   2.395  1.00  0.00    -0.266 OA
HETATM    4  H   UNL     1      41.385 -15.114   2.079  1.00  0.00     0.163 HD
ENDROOT
BRANCH   1   5
HETATM    5  C   UNL     1      41.069 -12.921   0.844  1.00  0.00     0.120 A 
HETATM    6  N   UNL     1      40.190 -13.890   0.441  1.00  0.00    -0.272 N 
HETATM    7  N   UNL     1      39.376 -13.514  -0.557  1.00  0.00    -0.173 NA
HETATM    8  H   UNL     1      40.105 -14.829   0.819  1.00  0.00     0.189 HD
HETATM    9  C   UNL     1      39.715 -12.240  -0.791  1.00  0.00     0.096 A 
HETATM   10  C   UNL     1      40.780 -11.830   0.048  1.00  0.00     0.071 A 
BRANCH   9  11
HETATM   11  C   UNL     1      39.004 -11.399  -1.809  1.00  0.00     0.035 A 
HETATM   12  S   UNL     1      37.306 -11.251  -1.928  1.00  0.00    -0.093 SA
HETATM   13  C   UNL     1      37.416 -10.223  -3.291  1.00  0.00    -0.021 A 
HETATM   14  C   UNL     1      36.185  -9.705  -3.951  1.00  0.00     0.056 C 
HETATM   15  C   UNL     1      38.730  -9.974  -3.632  1.00  0.00     0.015 A 
HETATM   16  C   UNL     1      39.647 -10.655  -2.777  1.00  0.00     0.022 A 
ENDBRANCH   9  11
ENDBRANCH   1   5
BRANCH   2  17
HETATM   17  C   UNL     1      43.002 -14.818   3.410  1.00  0.00     0.147 C 
HETATM   18  C   UNL     1      42.481 -14.571   4.859  1.00  0.00     0.149 C 
HETATM   19  C   UNL     1      43.126 -15.659   5.737  1.00  0.00     0.073 C 
HETATM   20  C   UNL     1      43.333 -16.771   4.748  1.00  0.00    -0.047 A 
HETATM   21  C   UNL     1      43.266 -16.299   3.431  1.00  0.00    -0.027 A 
HETATM   22  C   UNL     1      43.608 -18.101   5.020  1.00  0.00     0.008 A 
HETATM   23  C   UNL     1      43.489 -17.154   2.361  1.00  0.00     0.010 A 
HETATM   24  C   UNL     1      43.752 -18.500   2.626  1.00  0.00     0.001 A 
HETATM   25  C   UNL     1      43.809 -18.970   3.947  1.00  0.00     0.001 A 
BRANCH  18  26
HETATM   26  O   UNL     1      41.051 -14.701   4.943  1.00  0.00    -0.393 OA
HETATM   27  H   UNL     1      40.816 -14.490   5.863  1.00  0.00     0.210 HD
ENDBRANCH  18  26
ENDBRANCH   2  17
TORSDOF 4
ENDMDL
