MODEL 1
REMARK VINA RESULT:      -9.0      0.000      0.000
REMARK  5 active torsions:
REMARK  status: ('A' for Active; 'I' for Inactive)
REMARK    1  A    between atoms: C_4  and  N_5 
REMARK       I    between atoms: N_5  and  C_6 
REMARK       I    between atoms: C_6  and  N_7 
REMARK    2  A    between atoms: N_7  and  C_8 
REMARK    3  A    between atoms: C_8  and  C_9 
REMARK       I    between atoms: C_9  and  N_10 
REMARK    4  A    between atoms: N_10  and  C_11 
REMARK    5  A    between atoms: C_16  and  C_17 
ROOT
HETATM    1  C   UNL     1      42.400 -11.761   5.911  1.00  0.00     0.239 C 
HETATM    2  N   UNL     1      43.024 -11.910   7.138  1.00  0.00    -0.325 N 
HETATM    3  O   UNL     1      42.253 -10.719   5.279  1.00  0.00    -0.271 OA
HETATM    4  H   UNL     1      42.795 -12.776   7.628  1.00  0.00     0.169 HD
ENDROOT
BRANCH   1   5
HETATM    5  C   UNL     1      41.795 -13.074   5.403  1.00  0.00     0.227 C 
BRANCH   5   6
HETATM    6  N   UNL     1      42.817 -14.006   4.962  1.00  0.00    -0.334 N 
HETATM    7  C   UNL     1      42.489 -15.326   4.739  1.00  0.00     0.321 C 
HETATM    8  N   UNL     1      43.604 -16.055   4.405  1.00  0.00    -0.309 N 
HETATM    9  O   UNL     1      41.340 -15.732   4.861  1.00  0.00    -0.247 OA
HETATM   10  H   UNL     1      44.481 -15.636   4.675  1.00  0.00     0.170 HD
HETATM   11  H   UNL     1      43.526 -13.626   4.348  1.00  0.00     0.164 HD
BRANCH   8  12
HETATM   12  C   UNL     1      43.649 -17.397   3.980  1.00  0.00     0.036 A 
HETATM   13  C   UNL     1      44.030 -18.455   4.809  1.00  0.00     0.036 A 
HETATM   14  C   UNL     1      44.020 -19.778   4.337  1.00  0.00    -0.060 A 
HETATM   15  C   UNL     1      44.445 -20.903   5.233  1.00  0.00     0.048 C 
HETATM   16  C   UNL     1      43.658 -20.028   3.009  1.00  0.00     0.007 A 
HETATM   17  C   UNL     1      43.272 -18.978   2.177  1.00  0.00     0.003 A 
HETATM   18  C   UNL     1      43.256 -17.670   2.665  1.00  0.00     0.029 A 
ENDBRANCH   8  12
ENDBRANCH   5   6
ENDBRANCH   1   5
BRANCH   2  19
HETATM   19  C   UNL     1      43.828 -10.976   7.829  1.00  0.00     0.041 A 
HETATM   20  C   UNL     1      45.152 -10.765   7.389  1.00  0.00    -0.035 A 
HETATM   21  C   UNL     1      45.754 -11.536   6.244  1.00  0.00     0.050 C 
HETATM   22  C   UNL     1      45.949  -9.811   8.040  1.00  0.00     0.010 A 
HETATM   23  C   UNL     1      45.446  -9.066   9.106  1.00  0.00     0.016 A 
HETATM   24  C   UNL     1      44.134  -9.258   9.551  1.00  0.00     0.019 A 
HETATM   25  C   UNL     1      43.339 -10.220   8.904  1.00  0.00     0.046 A 
BRANCH  24  26
HETATM   26  C   UNL     1      43.576  -8.478  10.655  1.00  0.00     0.179 A 
HETATM   27  O   UNL     1      43.798  -8.955  11.925  1.00  0.00    -0.302 OA
HETATM   28  C   UNL     1      43.189  -8.046  12.735  1.00  0.00     0.163 A 
HETATM   29  C   UNL     1      42.633  -7.076  11.943  1.00  0.00     0.144 A 
HETATM   30  N   UNL     1      42.885  -7.354  10.623  1.00  0.00    -0.234 NA
ENDBRANCH  24  26
ENDBRANCH   2  19
TORSDOF 5
ENDMDL
MODEL 2
REMARK VINA RESULT:      -8.9      5.101      8.256
REMARK  5 active torsions:
REMARK  status: ('A' for Active; 'I' for Inactive)
REMARK    1  A    between atoms: C_4  and  N_5 
REMARK       I    between atoms: N_5  and  C_6 
REMARK       I    between atoms: C_6  and  N_7 
REMARK    2  A    between atoms: N_7  and  C_8 
REMARK    3  A    between atoms: C_8  and  C_9 
REMARK       I    between atoms: C_9  and  N_10 
REMARK    4  A    between atoms: N_10  and  C_11 
REMARK    5  A    between atoms: C_16  and  C_17 
ROOT
HETATM    1  C   UNL     1      40.820 -13.221   3.791  1.00  0.00     0.239 C 
HETATM    2  N   UNL     1      41.481 -13.598   2.634  1.00  0.00    -0.325 N 
HETATM    3  O   UNL     1      39.779 -12.577   3.870  1.00  0.00    -0.271 OA
HETATM    4  H   UNL     1      42.457 -13.865   2.771  1.00  0.00     0.169 HD
ENDROOT
BRANCH   1   5
HETATM    5  C   UNL     1      41.583 -13.629   5.055  1.00  0.00     0.227 C 
BRANCH   5   6
HETATM    6  N   UNL     1      42.653 -14.566   4.764  1.00  0.00    -0.334 N 
HETATM    7  C   UNL     1      42.396 -15.920   4.761  1.00  0.00     0.321 C 
HETATM    8  N   UNL     1      43.548 -16.635   4.542  1.00  0.00    -0.309 N 
HETATM    9  O   UNL     1      41.269 -16.360   4.955  1.00  0.00    -0.247 OA
HETATM   10  H   UNL     1      44.401 -16.131   4.734  1.00  0.00     0.170 HD
HETATM   11  H   UNL     1      43.342 -14.254   4.092  1.00  0.00     0.164 HD
BRANCH   8  12
HETATM   12  C   UNL     1      43.664 -18.023   4.340  1.00  0.00     0.036 A 
HETATM   13  C   UNL     1      43.615 -18.625   3.079  1.00  0.00     0.036 A 
HETATM   14  C   UNL     1      43.775 -20.014   2.940  1.00  0.00    -0.060 A 
HETATM   15  C   UNL     1      43.706 -20.649   1.583  1.00  0.00     0.048 C 
HETATM   16  C   UNL     1      43.948 -20.801   4.082  1.00  0.00     0.007 A 
HETATM   17  C   UNL     1      44.002 -20.207   5.343  1.00  0.00     0.003 A 
HETATM   18  C   UNL     1      43.872 -18.824   5.468  1.00  0.00     0.029 A 
ENDBRANCH   8  12
ENDBRANCH   5   6
ENDBRANCH   1   5
BRANCH   2  19
HETATM   19  C   UNL     1      41.013 -13.544   1.303  1.00  0.00     0.041 A 
HETATM   20  C   UNL     1      40.297 -14.648   0.792  1.00  0.00    -0.035 A 
HETATM   21  C   UNL     1      40.061 -15.899   1.596  1.00  0.00     0.050 C 
HETATM   22  C   UNL     1      39.790 -14.593  -0.515  1.00  0.00     0.010 A 
HETATM   23  C   UNL     1      39.976 -13.460  -1.308  1.00  0.00     0.016 A 
HETATM   24  C   UNL     1      40.677 -12.355  -0.815  1.00  0.00     0.019 A 
HETATM   25  C   UNL     1      41.192 -12.414   0.492  1.00  0.00     0.046 A 
BRANCH  24  26
HETATM   26  C   UNL     1      40.871 -11.149  -1.618  1.00  0.00     0.179 A 
HETATM   27  O   UNL     1      40.435 -11.195  -2.921  1.00  0.00    -0.302 OA
HETATM   28  C   UNL     1      40.726  -9.960  -3.415  1.00  0.00     0.163 A 
HETATM   29  C   UNL     1      41.317  -9.232  -2.417  1.00  0.00     0.144 A 
HETATM   30  N   UNL     1      41.403  -9.990  -1.277  1.00  0.00    -0.234 NA
ENDBRANCH  24  26
ENDBRANCH   2  19
TORSDOF 5
ENDMDL
MODEL 3
REMARK VINA RESULT:      -8.7      1.874     10.197
REMARK  5 active torsions:
REMARK  status: ('A' for Active; 'I' for Inactive)
REMARK    1  A    between atoms: C_4  and  N_5 
REMARK       I    between atoms: N_5  and  C_6 
REMARK       I    between atoms: C_6  and  N_7 
REMARK    2  A    between atoms: N_7  and  C_8 
REMARK    3  A    between atoms: C_8  and  C_9 
REMARK       I    between atoms: C_9  and  N_10 
REMARK    4  A    between atoms: N_10  and  C_11 
REMARK    5  A    between atoms: C_16  and  C_17 
ROOT
HETATM    1  C   UNL     1      44.267 -12.055   6.646  1.00  0.00     0.239 C 
HETATM    2  N   UNL     1      43.461 -13.130   6.983  1.00  0.00    -0.325 N 
HETATM    3  O   UNL     1      44.686 -11.769   5.530  1.00  0.00    -0.271 OA
HETATM    4  H   UNL     1      43.460 -13.363   7.977  1.00  0.00     0.169 HD
ENDROOT
BRANCH   1   5
HETATM    5  C   UNL     1      44.689 -11.238   7.872  1.00  0.00     0.227 C 
BRANCH   5   6
HETATM    6  N   UNL     1      43.546 -10.672   8.565  1.00  0.00    -0.334 N 
HETATM    7  C   UNL     1      43.612 -10.450   9.924  1.00  0.00     0.321 C 
HETATM    8  N   UNL     1      42.410  -9.985  10.400  1.00  0.00    -0.309 N 
HETATM    9  O   UNL     1      44.631 -10.677  10.564  1.00  0.00    -0.247 OA
HETATM   10  H   UNL     1      41.617 -10.176   9.806  1.00  0.00     0.170 HD
HETATM   11  H   UNL     1      43.002  -9.999   8.042  1.00  0.00     0.164 HD
BRANCH   8  12
HETATM   12  C   UNL     1      42.129  -9.524  11.701  1.00  0.00     0.036 A 
HETATM   13  C   UNL     1      42.882  -8.540  12.348  1.00  0.00     0.036 A 
HETATM   14  C   UNL     1      42.529  -8.095  13.633  1.00  0.00    -0.060 A 
HETATM   15  C   UNL     1      43.354  -7.049  14.322  1.00  0.00     0.048 C 
HETATM   16  C   UNL     1      41.432  -8.673  14.280  1.00  0.00     0.007 A 
HETATM   17  C   UNL     1      40.674  -9.651  13.639  1.00  0.00     0.003 A 
HETATM   18  C   UNL     1      41.015 -10.065  12.350  1.00  0.00     0.029 A 
ENDBRANCH   8  12
ENDBRANCH   5   6
ENDBRANCH   1   5
BRANCH   2  19
HETATM   19  C   UNL     1      42.751 -13.994   6.121  1.00  0.00     0.041 A 
HETATM   20  C   UNL     1      41.460 -13.616   5.696  1.00  0.00    -0.035 A 
HETATM   21  C   UNL     1      40.791 -12.352   6.170  1.00  0.00     0.050 C 
HETATM   22  C   UNL     1      40.758 -14.445   4.807  1.00  0.00     0.010 A 
HETATM   23  C   UNL     1      41.326 -15.627   4.333  1.00  0.00     0.016 A 
HETATM   24  C   UNL     1      42.607 -16.014   4.739  1.00  0.00     0.019 A 
HETATM   25  C   UNL     1      43.306 -15.187   5.636  1.00  0.00     0.046 A 
BRANCH  24  26
HETATM   26  C   UNL     1      43.232 -17.239   4.244  1.00  0.00     0.179 A 
HETATM   27  O   UNL     1      43.946 -17.983   5.155  1.00  0.00    -0.302 OA
HETATM   28  C   UNL     1      44.397 -19.048   4.437  1.00  0.00     0.163 A 
HETATM   29  C   UNL     1      43.951 -18.911   3.148  1.00  0.00     0.144 A 
HETATM   30  N   UNL     1      43.210 -17.763   3.032  1.00  0.00    -0.234 NA
ENDBRANCH  24  26
ENDBRANCH   2  19
TORSDOF 5
ENDMDL
MODEL 4
REMARK VINA RESULT:      -8.6      4.510      9.047
REMARK  5 active torsions:
REMARK  status: ('A' for Active; 'I' for Inactive)
REMARK    1  A    between atoms: C_4  and  N_5 
REMARK       I    between atoms: N_5  and  C_6 
REMARK       I    between atoms: C_6  and  N_7 
REMARK    2  A    between atoms: N_7  and  C_8 
REMARK    3  A    between atoms: C_8  and  C_9 
REMARK       I    between atoms: C_9  and  N_10 
REMARK    4  A    between atoms: N_10  and  C_11 
REMARK    5  A    between atoms: C_16  and  C_17 
ROOT
HETATM    1  C   UNL     1      40.548 -14.088   5.251  1.00  0.00     0.239 C 
HETATM    2  N   UNL     1      41.714 -14.387   4.566  1.00  0.00    -0.325 N 
HETATM    3  O   UNL     1      40.032 -14.743   6.151  1.00  0.00    -0.271 OA
HETATM    4  H   UNL     1      41.822 -13.894   3.678  1.00  0.00     0.169 HD
ENDROOT
BRANCH   1   5
HETATM    5  C   UNL     1      39.861 -12.831   4.708  1.00  0.00     0.227 C 
BRANCH   5   6
HETATM    6  N   UNL     1      39.216 -13.075   3.430  1.00  0.00    -0.334 N 
HETATM    7  C   UNL     1      39.884 -12.781   2.260  1.00  0.00     0.321 C 
HETATM    8  N   UNL     1      39.080 -13.008   1.170  1.00  0.00    -0.309 N 
HETATM    9  O   UNL     1      41.033 -12.357   2.265  1.00  0.00    -0.247 OA
HETATM   10  H   UNL     1      38.091 -13.032   1.371  1.00  0.00     0.170 HD
HETATM   11  H   UNL     1      38.606 -13.880   3.389  1.00  0.00     0.164 HD
BRANCH   8  12
HETATM   12  C   UNL     1      39.448 -12.950  -0.188  1.00  0.00     0.036 A 
HETATM   13  C   UNL     1      39.614 -11.753  -0.891  1.00  0.00     0.036 A 
HETATM   14  C   UNL     1      40.019 -11.760  -2.236  1.00  0.00    -0.060 A 
HETATM   15  C   UNL     1      40.179 -10.470  -2.982  1.00  0.00     0.048 C 
HETATM   16  C   UNL     1      40.221 -12.983  -2.883  1.00  0.00     0.007 A 
HETATM   17  C   UNL     1      40.062 -14.181  -2.188  1.00  0.00     0.003 A 
HETATM   18  C   UNL     1      39.689 -14.163  -0.843  1.00  0.00     0.029 A 
ENDBRANCH   8  12
ENDBRANCH   5   6
ENDBRANCH   1   5
BRANCH   2  19
HETATM   19  C   UNL     1      42.690 -15.356   4.884  1.00  0.00     0.041 A 
HETATM   20  C   UNL     1      43.591 -15.090   5.937  1.00  0.00    -0.035 A 
HETATM   21  C   UNL     1      43.583 -13.790   6.697  1.00  0.00     0.050 C 
HETATM   22  C   UNL     1      44.541 -16.060   6.291  1.00  0.00     0.010 A 
HETATM   23  C   UNL     1      44.596 -17.284   5.624  1.00  0.00     0.016 A 
HETATM   24  C   UNL     1      43.707 -17.566   4.582  1.00  0.00     0.019 A 
HETATM   25  C   UNL     1      42.762 -16.590   4.222  1.00  0.00     0.046 A 
BRANCH  24  26
HETATM   26  C   UNL     1      43.732 -18.847   3.877  1.00  0.00     0.179 A 
HETATM   27  O   UNL     1      43.404 -18.827   2.542  1.00  0.00    -0.302 OA
HETATM   28  C   UNL     1      43.520 -20.125   2.149  1.00  0.00     0.163 A 
HETATM   29  C   UNL     1      43.902 -20.866   3.236  1.00  0.00     0.144 A 
HETATM   30  N   UNL     1      44.039 -20.049   4.330  1.00  0.00    -0.234 NA
ENDBRANCH  24  26
ENDBRANCH   2  19
TORSDOF 5
ENDMDL
MODEL 5
REMARK VINA RESULT:      -8.4      1.507      2.124
REMARK  5 active torsions:
REMARK  status: ('A' for Active; 'I' for Inactive)
REMARK    1  A    between atoms: C_4  and  N_5 
REMARK       I    between atoms: N_5  and  C_6 
REMARK       I    between atoms: C_6  and  N_7 
REMARK    2  A    between atoms: N_7  and  C_8 
REMARK    3  A    between atoms: C_8  and  C_9 
REMARK       I    between atoms: C_9  and  N_10 
REMARK    4  A    between atoms: N_10  and  C_11 
REMARK    5  A    between atoms: C_16  and  C_17 
ROOT
HETATM    1  C   UNL     1      42.164 -10.360   6.134  1.00  0.00     0.239 C 
HETATM    2  N   UNL     1      42.826 -11.155   7.056  1.00  0.00    -0.325 N 
HETATM    3  O   UNL     1      42.009  -9.144   6.184  1.00  0.00    -0.271 OA
HETATM    4  H   UNL     1      42.602 -12.149   6.996  1.00  0.00     0.169 HD
ENDROOT
BRANCH   1   5
HETATM    5  C   UNL     1      41.528 -11.182   5.009  1.00  0.00     0.227 C 
BRANCH   5   6
HETATM    6  N   UNL     1      41.462 -12.595   5.340  1.00  0.00    -0.334 N 
HETATM    7  C   UNL     1      42.323 -13.481   4.728  1.00  0.00     0.321 C 
HETATM    8  N   UNL     1      42.050 -14.770   5.116  1.00  0.00    -0.309 N 
HETATM    9  O   UNL     1      43.180 -13.104   3.939  1.00  0.00    -0.247 OA
HETATM   10  H   UNL     1      41.126 -14.912   5.496  1.00  0.00     0.170 HD
HETATM   11  H   UNL     1      41.224 -12.813   6.298  1.00  0.00     0.164 HD
BRANCH   8  12
HETATM   12  C   UNL     1      42.793 -15.927   4.811  1.00  0.00     0.036 A 
HETATM   13  C   UNL     1      42.534 -16.738   3.701  1.00  0.00     0.036 A 
HETATM   14  C   UNL     1      43.335 -17.859   3.430  1.00  0.00    -0.060 A 
HETATM   15  C   UNL     1      43.038 -18.729   2.244  1.00  0.00     0.048 C 
HETATM   16  C   UNL     1      44.377 -18.185   4.304  1.00  0.00     0.007 A 
HETATM   17  C   UNL     1      44.643 -17.379   5.410  1.00  0.00     0.003 A 
HETATM   18  C   UNL     1      43.861 -16.249   5.654  1.00  0.00     0.029 A 
ENDBRANCH   8  12
ENDBRANCH   5   6
ENDBRANCH   1   5
BRANCH   2  19
HETATM   19  C   UNL     1      43.662 -10.749   8.119  1.00  0.00     0.041 A 
HETATM   20  C   UNL     1      45.056 -10.710   7.907  1.00  0.00    -0.035 A 
HETATM   21  C   UNL     1      45.688 -11.135   6.607  1.00  0.00     0.050 C 
HETATM   22  C   UNL     1      45.897 -10.269   8.940  1.00  0.00     0.010 A 
HETATM   23  C   UNL     1      45.370  -9.862  10.166  1.00  0.00     0.016 A 
HETATM   24  C   UNL     1      43.990  -9.889  10.391  1.00  0.00     0.019 A 
HETATM   25  C   UNL     1      43.150 -10.338   9.358  1.00  0.00     0.046 A 
BRANCH  24  26
HETATM   26  C   UNL     1      43.411  -9.451  11.660  1.00  0.00     0.179 A 
HETATM   27  O   UNL     1      43.609  -8.137  12.012  1.00  0.00    -0.302 OA
HETATM   28  C   UNL     1      42.966  -8.008  13.205  1.00  0.00     0.163 A 
HETATM   29  C   UNL     1      42.417  -9.222  13.524  1.00  0.00     0.144 A 
HETATM   30  N   UNL     1      42.699 -10.133  12.538  1.00  0.00    -0.234 NA
ENDBRANCH  24  26
ENDBRANCH   2  19
TORSDOF 5
ENDMDL
MODEL 6
REMARK VINA RESULT:      -8.2      4.844      9.166
REMARK  5 active torsions:
REMARK  status: ('A' for Active; 'I' for Inactive)
REMARK    1  A    between atoms: C_4  and  N_5 
REMARK       I    between atoms: N_5  and  C_6 
REMARK       I    between atoms: C_6  and  N_7 
REMARK    2  A    between atoms: N_7  and  C_8 
REMARK    3  A    between atoms: C_8  and  C_9 
REMARK       I    between atoms: C_9  and  N_10 
REMARK    4  A    between atoms: N_10  and  C_11 
REMARK    5  A    between atoms: C_16  and  C_17 
ROOT
HETATM    1  C   UNL     1      42.552 -12.929   3.630  1.00  0.00     0.239 C 
HETATM    2  N   UNL     1      42.243 -13.899   4.568  1.00  0.00    -0.325 N 
HETATM    3  O   UNL     1      43.613 -12.793   3.031  1.00  0.00    -0.271 OA
HETATM    4  H   UNL     1      41.437 -13.678   5.156  1.00  0.00     0.169 HD
ENDROOT
BRANCH   1   5
HETATM    5  C   UNL     1      41.415 -11.919   3.441  1.00  0.00     0.227 C 
BRANCH   5   6
HETATM    6  N   UNL     1      41.169 -11.636   2.038  1.00  0.00    -0.334 N 
HETATM    7  C   UNL     1      40.160 -12.297   1.373  1.00  0.00     0.321 C 
HETATM    8  N   UNL     1      40.141 -11.948   0.045  1.00  0.00    -0.309 N 
HETATM    9  O   UNL     1      39.426 -13.093   1.946  1.00  0.00    -0.247 OA
HETATM   10  H   UNL     1      41.002 -11.551  -0.301  1.00  0.00     0.170 HD
HETATM   11  H   UNL     1      41.327 -10.680   1.747  1.00  0.00     0.164 HD
BRANCH   8  12
HETATM   12  C   UNL     1      39.180 -12.310  -0.919  1.00  0.00     0.036 A 
HETATM   13  C   UNL     1      39.230 -13.503  -1.646  1.00  0.00     0.036 A 
HETATM   14  C   UNL     1      38.220 -13.825  -2.568  1.00  0.00    -0.060 A 
HETATM   15  C   UNL     1      38.293 -15.101  -3.352  1.00  0.00     0.048 C 
HETATM   16  C   UNL     1      37.176 -12.920  -2.783  1.00  0.00     0.007 A 
HETATM   17  C   UNL     1      37.117 -11.730  -2.058  1.00  0.00     0.003 A 
HETATM   18  C   UNL     1      38.108 -11.433  -1.122  1.00  0.00     0.029 A 
ENDBRANCH   8  12
ENDBRANCH   5   6
ENDBRANCH   1   5
BRANCH   2  19
HETATM   19  C   UNL     1      42.963 -15.073   4.881  1.00  0.00     0.041 A 
HETATM   20  C   UNL     1      43.694 -15.118   6.087  1.00  0.00    -0.035 A 
HETATM   21  C   UNL     1      43.776 -13.943   7.026  1.00  0.00     0.050 C 
HETATM   22  C   UNL     1      44.381 -16.292   6.431  1.00  0.00     0.010 A 
HETATM   23  C   UNL     1      44.341 -17.413   5.602  1.00  0.00     0.016 A 
HETATM   24  C   UNL     1      43.617 -17.387   4.406  1.00  0.00     0.019 A 
HETATM   25  C   UNL     1      42.935 -16.208   4.058  1.00  0.00     0.046 A 
BRANCH  24  26
HETATM   26  C   UNL     1      43.544 -18.554   3.527  1.00  0.00     0.179 A 
HETATM   27  O   UNL     1      44.117 -19.715   3.990  1.00  0.00    -0.302 OA
HETATM   28  C   UNL     1      43.896 -20.617   2.994  1.00  0.00     0.163 A 
HETATM   29  C   UNL     1      43.215 -19.982   1.989  1.00  0.00     0.144 A 
HETATM   30  N   UNL     1      42.991 -18.673   2.334  1.00  0.00    -0.234 NA
ENDBRANCH  24  26
ENDBRANCH   2  19
TORSDOF 5
ENDMDL
MODEL 7
REMARK VINA RESULT:      -8.1      2.088      9.784
REMARK  5 active torsions:
REMARK  status: ('A' for Active; 'I' for Inactive)
REMARK    1  A    between atoms: C_4  and  N_5 
REMARK       I    between atoms: N_5  and  C_6 
REMARK       I    between atoms: C_6  and  N_7 
REMARK    2  A    between atoms: N_7  and  C_8 
REMARK    3  A    between atoms: C_8  and  C_9 
REMARK       I    between atoms: C_9  and  N_10 
REMARK    4  A    between atoms: N_10  and  C_11 
REMARK    5  A    between atoms: C_16  and  C_17 
ROOT
HETATM    1  C   UNL     1      41.772 -13.486   4.474  1.00  0.00     0.239 C 
HETATM    2  N   UNL     1      42.984 -14.125   4.672  1.00  0.00    -0.325 N 
HETATM    3  O   UNL     1      40.662 -14.006   4.423  1.00  0.00    -0.271 OA
HETATM    4  H   UNL     1      43.801 -13.578   4.397  1.00  0.00     0.169 HD
ENDROOT
BRANCH   1   5
HETATM    5  C   UNL     1      41.941 -11.983   4.228  1.00  0.00     0.227 C 
BRANCH   5   6
HETATM    6  N   UNL     1      43.010 -11.419   5.032  1.00  0.00    -0.334 N 
HETATM    7  C   UNL     1      42.733 -10.922   6.288  1.00  0.00     0.321 C 
HETATM    8  N   UNL     1      43.855 -10.367   6.851  1.00  0.00    -0.309 N 
HETATM    9  O   UNL     1      41.608 -10.984   6.770  1.00  0.00    -0.247 OA
HETATM   10  H   UNL     1      44.579 -10.116   6.193  1.00  0.00     0.170 HD
HETATM   11  H   UNL     1      43.917 -11.854   4.929  1.00  0.00     0.164 HD
BRANCH   8  12
HETATM   12  C   UNL     1      43.999  -9.881   8.165  1.00  0.00     0.036 A 
HETATM   13  C   UNL     1      43.219  -8.850   8.695  1.00  0.00     0.036 A 
HETATM   14  C   UNL     1      43.385  -8.434  10.026  1.00  0.00    -0.060 A 
HETATM   15  C   UNL     1      42.551  -7.317  10.578  1.00  0.00     0.048 C 
HETATM   16  C   UNL     1      44.371  -9.039  10.814  1.00  0.00     0.007 A 
HETATM   17  C   UNL     1      45.150 -10.071  10.294  1.00  0.00     0.003 A 
HETATM   18  C   UNL     1      44.956 -10.497   8.979  1.00  0.00     0.029 A 
ENDBRANCH   8  12
ENDBRANCH   5   6
ENDBRANCH   1   5
BRANCH   2  19
HETATM   19  C   UNL     1      43.213 -15.455   5.088  1.00  0.00     0.041 A 
HETATM   20  C   UNL     1      43.290 -15.729   6.470  1.00  0.00    -0.035 A 
HETATM   21  C   UNL     1      43.189 -14.647   7.514  1.00  0.00     0.050 C 
HETATM   22  C   UNL     1      43.476 -17.051   6.900  1.00  0.00     0.010 A 
HETATM   23  C   UNL     1      43.575 -18.095   5.980  1.00  0.00     0.016 A 
HETATM   24  C   UNL     1      43.495 -17.842   4.607  1.00  0.00     0.019 A 
HETATM   25  C   UNL     1      43.317 -16.516   4.177  1.00  0.00     0.046 A 
BRANCH  24  26
HETATM   26  C   UNL     1      43.579 -18.920   3.621  1.00  0.00     0.179 A 
HETATM   27  O   UNL     1      43.957 -20.157   4.087  1.00  0.00    -0.302 OA
HETATM   28  C   UNL     1      43.939 -20.950   2.980  1.00  0.00     0.163 A 
HETATM   29  C   UNL     1      43.563 -20.180   1.912  1.00  0.00     0.144 A 
HETATM   30  N   UNL     1      43.331 -18.893   2.325  1.00  0.00    -0.234 NA
ENDBRANCH  24  26
ENDBRANCH   2  19
TORSDOF 5
ENDMDL
MODEL 8
REMARK VINA RESULT:      -8.1      2.086     10.045
REMARK  5 active torsions:
REMARK  status: ('A' for Active; 'I' for Inactive)
REMARK    1  A    between atoms: C_4  and  N_5 
REMARK       I    between atoms: N_5  and  C_6 
REMARK       I    between atoms: C_6  and  N_7 
REMARK    2  A    between atoms: N_7  and  C_8 
REMARK    3  A    between atoms: C_8  and  C_9 
REMARK       I    between atoms: C_9  and  N_10 
REMARK    4  A    between atoms: N_10  and  C_11 
REMARK    5  A    between atoms: C_16  and  C_17 
ROOT
HETATM    1  C   UNL     1      42.686 -11.715   5.016  1.00  0.00     0.239 C 
HETATM    2  N   UNL     1      41.733 -12.696   5.234  1.00  0.00    -0.325 N 
HETATM    3  O   UNL     1      43.643 -11.772   4.251  1.00  0.00    -0.271 OA
HETATM    4  H   UNL     1      41.201 -12.586   6.098  1.00  0.00     0.169 HD
ENDROOT
BRANCH   1   5
HETATM    5  C   UNL     1      42.486 -10.499   5.926  1.00  0.00     0.227 C 
BRANCH   5   6
HETATM    6  N   UNL     1      42.847 -10.787   7.303  1.00  0.00    -0.334 N 
HETATM    7  C   UNL     1      42.543  -9.879   8.295  1.00  0.00     0.321 C 
HETATM    8  N   UNL     1      43.034 -10.298   9.506  1.00  0.00    -0.309 N 
HETATM    9  O   UNL     1      41.930  -8.846   8.054  1.00  0.00    -0.247 OA
HETATM   10  H   UNL     1      43.775 -10.981   9.450  1.00  0.00     0.170 HD
HETATM   11  H   UNL     1      42.802 -11.759   7.577  1.00  0.00     0.164 HD
BRANCH   8  12
HETATM   12  C   UNL     1      42.811  -9.709  10.766  1.00  0.00     0.036 A 
HETATM   13  C   UNL     1      41.670  -9.948  11.537  1.00  0.00     0.036 A 
HETATM   14  C   UNL     1      41.523  -9.359  12.804  1.00  0.00    -0.060 A 
HETATM   15  C   UNL     1      40.286  -9.612  13.614  1.00  0.00     0.048 C 
HETATM   16  C   UNL     1      42.517  -8.497  13.277  1.00  0.00     0.007 A 
HETATM   17  C   UNL     1      43.660  -8.258  12.516  1.00  0.00     0.003 A 
HETATM   18  C   UNL     1      43.811  -8.871  11.272  1.00  0.00     0.029 A 
ENDBRANCH   8  12
ENDBRANCH   5   6
ENDBRANCH   1   5
BRANCH   2  19
HETATM   19  C   UNL     1      41.497 -13.867   4.480  1.00  0.00     0.041 A 
HETATM   20  C   UNL     1      40.393 -13.896   3.601  1.00  0.00    -0.035 A 
HETATM   21  C   UNL     1      39.430 -12.745   3.476  1.00  0.00     0.050 C 
HETATM   22  C   UNL     1      40.169 -15.037   2.816  1.00  0.00     0.010 A 
HETATM   23  C   UNL     1      41.028 -16.134   2.887  1.00  0.00     0.016 A 
HETATM   24  C   UNL     1      42.129 -16.120   3.749  1.00  0.00     0.019 A 
HETATM   25  C   UNL     1      42.348 -14.980   4.541  1.00  0.00     0.046 A 
BRANCH  24  26
HETATM   26  C   UNL     1      43.054 -17.250   3.831  1.00  0.00     0.179 A 
HETATM   27  O   UNL     1      43.309 -17.928   2.662  1.00  0.00    -0.302 OA
HETATM   28  C   UNL     1      44.192 -18.899   3.025  1.00  0.00     0.163 A 
HETATM   29  C   UNL     1      44.430 -18.776   4.368  1.00  0.00     0.144 A 
HETATM   30  N   UNL     1      43.709 -17.725   4.874  1.00  0.00    -0.234 NA
ENDBRANCH  24  26
ENDBRANCH   2  19
TORSDOF 5
ENDMDL
MODEL 9
REMARK VINA RESULT:      -7.9      1.963      2.856
REMARK  5 active torsions:
REMARK  status: ('A' for Active; 'I' for Inactive)
REMARK    1  A    between atoms: C_4  and  N_5 
REMARK       I    between atoms: N_5  and  C_6 
REMARK       I    between atoms: C_6  and  N_7 
REMARK    2  A    between atoms: N_7  and  C_8 
REMARK    3  A    between atoms: C_8  and  C_9 
REMARK       I    between atoms: C_9  and  N_10 
REMARK    4  A    between atoms: N_10  and  C_11 
REMARK    5  A    between atoms: C_16  and  C_17 
ROOT
HETATM    1  C   UNL     1      40.909 -12.292   4.949  1.00  0.00     0.239 C 
HETATM    2  N   UNL     1      41.741 -11.195   4.809  1.00  0.00    -0.325 N 
HETATM    3  O   UNL     1      40.365 -12.681   5.977  1.00  0.00    -0.271 OA
HETATM    4  H   UNL     1      42.315 -11.203   3.965  1.00  0.00     0.169 HD
ENDROOT
BRANCH   1   5
HETATM    5  C   UNL     1      40.770 -13.086   3.645  1.00  0.00     0.227 C 
BRANCH   5   6
HETATM    6  N   UNL     1      41.919 -13.940   3.406  1.00  0.00    -0.334 N 
HETATM    7  C   UNL     1      41.875 -15.267   3.779  1.00  0.00     0.321 C 
HETATM    8  N   UNL     1      43.080 -15.880   3.540  1.00  0.00    -0.309 N 
HETATM    9  O   UNL     1      40.869 -15.763   4.271  1.00  0.00    -0.247 OA
HETATM   10  H   UNL     1      43.865 -15.251   3.450  1.00  0.00     0.170 HD
HETATM   11  H   UNL     1      42.449 -13.743   2.568  1.00  0.00     0.164 HD
BRANCH   8  12
HETATM   12  C   UNL     1      43.379 -17.250   3.666  1.00  0.00     0.036 A 
HETATM   13  C   UNL     1      43.313 -18.154   2.601  1.00  0.00     0.036 A 
HETATM   14  C   UNL     1      43.660 -19.503   2.781  1.00  0.00    -0.060 A 
HETATM   15  C   UNL     1      43.571 -20.465   1.634  1.00  0.00     0.048 C 
HETATM   16  C   UNL     1      44.039 -19.948   4.052  1.00  0.00     0.007 A 
HETATM   17  C   UNL     1      44.111 -19.052   5.117  1.00  0.00     0.003 A 
HETATM   18  C   UNL     1      43.794 -17.707   4.921  1.00  0.00     0.029 A 
ENDBRANCH   8  12
ENDBRANCH   5   6
ENDBRANCH   1   5
BRANCH   2  19
HETATM   19  C   UNL     1      41.972 -10.150   5.731  1.00  0.00     0.041 A 
HETATM   20  C   UNL     1      41.545  -8.847   5.399  1.00  0.00    -0.035 A 
HETATM   21  C   UNL     1      40.902  -8.520   4.077  1.00  0.00     0.050 C 
HETATM   22  C   UNL     1      41.731  -7.806   6.322  1.00  0.00     0.010 A 
HETATM   23  C   UNL     1      42.320  -8.047   7.563  1.00  0.00     0.016 A 
HETATM   24  C   UNL     1      42.743  -9.334   7.911  1.00  0.00     0.019 A 
HETATM   25  C   UNL     1      42.564 -10.374   6.982  1.00  0.00     0.046 A 
BRANCH  24  26
HETATM   26  C   UNL     1      43.348  -9.618   9.212  1.00  0.00     0.179 A 
HETATM   27  O   UNL     1      43.387  -8.583  10.116  1.00  0.00    -0.302 OA
HETATM   28  C   UNL     1      43.979  -9.123  11.217  1.00  0.00     0.163 A 
HETATM   29  C   UNL     1      44.270 -10.433  10.943  1.00  0.00     0.144 A 
HETATM   30  N   UNL     1      43.864 -10.743   9.670  1.00  0.00    -0.234 NA
ENDBRANCH  24  26
ENDBRANCH   2  19
TORSDOF 5
ENDMDL
MODEL 10
REMARK VINA RESULT:      -7.9      5.501      9.131
REMARK  5 active torsions:
REMARK  status: ('A' for Active; 'I' for Inactive)
REMARK    1  A    between atoms: C_4  and  N_5 
REMARK       I    between atoms: N_5  and  C_6 
REMARK       I    between atoms: C_6  and  N_7 
REMARK    2  A    between atoms: N_7  and  C_8 
REMARK    3  A    between atoms: C_8  and  C_9 
REMARK       I    between atoms: C_9  and  N_10 
REMARK    4  A    between atoms: N_10  and  C_11 
REMARK    5  A    between atoms: C_16  and  C_17 
ROOT
HETATM    1  C   UNL     1      39.798 -12.130   2.778  1.00  0.00     0.239 C 
HETATM    2  N   UNL     1      40.438 -12.788   1.741  1.00  0.00    -0.325 N 
HETATM    3  O   UNL     1      38.757 -11.484   2.711  1.00  0.00    -0.271 OA
HETATM    4  H   UNL     1      41.416 -13.016   1.924  1.00  0.00     0.169 HD
ENDROOT
BRANCH   1   5
HETATM    5  C   UNL     1      40.583 -12.212   4.091  1.00  0.00     0.227 C 
BRANCH   5   6
HETATM    6  N   UNL     1      41.787 -13.012   3.954  1.00  0.00    -0.334 N 
HETATM    7  C   UNL     1      41.738 -14.369   4.193  1.00  0.00     0.321 C 
HETATM    8  N   UNL     1      42.987 -14.928   4.087  1.00  0.00    -0.309 N 
HETATM    9  O   UNL     1      40.688 -14.933   4.478  1.00  0.00    -0.247 OA
HETATM   10  H   UNL     1      43.752 -14.275   4.175  1.00  0.00     0.170 HD
HETATM   11  H   UNL     1      42.428 -12.723   3.228  1.00  0.00     0.164 HD
BRANCH   8  12
HETATM   12  C   UNL     1      43.316 -16.296   4.131  1.00  0.00     0.036 A 
HETATM   13  C   UNL     1      43.125 -17.169   3.056  1.00  0.00     0.036 A 
HETATM   14  C   UNL     1      43.508 -18.518   3.150  1.00  0.00    -0.060 A 
HETATM   15  C   UNL     1      43.285 -19.447   1.994  1.00  0.00     0.048 C 
HETATM   16  C   UNL     1      44.051 -18.994   4.347  1.00  0.00     0.007 A 
HETATM   17  C   UNL     1      44.247 -18.128   5.422  1.00  0.00     0.003 A 
HETATM   18  C   UNL     1      43.892 -16.783   5.309  1.00  0.00     0.029 A 
ENDBRANCH   8  12
ENDBRANCH   5   6
ENDBRANCH   1   5
BRANCH   2  19
HETATM   19  C   UNL     1      39.946 -13.067   0.448  1.00  0.00     0.041 A 
HETATM   20  C   UNL     1      39.849 -14.414   0.036  1.00  0.00    -0.035 A 
HETATM   21  C   UNL     1      40.300 -15.558   0.906  1.00  0.00     0.050 C 
HETATM   22  C   UNL     1      39.324 -14.710  -1.231  1.00  0.00     0.010 A 
HETATM   23  C   UNL     1      38.889 -13.692  -2.080  1.00  0.00     0.016 A 
HETATM   24  C   UNL     1      38.972 -12.353  -1.686  1.00  0.00     0.019 A 
HETATM   25  C   UNL     1      39.506 -12.057  -0.420  1.00  0.00     0.046 A 
BRANCH  24  26
HETATM   26  C   UNL     1      38.508 -11.268  -2.550  1.00  0.00     0.179 A 
HETATM   27  O   UNL     1      37.149 -11.070  -2.620  1.00  0.00    -0.302 OA
HETATM   28  C   UNL     1      37.008 -10.014  -3.468  1.00  0.00     0.163 A 
HETATM   29  C   UNL     1      38.258  -9.623  -3.871  1.00  0.00     0.144 A 
HETATM   30  N   UNL     1      39.206 -10.420  -3.282  1.00  0.00    -0.234 NA
ENDBRANCH  24  26
ENDBRANCH   2  19
TORSDOF 5
ENDMDL
