MODEL 1
REMARK VINA RESULT:      -8.6      0.000      0.000
REMARK  8 active torsions:
REMARK  status: ('A' for Active; 'I' for Inactive)
REMARK    1  A    between atoms: C_2  and  O_3 
REMARK    2  A    between atoms: O_3  and  C_4 
REMARK    3  A    between atoms: C_5  and  N_6 
REMARK       I    between atoms: N_6  and  C_7 
REMARK    4  A    between atoms: C_7  and  C_8 
REMARK    5  A    between atoms: C_8  and  C_9 
REMARK    6  A    between atoms: C_9  and  S_10 
REMARK    7  A    between atoms: S_10  and  C_11 
REMARK    8  A    between atoms: N_12  and  C_13 
ROOT
HETATM    1  C   UNL     1      43.625 -12.264   6.766  1.00  0.00     0.177 A 
HETATM    2  N   UNL     1      42.678 -11.305   6.335  1.00  0.00    -0.276 N 
HETATM    3  C   UNL     1      42.732  -9.992   6.932  1.00  0.00     0.124 A 
HETATM    4  N   UNL     1      41.949  -8.996   6.567  1.00  0.00    -0.384 N 
HETATM    5  H   UNL     1      42.032  -8.084   6.992  1.00  0.00     0.157 HD
HETATM    6  H   UNL     1      41.265  -9.128   5.833  1.00  0.00     0.157 HD
HETATM    7  C   UNL     1      43.730  -9.794   7.936  1.00  0.00     0.081 A 
HETATM    8  C   UNL     1      44.602 -10.836   8.223  1.00  0.00     0.187 A 
HETATM    9  N   UNL     1      45.471 -10.528   9.174  1.00  0.00    -0.153 NA
HETATM   10  N   UNL     1      45.146  -9.261   9.494  1.00  0.00    -0.280 N 
HETATM   11  H   UNL     1      45.686  -8.801  10.221  1.00  0.00     0.189 HD
HETATM   12  C   UNL     1      44.084  -8.758   8.769  1.00  0.00     0.042 A 
HETATM   13  C   UNL     1      43.578  -7.385   8.987  1.00  0.00     0.071 C 
HETATM   14  N   UNL     1      44.581 -12.091   7.632  1.00  0.00    -0.202 NA
ENDROOT
BRANCH   1  15
HETATM   15  S   UNL     1      43.544 -13.913   6.091  1.00  0.00    -0.091 SA
BRANCH  15  16
HETATM   16  C   UNL     1      42.974 -14.894   7.521  1.00  0.00     0.091 C 
BRANCH  16  17
HETATM   17  C   UNL     1      43.503 -16.323   7.582  1.00  0.00     0.113 C 
BRANCH  17  18
HETATM   18  C   UNL     1      43.000 -17.172   6.436  1.00  0.00     0.223 C 
HETATM   19  N   UNL     1      43.980 -17.989   5.902  1.00  0.00    -0.325 N 
HETATM   20  H   UNL     1      44.709 -18.285   6.537  1.00  0.00     0.169 HD
HETATM   21  O   UNL     1      41.817 -17.131   6.105  1.00  0.00    -0.273 OA
BRANCH  19  22
HETATM   22  C   UNL     1      43.845 -18.744   4.716  1.00  0.00     0.068 A 
HETATM   23  C   UNL     1      43.617 -18.183   3.448  1.00  0.00     0.095 A 
HETATM   24  C   UNL     1      43.517 -19.015   2.325  1.00  0.00     0.039 A 
HETATM   25  C   UNL     1      43.631 -20.399   2.458  1.00  0.00     0.003 A 
HETATM   26  C   UNL     1      43.883 -20.958   3.708  1.00  0.00     0.002 A 
HETATM   27  C   UNL     1      44.008 -20.133   4.829  1.00  0.00     0.032 A 
BRANCH  23  28
HETATM   28  O   UNL     1      43.705 -16.822   3.287  1.00  0.00    -0.349 OA
BRANCH  28  29
HETATM   29  C   UNL     1      42.564 -16.234   2.655  1.00  0.00     0.171 C 
HETATM   30  C   UNL     1      42.905 -14.821   2.217  1.00  0.00     0.034 C 
ENDBRANCH  28  29
ENDBRANCH  23  28
ENDBRANCH  19  22
ENDBRANCH  17  18
ENDBRANCH  16  17
ENDBRANCH  15  16
ENDBRANCH   1  15
BRANCH   2  31
HETATM   31  C   UNL     1      41.720 -11.592   5.317  1.00  0.00     0.044 A 
HETATM   32  C   UNL     1      42.007 -11.340   3.967  1.00  0.00     0.054 A 
HETATM   33  C   UNL     1      41.034 -11.561   2.994  1.00  0.00     0.036 A 
HETATM   34 CL   UNL     1      41.396 -11.248   1.341  1.00  0.00    -0.084 Cl
HETATM   35  C   UNL     1      39.766 -12.018   3.348  1.00  0.00     0.024 A 
HETATM   36  C   UNL     1      39.468 -12.264   4.688  1.00  0.00     0.004 A 
HETATM   37  C   UNL     1      40.440 -12.052   5.669  1.00  0.00     0.030 A 
ENDBRANCH   2  31
TORSDOF 8
ENDMDL
MODEL 2
REMARK VINA RESULT:      -8.2      3.218      7.678
REMARK  8 active torsions:
REMARK  status: ('A' for Active; 'I' for Inactive)
REMARK    1  A    between atoms: C_2  and  O_3 
REMARK    2  A    between atoms: O_3  and  C_4 
REMARK    3  A    between atoms: C_5  and  N_6 
REMARK       I    between atoms: N_6  and  C_7 
REMARK    4  A    between atoms: C_7  and  C_8 
REMARK    5  A    between atoms: C_8  and  C_9 
REMARK    6  A    between atoms: C_9  and  S_10 
REMARK    7  A    between atoms: S_10  and  C_11 
REMARK    8  A    between atoms: N_12  and  C_13 
ROOT
HETATM    1  C   UNL     1      40.862 -14.450   4.184  1.00  0.00     0.177 A 
HETATM    2  N   UNL     1      41.411 -14.830   2.936  1.00  0.00    -0.276 N 
HETATM    3  C   UNL     1      42.317 -15.953   2.915  1.00  0.00     0.124 A 
HETATM    4  N   UNL     1      42.841 -16.442   1.807  1.00  0.00    -0.384 N 
HETATM    5  H   UNL     1      43.454 -17.243   1.830  1.00  0.00     0.157 HD
HETATM    6  H   UNL     1      42.613 -16.030   0.912  1.00  0.00     0.157 HD
HETATM    7  C   UNL     1      42.602 -16.561   4.176  1.00  0.00     0.081 A 
HETATM    8  C   UNL     1      41.953 -16.081   5.308  1.00  0.00     0.187 A 
HETATM    9  N   UNL     1      42.309 -16.724   6.411  1.00  0.00    -0.153 NA
HETATM   10  N   UNL     1      43.198 -17.634   5.968  1.00  0.00    -0.280 N 
HETATM   11  H   UNL     1      43.621 -18.256   6.651  1.00  0.00     0.189 HD
HETATM   12  C   UNL     1      43.419 -17.580   4.606  1.00  0.00     0.042 A 
HETATM   13  C   UNL     1      44.369 -18.497   3.939  1.00  0.00     0.071 C 
HETATM   14  N   UNL     1      41.055 -15.025   5.336  1.00  0.00    -0.202 NA
ENDROOT
BRANCH   1  15
HETATM   15  S   UNL     1      39.786 -13.029   4.252  1.00  0.00    -0.091 SA
BRANCH  15  16
HETATM   16  C   UNL     1      39.790 -12.619   6.029  1.00  0.00     0.091 C 
BRANCH  16  17
HETATM   17  C   UNL     1      39.967 -11.140   6.356  1.00  0.00     0.113 C 
BRANCH  17  18
HETATM   18  C   UNL     1      41.407 -10.693   6.233  1.00  0.00     0.223 C 
HETATM   19  N   UNL     1      42.268 -11.429   7.029  1.00  0.00    -0.325 N 
HETATM   20  H   UNL     1      41.994 -12.384   7.216  1.00  0.00     0.169 HD
HETATM   21  O   UNL     1      41.716  -9.801   5.447  1.00  0.00    -0.273 OA
BRANCH  19  22
HETATM   22  C   UNL     1      43.627 -11.115   7.254  1.00  0.00     0.068 A 
HETATM   23  C   UNL     1      44.091 -10.381   8.358  1.00  0.00     0.095 A 
HETATM   24  C   UNL     1      45.463 -10.138   8.506  1.00  0.00     0.039 A 
HETATM   25  C   UNL     1      46.371 -10.610   7.558  1.00  0.00     0.003 A 
HETATM   26  C   UNL     1      45.919 -11.361   6.477  1.00  0.00     0.002 A 
HETATM   27  C   UNL     1      44.554 -11.628   6.336  1.00  0.00     0.032 A 
BRANCH  23  28
HETATM   28  O   UNL     1      43.229 -10.091   9.386  1.00  0.00    -0.349 OA
BRANCH  28  29
HETATM   29  C   UNL     1      43.671 -10.551  10.667  1.00  0.00     0.171 C 
HETATM   30  C   UNL     1      42.891  -9.835  11.755  1.00  0.00     0.034 C 
ENDBRANCH  28  29
ENDBRANCH  23  28
ENDBRANCH  19  22
ENDBRANCH  17  18
ENDBRANCH  16  17
ENDBRANCH  15  16
ENDBRANCH   1  15
BRANCH   2  31
HETATM   31  C   UNL     1      41.062 -14.165   1.722  1.00  0.00     0.044 A 
HETATM   32  C   UNL     1      40.271 -14.803   0.755  1.00  0.00     0.054 A 
HETATM   33  C   UNL     1      39.998 -14.165  -0.454  1.00  0.00     0.036 A 
HETATM   34 CL   UNL     1      39.028 -14.957  -1.635  1.00  0.00    -0.084 Cl
HETATM   35  C   UNL     1      40.517 -12.900  -0.723  1.00  0.00     0.024 A 
HETATM   36  C   UNL     1      41.310 -12.261   0.230  1.00  0.00     0.004 A 
HETATM   37  C   UNL     1      41.582 -12.890   1.447  1.00  0.00     0.030 A 
ENDBRANCH   2  31
TORSDOF 8
ENDMDL
MODEL 3
REMARK VINA RESULT:      -8.1      2.944      8.218
REMARK  8 active torsions:
REMARK  status: ('A' for Active; 'I' for Inactive)
REMARK    1  A    between atoms: C_2  and  O_3 
REMARK    2  A    between atoms: O_3  and  C_4 
REMARK    3  A    between atoms: C_5  and  N_6 
REMARK       I    between atoms: N_6  and  C_7 
REMARK    4  A    between atoms: C_7  and  C_8 
REMARK    5  A    between atoms: C_8  and  C_9 
REMARK    6  A    between atoms: C_9  and  S_10 
REMARK    7  A    between atoms: S_10  and  C_11 
REMARK    8  A    between atoms: N_12  and  C_13 
ROOT
HETATM    1  C   UNL     1      42.689 -14.454   4.860  1.00  0.00     0.177 A 
HETATM    2  N   UNL     1      42.035 -14.634   3.618  1.00  0.00    -0.276 N 
HETATM    3  C   UNL     1      42.189 -15.907   2.955  1.00  0.00     0.124 A 
HETATM    4  N   UNL     1      41.577 -16.218   1.829  1.00  0.00    -0.384 N 
HETATM    5  H   UNL     1      41.692 -17.127   1.408  1.00  0.00     0.157 HD
HETATM    6  H   UNL     1      40.961 -15.550   1.383  1.00  0.00     0.157 HD
HETATM    7  C   UNL     1      43.023 -16.865   3.610  1.00  0.00     0.081 A 
HETATM    8  C   UNL     1      43.570 -16.537   4.845  1.00  0.00     0.187 A 
HETATM    9  N   UNL     1      44.327 -17.506   5.341  1.00  0.00    -0.153 NA
HETATM   10  N   UNL     1      44.255 -18.469   4.403  1.00  0.00    -0.280 N 
HETATM   11  H   UNL     1      44.771 -19.329   4.564  1.00  0.00     0.189 HD
HETATM   12  C   UNL     1      43.470 -18.132   3.318  1.00  0.00     0.042 A 
HETATM   13  C   UNL     1      43.279 -19.062   2.183  1.00  0.00     0.071 C 
HETATM   14  N   UNL     1      43.402 -15.330   5.507  1.00  0.00    -0.202 NA
ENDROOT
BRANCH   1  15
HETATM   15  S   UNL     1      42.567 -12.872   5.673  1.00  0.00    -0.091 SA
BRANCH  15  16
HETATM   16  C   UNL     1      43.896 -12.968   6.920  1.00  0.00     0.091 C 
BRANCH  16  17
HETATM   17  C   UNL     1      45.028 -11.962   6.744  1.00  0.00     0.113 C 
BRANCH  17  18
HETATM   18  C   UNL     1      45.117 -10.990   7.899  1.00  0.00     0.223 C 
HETATM   19  N   UNL     1      43.938 -10.901   8.618  1.00  0.00    -0.325 N 
HETATM   20  H   UNL     1      43.360 -11.730   8.631  1.00  0.00     0.169 HD
HETATM   21  O   UNL     1      46.174 -10.416   8.150  1.00  0.00    -0.273 OA
BRANCH  19  22
HETATM   22  C   UNL     1      43.676  -9.945   9.625  1.00  0.00     0.068 A 
HETATM   23  C   UNL     1      43.490  -8.574   9.378  1.00  0.00     0.095 A 
HETATM   24  C   UNL     1      43.214  -7.705  10.442  1.00  0.00     0.039 A 
HETATM   25  C   UNL     1      43.132  -8.191  11.748  1.00  0.00     0.003 A 
HETATM   26  C   UNL     1      43.288  -9.551  11.994  1.00  0.00     0.002 A 
HETATM   27  C   UNL     1      43.541 -10.427  10.935  1.00  0.00     0.032 A 
BRANCH  23  28
HETATM   28  O   UNL     1      43.372  -8.132   8.084  1.00  0.00    -0.349 OA
BRANCH  28  29
HETATM   29  C   UNL     1      42.022  -7.947   7.651  1.00  0.00     0.171 C 
HETATM   30  C   UNL     1      41.693  -8.971   6.580  1.00  0.00     0.034 C 
ENDBRANCH  28  29
ENDBRANCH  23  28
ENDBRANCH  19  22
ENDBRANCH  17  18
ENDBRANCH  16  17
ENDBRANCH  15  16
ENDBRANCH   1  15
BRANCH   2  31
HETATM   31  C   UNL     1      41.214 -13.619   3.042  1.00  0.00     0.044 A 
HETATM   32  C   UNL     1      41.766 -12.632   2.212  1.00  0.00     0.054 A 
HETATM   33  C   UNL     1      40.961 -11.608   1.715  1.00  0.00     0.036 A 
HETATM   34 CL   UNL     1      41.648 -10.401   0.699  1.00  0.00    -0.084 Cl
HETATM   35  C   UNL     1      39.609 -11.544   2.045  1.00  0.00     0.024 A 
HETATM   36  C   UNL     1      39.052 -12.517   2.875  1.00  0.00     0.004 A 
HETATM   37  C   UNL     1      39.850 -13.550   3.372  1.00  0.00     0.030 A 
ENDBRANCH   2  31
TORSDOF 8
ENDMDL
MODEL 4
REMARK VINA RESULT:      -7.8      4.013      8.355
REMARK  8 active torsions:
REMARK  status: ('A' for Active; 'I' for Inactive)
REMARK    1  A    between atoms: C_2  and  O_3 
REMARK    2  A    between atoms: O_3  and  C_4 
REMARK    3  A    between atoms: C_5  and  N_6 
REMARK       I    between atoms: N_6  and  C_7 
REMARK    4  A    between atoms: C_7  and  C_8 
REMARK    5  A    between atoms: C_8  and  C_9 
REMARK    6  A    between atoms: C_9  and  S_10 
REMARK    7  A    between atoms: S_10  and  C_11 
REMARK    8  A    between atoms: N_12  and  C_13 
ROOT
HETATM    1  C   UNL     1      42.790 -15.788   2.759  1.00  0.00     0.177 A 
HETATM    2  N   UNL     1      42.622 -15.640   4.156  1.00  0.00    -0.276 N 
HETATM    3  C   UNL     1      42.939 -16.771   4.995  1.00  0.00     0.124 A 
HETATM    4  N   UNL     1      42.887 -16.735   6.312  1.00  0.00    -0.384 N 
HETATM    5  H   UNL     1      43.138 -17.540   6.866  1.00  0.00     0.157 HD
HETATM    6  H   UNL     1      42.615 -15.884   6.788  1.00  0.00     0.157 HD
HETATM    7  C   UNL     1      43.367 -17.957   4.323  1.00  0.00     0.081 A 
HETATM    8  C   UNL     1      43.506 -17.926   2.941  1.00  0.00     0.187 A 
HETATM    9  N   UNL     1      43.901 -19.088   2.441  1.00  0.00    -0.153 NA
HETATM   10  N   UNL     1      44.019 -19.871   3.530  1.00  0.00    -0.280 N 
HETATM   11  H   UNL     1      44.314 -20.833   3.393  1.00  0.00     0.189 HD
HETATM   12  C   UNL     1      43.704 -19.232   4.713  1.00  0.00     0.042 A 
HETATM   13  C   UNL     1      43.768 -19.935   6.013  1.00  0.00     0.071 C 
HETATM   14  N   UNL     1      43.237 -16.835   2.128  1.00  0.00    -0.202 NA
ENDROOT
BRANCH   1  15
HETATM   15  S   UNL     1      42.349 -14.428   1.693  1.00  0.00    -0.091 SA
BRANCH  15  16
HETATM   16  C   UNL     1      40.601 -14.782   1.309  1.00  0.00     0.091 C 
BRANCH  16  17
HETATM   17  C   UNL     1      40.221 -14.666  -0.164  1.00  0.00     0.113 C 
BRANCH  17  18
HETATM   18  C   UNL     1      39.940 -13.238  -0.573  1.00  0.00     0.223 C 
HETATM   19  N   UNL     1      41.012 -12.640  -1.211  1.00  0.00    -0.325 N 
HETATM   20  H   UNL     1      41.625 -13.258  -1.727  1.00  0.00     0.169 HD
HETATM   21  O   UNL     1      38.832 -12.742  -0.380  1.00  0.00    -0.273 OA
BRANCH  19  22
HETATM   22  C   UNL     1      41.098 -11.268  -1.535  1.00  0.00     0.068 A 
HETATM   23  C   UNL     1      41.459 -10.266  -0.619  1.00  0.00     0.095 A 
HETATM   24  C   UNL     1      41.537  -8.932  -1.040  1.00  0.00     0.039 A 
HETATM   25  C   UNL     1      41.246  -8.589  -2.361  1.00  0.00     0.003 A 
HETATM   26  C   UNL     1      40.914  -9.582  -3.279  1.00  0.00     0.002 A 
HETATM   27  C   UNL     1      40.858 -10.917  -2.872  1.00  0.00     0.032 A 
BRANCH  23  28
HETATM   28  O   UNL     1      41.935 -10.622   0.618  1.00  0.00    -0.349 OA
BRANCH  28  29
HETATM   29  C   UNL     1      41.204 -10.058   1.710  1.00  0.00     0.171 C 
HETATM   30  C   UNL     1      40.519 -11.170   2.484  1.00  0.00     0.034 C 
ENDBRANCH  28  29
ENDBRANCH  23  28
ENDBRANCH  19  22
ENDBRANCH  17  18
ENDBRANCH  16  17
ENDBRANCH  15  16
ENDBRANCH   1  15
BRANCH   2  31
HETATM   31  C   UNL     1      42.195 -14.410   4.741  1.00  0.00     0.044 A 
HETATM   32  C   UNL     1      43.114 -13.386   5.016  1.00  0.00     0.054 A 
HETATM   33  C   UNL     1      42.690 -12.220   5.651  1.00  0.00     0.036 A 
HETATM   34 CL   UNL     1      43.827 -10.971   5.986  1.00  0.00    -0.084 Cl
HETATM   35  C   UNL     1      41.360 -12.062   6.032  1.00  0.00     0.024 A 
HETATM   36  C   UNL     1      40.440 -13.076   5.769  1.00  0.00     0.004 A 
HETATM   37  C   UNL     1      40.854 -14.245   5.127  1.00  0.00     0.030 A 
ENDBRANCH   2  31
TORSDOF 8
ENDMDL
MODEL 5
REMARK VINA RESULT:      -7.8      5.662      7.718
REMARK  8 active torsions:
REMARK  status: ('A' for Active; 'I' for Inactive)
REMARK    1  A    between atoms: C_2  and  O_3 
REMARK    2  A    between atoms: O_3  and  C_4 
REMARK    3  A    between atoms: C_5  and  N_6 
REMARK       I    between atoms: N_6  and  C_7 
REMARK    4  A    between atoms: C_7  and  C_8 
REMARK    5  A    between atoms: C_8  and  C_9 
REMARK    6  A    between atoms: C_9  and  S_10 
REMARK    7  A    between atoms: S_10  and  C_11 
REMARK    8  A    between atoms: N_12  and  C_13 
ROOT
HETATM    1  C   UNL     1      40.757 -10.412  -0.636  1.00  0.00     0.177 A 
HETATM    2  N   UNL     1      40.106 -10.400  -1.893  1.00  0.00    -0.276 N 
HETATM    3  C   UNL     1      40.610  -9.499  -2.902  1.00  0.00     0.124 A 
HETATM    4  N   UNL     1      40.131  -9.443  -4.129  1.00  0.00    -0.384 N 
HETATM    5  H   UNL     1      40.525  -8.816  -4.814  1.00  0.00     0.157 HD
HETATM    6  H   UNL     1      39.372 -10.052  -4.408  1.00  0.00     0.157 HD
HETATM    7  C   UNL     1      41.712  -8.673  -2.520  1.00  0.00     0.081 A 
HETATM    8  C   UNL     1      42.254  -8.831  -1.250  1.00  0.00     0.187 A 
HETATM    9  N   UNL     1      43.262  -8.003  -1.019  1.00  0.00    -0.153 NA
HETATM   10  N   UNL     1      43.365  -7.309  -2.168  1.00  0.00    -0.280 N 
HETATM   11  H   UNL     1      44.085  -6.596  -2.229  1.00  0.00     0.189 HD
HETATM   12  C   UNL     1      42.440  -7.675  -3.125  1.00  0.00     0.042 A 
HETATM   13  C   UNL     1      42.394  -7.017  -4.449  1.00  0.00     0.071 C 
HETATM   14  N   UNL     1      41.799  -9.717  -0.284  1.00  0.00    -0.202 NA
ENDROOT
BRANCH   1  15
HETATM   15  S   UNL     1      40.119 -11.470   0.650  1.00  0.00    -0.091 SA
BRANCH  15  16
HETATM   16  C   UNL     1      41.167 -12.956   0.491  1.00  0.00     0.091 C 
BRANCH  16  17
HETATM   17  C   UNL     1      40.412 -14.276   0.386  1.00  0.00     0.113 C 
BRANCH  17  18
HETATM   18  C   UNL     1      40.735 -15.215   1.526  1.00  0.00     0.223 C 
HETATM   19  N   UNL     1      42.084 -15.244   1.833  1.00  0.00    -0.325 N 
HETATM   20  H   UNL     1      42.602 -14.397   1.644  1.00  0.00     0.169 HD
HETATM   21  O   UNL     1      39.836 -15.814   2.112  1.00  0.00    -0.273 OA
BRANCH  19  22
HETATM   22  C   UNL     1      42.691 -16.160   2.721  1.00  0.00     0.068 A 
HETATM   23  C   UNL     1      42.818 -15.946   4.104  1.00  0.00     0.095 A 
HETATM   24  C   UNL     1      43.419 -16.924   4.908  1.00  0.00     0.039 A 
HETATM   25  C   UNL     1      43.901 -18.105   4.343  1.00  0.00     0.003 A 
HETATM   26  C   UNL     1      43.753 -18.333   2.978  1.00  0.00     0.002 A 
HETATM   27  C   UNL     1      43.134 -17.373   2.174  1.00  0.00     0.032 A 
BRANCH  23  28
HETATM   28  O   UNL     1      42.171 -14.885   4.685  1.00  0.00    -0.349 OA
BRANCH  28  29
HETATM   29  C   UNL     1      43.044 -13.857   5.161  1.00  0.00     0.171 C 
HETATM   30  C   UNL     1      43.012 -12.684   4.198  1.00  0.00     0.034 C 
ENDBRANCH  28  29
ENDBRANCH  23  28
ENDBRANCH  19  22
ENDBRANCH  17  18
ENDBRANCH  16  17
ENDBRANCH  15  16
ENDBRANCH   1  15
BRANCH   2  31
HETATM   31  C   UNL     1      39.013 -11.269  -2.187  1.00  0.00     0.044 A 
HETATM   32  C   UNL     1      39.236 -12.594  -2.590  1.00  0.00     0.054 A 
HETATM   33  C   UNL     1      38.159 -13.408  -2.940  1.00  0.00     0.036 A 
HETATM   34 CL   UNL     1      38.444 -15.031  -3.435  1.00  0.00    -0.084 Cl
HETATM   35  C   UNL     1      36.857 -12.914  -2.911  1.00  0.00     0.024 A 
HETATM   36  C   UNL     1      36.626 -11.595  -2.519  1.00  0.00     0.004 A 
HETATM   37  C   UNL     1      37.698 -10.776  -2.159  1.00  0.00     0.030 A 
ENDBRANCH   2  31
TORSDOF 8
ENDMDL
MODEL 6
REMARK VINA RESULT:      -7.7      2.992      7.942
REMARK  8 active torsions:
REMARK  status: ('A' for Active; 'I' for Inactive)
REMARK    1  A    between atoms: C_2  and  O_3 
REMARK    2  A    between atoms: O_3  and  C_4 
REMARK    3  A    between atoms: C_5  and  N_6 
REMARK       I    between atoms: N_6  and  C_7 
REMARK    4  A    between atoms: C_7  and  C_8 
REMARK    5  A    between atoms: C_8  and  C_9 
REMARK    6  A    between atoms: C_9  and  S_10 
REMARK    7  A    between atoms: S_10  and  C_11 
REMARK    8  A    between atoms: N_12  and  C_13 
ROOT
HETATM    1  C   UNL     1      41.013 -14.379   4.811  1.00  0.00     0.177 A 
HETATM    2  N   UNL     1      41.403 -15.110   3.663  1.00  0.00    -0.276 N 
HETATM    3  C   UNL     1      42.165 -16.319   3.863  1.00  0.00     0.124 A 
HETATM    4  N   UNL     1      42.528 -17.119   2.880  1.00  0.00    -0.384 N 
HETATM    5  H   UNL     1      43.041 -17.968   3.061  1.00  0.00     0.157 HD
HETATM    6  H   UNL     1      42.273 -16.900   1.925  1.00  0.00     0.157 HD
HETATM    7  C   UNL     1      42.484 -16.650   5.216  1.00  0.00     0.081 A 
HETATM    8  C   UNL     1      41.998 -15.836   6.233  1.00  0.00     0.187 A 
HETATM    9  N   UNL     1      42.370 -16.247   7.437  1.00  0.00    -0.153 NA
HETATM   10  N   UNL     1      43.103 -17.347   7.178  1.00  0.00    -0.280 N 
HETATM   11  H   UNL     1      43.507 -17.844   7.966  1.00  0.00     0.189 HD
HETATM   12  C   UNL     1      43.209 -17.642   5.834  1.00  0.00     0.042 A 
HETATM   13  C   UNL     1      43.982 -18.809   5.356  1.00  0.00     0.071 C 
HETATM   14  N   UNL     1      41.237 -14.691   6.055  1.00  0.00    -0.202 NA
ENDROOT
BRANCH   1  15
HETATM   15  S   UNL     1      40.123 -12.849   4.593  1.00  0.00    -0.091 SA
BRANCH  15  16
HETATM   16  C   UNL     1      40.730 -11.841   5.988  1.00  0.00     0.091 C 
BRANCH  16  17
HETATM   17  C   UNL     1      40.836 -10.345   5.712  1.00  0.00     0.113 C 
BRANCH  17  18
HETATM   18  C   UNL     1      41.780  -9.650   6.667  1.00  0.00     0.223 C 
HETATM   19  N   UNL     1      42.112 -10.432   7.759  1.00  0.00    -0.325 N 
HETATM   20  H   UNL     1      42.107 -11.432   7.609  1.00  0.00     0.169 HD
HETATM   21  O   UNL     1      42.212  -8.529   6.410  1.00  0.00    -0.273 OA
BRANCH  19  22
HETATM   22  C   UNL     1      42.820  -9.978   8.894  1.00  0.00     0.068 A 
HETATM   23  C   UNL     1      44.058 -10.498   9.307  1.00  0.00     0.095 A 
HETATM   24  C   UNL     1      44.695  -9.967  10.436  1.00  0.00     0.039 A 
HETATM   25  C   UNL     1      44.103  -8.931  11.160  1.00  0.00     0.003 A 
HETATM   26  C   UNL     1      42.890  -8.394  10.739  1.00  0.00     0.002 A 
HETATM   27  C   UNL     1      42.261  -8.903   9.600  1.00  0.00     0.032 A 
BRANCH  23  28
HETATM   28  O   UNL     1      44.730 -11.371   8.489  1.00  0.00    -0.349 OA
BRANCH  28  29
HETATM   29  C   UNL     1      45.690 -10.746   7.631  1.00  0.00     0.171 C 
HETATM   30  C   UNL     1      45.516 -11.271   6.217  1.00  0.00     0.034 C 
ENDBRANCH  28  29
ENDBRANCH  23  28
ENDBRANCH  19  22
ENDBRANCH  17  18
ENDBRANCH  16  17
ENDBRANCH  15  16
ENDBRANCH   1  15
BRANCH   2  31
HETATM   31  C   UNL     1      41.030 -14.705   2.347  1.00  0.00     0.044 A 
HETATM   32  C   UNL     1      41.401 -13.446   1.849  1.00  0.00     0.054 A 
HETATM   33  C   UNL     1      40.970 -13.040   0.587  1.00  0.00     0.036 A 
HETATM   34 CL   UNL     1      41.430 -11.494  -0.012  1.00  0.00    -0.084 Cl
HETATM   35  C   UNL     1      40.157 -13.866  -0.185  1.00  0.00     0.024 A 
HETATM   36  C   UNL     1      39.777 -15.116   0.303  1.00  0.00     0.004 A 
HETATM   37  C   UNL     1      40.211 -15.534   1.563  1.00  0.00     0.030 A 
ENDBRANCH   2  31
TORSDOF 8
ENDMDL
MODEL 7
REMARK VINA RESULT:      -7.7      4.107      8.533
REMARK  8 active torsions:
REMARK  status: ('A' for Active; 'I' for Inactive)
REMARK    1  A    between atoms: C_2  and  O_3 
REMARK    2  A    between atoms: O_3  and  C_4 
REMARK    3  A    between atoms: C_5  and  N_6 
REMARK       I    between atoms: N_6  and  C_7 
REMARK    4  A    between atoms: C_7  and  C_8 
REMARK    5  A    between atoms: C_8  and  C_9 
REMARK    6  A    between atoms: C_9  and  S_10 
REMARK    7  A    between atoms: S_10  and  C_11 
REMARK    8  A    between atoms: N_12  and  C_13 
ROOT
HETATM    1  C   UNL     1      41.712 -12.592   1.701  1.00  0.00     0.177 A 
HETATM    2  N   UNL     1      41.167 -13.887   1.875  1.00  0.00    -0.276 N 
HETATM    3  C   UNL     1      40.394 -14.442   0.790  1.00  0.00     0.124 A 
HETATM    4  N   UNL     1      39.892 -15.662   0.806  1.00  0.00    -0.384 N 
HETATM    5  H   UNL     1      39.376 -16.023   0.018  1.00  0.00     0.157 HD
HETATM    6  H   UNL     1      40.040 -16.263   1.607  1.00  0.00     0.157 HD
HETATM    7  C   UNL     1      40.225 -13.608  -0.358  1.00  0.00     0.081 A 
HETATM    8  C   UNL     1      40.853 -12.369  -0.380  1.00  0.00     0.187 A 
HETATM    9  N   UNL     1      40.611 -11.693  -1.494  1.00  0.00    -0.153 NA
HETATM   10  N   UNL     1      39.817 -12.524  -2.196  1.00  0.00    -0.280 N 
HETATM   11  H   UNL     1      39.492 -12.214  -3.106  1.00  0.00     0.189 HD
HETATM   12  C   UNL     1      39.545 -13.714  -1.549  1.00  0.00     0.042 A 
HETATM   13  C   UNL     1      38.683 -14.748  -2.162  1.00  0.00     0.071 C 
HETATM   14  N   UNL     1      41.625 -11.839   0.643  1.00  0.00    -0.202 NA
ENDROOT
BRANCH   1  15
HETATM   15  S   UNL     1      42.620 -11.855   3.047  1.00  0.00    -0.091 SA
BRANCH  15  16
HETATM   16  C   UNL     1      41.660 -10.340   3.384  1.00  0.00     0.091 C 
BRANCH  16  17
HETATM   17  C   UNL     1      40.442 -10.527   4.281  1.00  0.00     0.113 C 
BRANCH  17  18
HETATM   18  C   UNL     1      40.823 -10.779   5.723  1.00  0.00     0.223 C 
HETATM   19  N   UNL     1      41.658  -9.803   6.237  1.00  0.00    -0.325 N 
HETATM   20  H   UNL     1      41.560  -8.879   5.839  1.00  0.00     0.169 HD
HETATM   21  O   UNL     1      40.356 -11.740   6.330  1.00  0.00    -0.273 OA
BRANCH  19  22
HETATM   22  C   UNL     1      42.315  -9.877   7.485  1.00  0.00     0.068 A 
HETATM   23  C   UNL     1      43.555 -10.507   7.684  1.00  0.00     0.095 A 
HETATM   24  C   UNL     1      44.139 -10.511   8.958  1.00  0.00     0.039 A 
HETATM   25  C   UNL     1      43.491  -9.903  10.034  1.00  0.00     0.003 A 
HETATM   26  C   UNL     1      42.276  -9.254   9.836  1.00  0.00     0.002 A 
HETATM   27  C   UNL     1      41.699  -9.226   8.563  1.00  0.00     0.032 A 
BRANCH  23  28
HETATM   28  O   UNL     1      44.281 -10.927   6.597  1.00  0.00    -0.349 OA
BRANCH  28  29
HETATM   29  C   UNL     1      44.789 -12.260   6.713  1.00  0.00     0.171 C 
HETATM   30  C   UNL     1      43.666 -13.249   6.456  1.00  0.00     0.034 C 
ENDBRANCH  28  29
ENDBRANCH  23  28
ENDBRANCH  19  22
ENDBRANCH  17  18
ENDBRANCH  16  17
ENDBRANCH  15  16
ENDBRANCH   1  15
BRANCH   2  31
HETATM   31  C   UNL     1      41.395 -14.651   3.059  1.00  0.00     0.044 A 
HETATM   32  C   UNL     1      42.447 -15.577   3.125  1.00  0.00     0.054 A 
HETATM   33  C   UNL     1      42.613 -16.364   4.264  1.00  0.00     0.036 A 
HETATM   34 CL   UNL     1      43.905 -17.499   4.334  1.00  0.00    -0.084 Cl
HETATM   35  C   UNL     1      41.732 -16.254   5.338  1.00  0.00     0.024 A 
HETATM   36  C   UNL     1      40.679 -15.341   5.278  1.00  0.00     0.004 A 
HETATM   37  C   UNL     1      40.511 -14.543   4.145  1.00  0.00     0.030 A 
ENDBRANCH   2  31
TORSDOF 8
ENDMDL
MODEL 8
REMARK VINA RESULT:      -7.7      3.393      5.797
REMARK  8 active torsions:
REMARK  status: ('A' for Active; 'I' for Inactive)
REMARK    1  A    between atoms: C_2  and  O_3 
REMARK    2  A    between atoms: O_3  and  C_4 
REMARK    3  A    between atoms: C_5  and  N_6 
REMARK       I    between atoms: N_6  and  C_7 
REMARK    4  A    between atoms: C_7  and  C_8 
REMARK    5  A    between atoms: C_8  and  C_9 
REMARK    6  A    between atoms: C_9  and  S_10 
REMARK    7  A    between atoms: S_10  and  C_11 
REMARK    8  A    between atoms: N_12  and  C_13 
ROOT
HETATM    1  C   UNL     1      41.243  -8.600   8.111  1.00  0.00     0.177 A 
HETATM    2  N   UNL     1      42.192  -9.314   8.880  1.00  0.00    -0.276 N 
HETATM    3  C   UNL     1      41.855  -9.618  10.250  1.00  0.00     0.124 A 
HETATM    4  N   UNL     1      42.626 -10.333  11.046  1.00  0.00    -0.384 N 
HETATM    5  H   UNL     1      42.345 -10.544  11.992  1.00  0.00     0.157 HD
HETATM    6  H   UNL     1      43.504 -10.702  10.706  1.00  0.00     0.157 HD
HETATM    7  C   UNL     1      40.592  -9.134  10.714  1.00  0.00     0.081 A 
HETATM    8  C   UNL     1      39.764  -8.471   9.817  1.00  0.00     0.187 A 
HETATM    9  N   UNL     1      38.630  -8.068  10.372  1.00  0.00    -0.153 NA
HETATM   10  N   UNL     1      38.740  -8.489  11.646  1.00  0.00    -0.280 N 
HETATM   11  H   UNL     1      37.973  -8.287  12.281  1.00  0.00     0.189 HD
HETATM   12  C   UNL     1      39.923  -9.148  11.915  1.00  0.00     0.042 A 
HETATM   13  C   UNL     1      40.226  -9.676  13.263  1.00  0.00     0.071 C 
HETATM   14  N   UNL     1      40.063  -8.203   8.489  1.00  0.00    -0.202 NA
ENDROOT
BRANCH   1  15
HETATM   15  S   UNL     1      41.656  -8.158   6.433  1.00  0.00    -0.091 SA
BRANCH  15  16
HETATM   16  C   UNL     1      41.051  -9.597   5.488  1.00  0.00     0.091 C 
BRANCH  16  17
HETATM   17  C   UNL     1      39.770 -10.231   6.017  1.00  0.00     0.113 C 
BRANCH  17  18
HETATM   18  C   UNL     1      39.687 -11.708   5.701  1.00  0.00     0.223 C 
HETATM   19  N   UNL     1      40.599 -12.104   4.740  1.00  0.00    -0.325 N 
HETATM   20  H   UNL     1      41.458 -11.571   4.694  1.00  0.00     0.169 HD
HETATM   21  O   UNL     1      38.906 -12.432   6.314  1.00  0.00    -0.273 OA
BRANCH  19  22
HETATM   22  C   UNL     1      40.622 -13.374   4.121  1.00  0.00     0.068 A 
HETATM   23  C   UNL     1      41.336 -14.477   4.619  1.00  0.00     0.095 A 
HETATM   24  C   UNL     1      41.281 -15.704   3.946  1.00  0.00     0.039 A 
HETATM   25  C   UNL     1      40.530 -15.836   2.777  1.00  0.00     0.003 A 
HETATM   26  C   UNL     1      39.800 -14.754   2.295  1.00  0.00     0.002 A 
HETATM   27  C   UNL     1      39.831 -13.533   2.974  1.00  0.00     0.032 A 
BRANCH  23  28
HETATM   28  O   UNL     1      41.907 -14.405   5.865  1.00  0.00    -0.349 OA
BRANCH  28  29
HETATM   29  C   UNL     1      41.490 -15.441   6.759  1.00  0.00     0.171 C 
HETATM   30  C   UNL     1      42.692 -15.945   7.539  1.00  0.00     0.034 C 
ENDBRANCH  28  29
ENDBRANCH  23  28
ENDBRANCH  19  22
ENDBRANCH  17  18
ENDBRANCH  16  17
ENDBRANCH  15  16
ENDBRANCH   1  15
BRANCH   2  31
HETATM   31  C   UNL     1      43.428  -9.765   8.328  1.00  0.00     0.044 A 
HETATM   32  C   UNL     1      43.523 -11.017   7.701  1.00  0.00     0.054 A 
HETATM   33  C   UNL     1      44.754 -11.470   7.230  1.00  0.00     0.036 A 
HETATM   34 CL   UNL     1      44.859 -13.007   6.464  1.00  0.00    -0.084 Cl
HETATM   35  C   UNL     1      45.903 -10.698   7.388  1.00  0.00     0.024 A 
HETATM   36  C   UNL     1      45.821  -9.455   8.015  1.00  0.00     0.004 A 
HETATM   37  C   UNL     1      44.590  -8.990   8.484  1.00  0.00     0.030 A 
ENDBRANCH   2  31
TORSDOF 8
ENDMDL
MODEL 9
REMARK VINA RESULT:      -7.6      2.154      3.443
REMARK  8 active torsions:
REMARK  status: ('A' for Active; 'I' for Inactive)
REMARK    1  A    between atoms: C_2  and  O_3 
REMARK    2  A    between atoms: O_3  and  C_4 
REMARK    3  A    between atoms: C_5  and  N_6 
REMARK       I    between atoms: N_6  and  C_7 
REMARK    4  A    between atoms: C_7  and  C_8 
REMARK    5  A    between atoms: C_8  and  C_9 
REMARK    6  A    between atoms: C_9  and  S_10 
REMARK    7  A    between atoms: S_10  and  C_11 
REMARK    8  A    between atoms: N_12  and  C_13 
ROOT
HETATM    1  C   UNL     1      43.097 -11.216   4.589  1.00  0.00     0.177 A 
HETATM    2  N   UNL     1      42.319 -10.729   5.666  1.00  0.00    -0.276 N 
HETATM    3  C   UNL     1      42.999 -10.423   6.902  1.00  0.00     0.124 A 
HETATM    4  N   UNL     1      42.395  -9.902   7.952  1.00  0.00    -0.384 N 
HETATM    5  H   UNL     1      42.909  -9.680   8.792  1.00  0.00     0.157 HD
HETATM    6  H   UNL     1      41.405  -9.695   7.920  1.00  0.00     0.157 HD
HETATM    7  C   UNL     1      44.405 -10.673   6.929  1.00  0.00     0.081 A 
HETATM    8  C   UNL     1      45.024 -11.127   5.771  1.00  0.00     0.187 A 
HETATM    9  N   UNL     1      46.324 -11.326   5.931  1.00  0.00    -0.153 NA
HETATM   10  N   UNL     1      46.535 -10.986   7.217  1.00  0.00    -0.280 N 
HETATM   11  H   UNL     1      47.481 -11.062   7.579  1.00  0.00     0.189 HD
HETATM   12  C   UNL     1      45.395 -10.579   7.880  1.00  0.00     0.042 A 
HETATM   13  C   UNL     1      45.429 -10.174   9.303  1.00  0.00     0.071 C 
HETATM   14  N   UNL     1      44.387 -11.393   4.568  1.00  0.00    -0.202 NA
ENDROOT
BRANCH   1  15
HETATM   15  S   UNL     1      42.277 -11.661   3.069  1.00  0.00    -0.091 SA
BRANCH  15  16
HETATM   16  C   UNL     1      43.244 -13.103   2.510  1.00  0.00     0.091 C 
BRANCH  16  17
HETATM   17  C   UNL     1      42.421 -14.289   2.021  1.00  0.00     0.113 C 
BRANCH  17  18
HETATM   18  C   UNL     1      42.157 -15.297   3.117  1.00  0.00     0.223 C 
HETATM   19  N   UNL     1      43.249 -15.488   3.946  1.00  0.00    -0.325 N 
HETATM   20  H   UNL     1      43.871 -14.697   4.052  1.00  0.00     0.169 HD
HETATM   21  O   UNL     1      41.047 -15.811   3.236  1.00  0.00    -0.273 OA
BRANCH  19  22
HETATM   22  C   UNL     1      43.349 -16.495   4.931  1.00  0.00     0.068 A 
HETATM   23  C   UNL     1      43.457 -17.866   4.644  1.00  0.00     0.095 A 
HETATM   24  C   UNL     1      43.573 -18.790   5.691  1.00  0.00     0.039 A 
HETATM   25  C   UNL     1      43.571 -18.359   7.018  1.00  0.00     0.003 A 
HETATM   26  C   UNL     1      43.492 -17.000   7.306  1.00  0.00     0.002 A 
HETATM   27  C   UNL     1      43.400 -16.071   6.267  1.00  0.00     0.032 A 
BRANCH  23  28
HETATM   28  O   UNL     1      43.660 -18.270   3.348  1.00  0.00    -0.349 OA
BRANCH  28  29
HETATM   29  C   UNL     1      43.964 -19.661   3.211  1.00  0.00     0.171 C 
HETATM   30  C   UNL     1      43.434 -20.163   1.880  1.00  0.00     0.034 C 
ENDBRANCH  28  29
ENDBRANCH  23  28
ENDBRANCH  19  22
ENDBRANCH  17  18
ENDBRANCH  16  17
ENDBRANCH  15  16
ENDBRANCH   1  15
BRANCH   2  31
HETATM   31  C   UNL     1      40.915 -10.503   5.543  1.00  0.00     0.044 A 
HETATM   32  C   UNL     1      40.423  -9.287   5.047  1.00  0.00     0.054 A 
HETATM   33  C   UNL     1      39.049  -9.057   4.999  1.00  0.00     0.036 A 
HETATM   34 CL   UNL     1      38.456  -7.561   4.390  1.00  0.00    -0.084 Cl
HETATM   35  C   UNL     1      38.152 -10.020   5.455  1.00  0.00     0.024 A 
HETATM   36  C   UNL     1      38.631 -11.230   5.957  1.00  0.00     0.004 A 
HETATM   37  C   UNL     1      40.006 -11.471   6.002  1.00  0.00     0.030 A 
ENDBRANCH   2  31
TORSDOF 8
ENDMDL
MODEL 10
REMARK VINA RESULT:      -7.6      3.532      8.355
REMARK  8 active torsions:
REMARK  status: ('A' for Active; 'I' for Inactive)
REMARK    1  A    between atoms: C_2  and  O_3 
REMARK    2  A    between atoms: O_3  and  C_4 
REMARK    3  A    between atoms: C_5  and  N_6 
REMARK       I    between atoms: N_6  and  C_7 
REMARK    4  A    between atoms: C_7  and  C_8 
REMARK    5  A    between atoms: C_8  and  C_9 
REMARK    6  A    between atoms: C_9  and  S_10 
REMARK    7  A    between atoms: S_10  and  C_11 
REMARK    8  A    between atoms: N_12  and  C_13 
ROOT
HETATM    1  C   UNL     1      42.213 -11.721   3.030  1.00  0.00     0.177 A 
HETATM    2  N   UNL     1      41.485 -12.879   2.667  1.00  0.00    -0.276 N 
HETATM    3  C   UNL     1      40.149 -12.699   2.151  1.00  0.00     0.124 A 
HETATM    4  N   UNL     1      39.398 -13.693   1.718  1.00  0.00    -0.384 N 
HETATM    5  H   UNL     1      38.476 -13.524   1.344  1.00  0.00     0.157 HD
HETATM    6  H   UNL     1      39.750 -14.641   1.735  1.00  0.00     0.157 HD
HETATM    7  C   UNL     1      39.672 -11.353   2.086  1.00  0.00     0.081 A 
HETATM    8  C   UNL     1      40.529 -10.324   2.457  1.00  0.00     0.187 A 
HETATM    9  N   UNL     1      39.965  -9.129   2.358  1.00  0.00    -0.153 NA
HETATM   10  N   UNL     1      38.726  -9.406   1.910  1.00  0.00    -0.280 N 
HETATM   11  H   UNL     1      38.091  -8.628   1.758  1.00  0.00     0.189 HD
HETATM   12  C   UNL     1      38.488 -10.754   1.726  1.00  0.00     0.042 A 
HETATM   13  C   UNL     1      37.179 -11.251   1.246  1.00  0.00     0.071 C 
HETATM   14  N   UNL     1      41.826 -10.483   2.922  1.00  0.00    -0.202 NA
ENDROOT
BRANCH   1  15
HETATM   15  S   UNL     1      43.843 -11.916   3.726  1.00  0.00    -0.091 SA
BRANCH  15  16
HETATM   16  C   UNL     1      43.566 -11.528   5.488  1.00  0.00     0.091 C 
BRANCH  16  17
HETATM   17  C   UNL     1      44.593 -12.112   6.452  1.00  0.00     0.113 C 
BRANCH  17  18
HETATM   18  C   UNL     1      44.815 -11.228   7.659  1.00  0.00     0.223 C 
HETATM   19  N   UNL     1      43.650 -10.976   8.362  1.00  0.00    -0.325 N 
HETATM   20  H   UNL     1      42.940 -11.695   8.321  1.00  0.00     0.169 HD
HETATM   21  O   UNL     1      45.947 -10.855   7.957  1.00  0.00    -0.273 OA
BRANCH  19  22
HETATM   22  C   UNL     1      43.528 -10.041   9.415  1.00  0.00     0.068 A 
HETATM   23  C   UNL     1      43.219  -8.683   9.227  1.00  0.00     0.095 A 
HETATM   24  C   UNL     1      43.098  -7.836  10.337  1.00  0.00     0.039 A 
HETATM   25  C   UNL     1      43.294  -8.330  11.627  1.00  0.00     0.003 A 
HETATM   26  C   UNL     1      43.573  -9.679  11.820  1.00  0.00     0.002 A 
HETATM   27  C   UNL     1      43.671 -10.535  10.719  1.00  0.00     0.032 A 
BRANCH  23  28
HETATM   28  O   UNL     1      42.832  -8.245   7.985  1.00  0.00    -0.349 OA
BRANCH  28  29
HETATM   29  C   UNL     1      42.507  -6.853   7.933  1.00  0.00     0.171 C 
HETATM   30  C   UNL     1      41.766  -6.558   6.641  1.00  0.00     0.034 C 
ENDBRANCH  28  29
ENDBRANCH  23  28
ENDBRANCH  19  22
ENDBRANCH  17  18
ENDBRANCH  16  17
ENDBRANCH  15  16
ENDBRANCH   1  15
BRANCH   2  31
HETATM   31  C   UNL     1      42.049 -14.187   2.760  1.00  0.00     0.044 A 
HETATM   32  C   UNL     1      41.974 -14.919   3.955  1.00  0.00     0.054 A 
HETATM   33  C   UNL     1      42.591 -16.165   4.050  1.00  0.00     0.036 A 
HETATM   34 CL   UNL     1      42.495 -17.053   5.521  1.00  0.00    -0.084 Cl
HETATM   35  C   UNL     1      43.297 -16.692   2.971  1.00  0.00     0.024 A 
HETATM   36  C   UNL     1      43.383 -15.969   1.781  1.00  0.00     0.004 A 
HETATM   37  C   UNL     1      42.762 -14.723   1.675  1.00  0.00     0.030 A 
ENDBRANCH   2  31
TORSDOF 8
ENDMDL
