MODEL 1
REMARK VINA RESULT:      -8.3      0.000      0.000
REMARK  1 active torsions:
REMARK  status: ('A' for Active; 'I' for Inactive)
REMARK    1  A    between atoms: C_5  and  N_6 
ROOT
HETATM    1  N   UNL     1      42.283 -14.412   5.802  1.00  0.00    -0.320 N 
HETATM    2  C   UNL     1      40.894 -14.072   5.663  1.00  0.00     0.141 C 
HETATM    3  N   UNL     1      39.967 -14.933   5.349  1.00  0.00    -0.380 N 
HETATM    4  H   UNL     1      40.214 -15.900   5.185  1.00  0.00     0.158 HD
HETATM    5  H   UNL     1      39.006 -14.629   5.280  1.00  0.00     0.158 HD
HETATM    6  S   UNL     1      40.571 -12.403   5.994  1.00  0.00    -0.086 SA
HETATM    7  C   UNL     1      42.354 -12.041   5.977  1.00  0.00     0.093 C 
HETATM    8  C   UNL     1      42.989 -13.340   6.518  1.00  0.00     0.121 C 
HETATM    9  C   UNL     1      42.962 -10.935   6.802  1.00  0.00     0.158 C 
HETATM   10  S   UNL     1      44.695 -11.443   6.858  1.00  0.00     0.147 S 
HETATM   11  O   UNL     1      45.425 -10.711   5.847  1.00  0.00    -0.228 OA
HETATM   12  O   UNL     1      45.107 -11.488   8.243  1.00  0.00    -0.228 OA
HETATM   13  C   UNL     1      44.469 -13.137   6.282  1.00  0.00     0.167 C 
ENDROOT
BRANCH   1  14
HETATM   14  C   UNL     1      42.807 -15.720   5.826  1.00  0.00     0.048 A 
HETATM   15  C   UNL     1      43.078 -16.416   4.609  1.00  0.00     0.001 A 
HETATM   16  C   UNL     1      43.518 -17.764   4.666  1.00  0.00    -0.024 A 
HETATM   17  C   UNL     1      42.953 -15.827   3.328  1.00  0.00     0.014 A 
HETATM   18  C   UNL     1      43.768 -18.474   3.481  1.00  0.00     0.012 A 
HETATM   19  C   UNL     1      43.709 -18.382   5.908  1.00  0.00     0.012 A 
HETATM   20  C   UNL     1      43.608 -17.872   2.235  1.00  0.00     0.001 A 
HETATM   21  C   UNL     1      43.208 -16.545   2.158  1.00  0.00     0.001 A 
HETATM   22  C   UNL     1      43.470 -17.694   7.091  1.00  0.00     0.003 A 
HETATM   23  C   UNL     1      43.020 -16.376   7.050  1.00  0.00     0.030 A 
ENDBRANCH   1  14
TORSDOF 1
ENDMDL
MODEL 2
REMARK VINA RESULT:      -7.2      2.711      3.619
REMARK  1 active torsions:
REMARK  status: ('A' for Active; 'I' for Inactive)
REMARK    1  A    between atoms: C_5  and  N_6 
ROOT
HETATM    1  N   UNL     1      42.532 -12.953   6.201  1.00  0.00    -0.320 N 
HETATM    2  C   UNL     1      43.639 -12.100   6.534  1.00  0.00     0.141 C 
HETATM    3  N   UNL     1      44.851 -12.534   6.738  1.00  0.00    -0.380 N 
HETATM    4  H   UNL     1      45.048 -13.523   6.668  1.00  0.00     0.158 HD
HETATM    5  H   UNL     1      45.586 -11.877   6.956  1.00  0.00     0.158 HD
HETATM    6  S   UNL     1      43.204 -10.425   6.600  1.00  0.00    -0.086 SA
HETATM    7  C   UNL     1      41.440 -10.867   6.534  1.00  0.00     0.093 C 
HETATM    8  C   UNL     1      41.422 -12.148   5.672  1.00  0.00     0.121 C 
HETATM    9  C   UNL     1      40.403  -9.964   5.915  1.00  0.00     0.158 C 
HETATM   10  S   UNL     1      39.060 -11.130   5.596  1.00  0.00     0.147 S 
HETATM   11  O   UNL     1      38.098 -11.033   6.670  1.00  0.00    -0.228 OA
HETATM   12  O   UNL     1      38.691 -11.022   4.201  1.00  0.00    -0.228 OA
HETATM   13  C   UNL     1      40.003 -12.651   5.813  1.00  0.00     0.167 C 
ENDROOT
BRANCH   1  14
HETATM   14  C   UNL     1      42.625 -14.316   5.850  1.00  0.00     0.048 A 
HETATM   15  C   UNL     1      42.861 -14.703   4.497  1.00  0.00     0.001 A 
HETATM   16  C   UNL     1      42.857 -16.081   4.161  1.00  0.00    -0.024 A 
HETATM   17  C   UNL     1      43.123 -13.781   3.455  1.00  0.00     0.014 A 
HETATM   18  C   UNL     1      43.064 -16.484   2.832  1.00  0.00     0.012 A 
HETATM   19  C   UNL     1      42.654 -17.041   5.160  1.00  0.00     0.012 A 
HETATM   20  C   UNL     1      43.291 -15.548   1.825  1.00  0.00     0.001 A 
HETATM   21  C   UNL     1      43.329 -14.196   2.138  1.00  0.00     0.001 A 
HETATM   22  C   UNL     1      42.452 -16.662   6.482  1.00  0.00     0.003 A 
HETATM   23  C   UNL     1      42.434 -15.312   6.823  1.00  0.00     0.030 A 
ENDBRANCH   1  14
TORSDOF 1
ENDMDL
MODEL 3
REMARK VINA RESULT:      -7.1      4.913      6.367
REMARK  1 active torsions:
REMARK  status: ('A' for Active; 'I' for Inactive)
REMARK    1  A    between atoms: C_5  and  N_6 
ROOT
HETATM    1  N   UNL     1      41.561 -13.315   1.649  1.00  0.00    -0.320 N 
HETATM    2  C   UNL     1      42.009 -12.010   2.050  1.00  0.00     0.141 C 
HETATM    3  N   UNL     1      42.731 -11.788   3.113  1.00  0.00    -0.380 N 
HETATM    4  H   UNL     1      43.000 -12.561   3.707  1.00  0.00     0.158 HD
HETATM    5  H   UNL     1      43.022 -10.846   3.330  1.00  0.00     0.158 HD
HETATM    6  S   UNL     1      41.522 -10.763   0.952  1.00  0.00    -0.086 SA
HETATM    7  C   UNL     1      40.395 -11.922   0.115  1.00  0.00     0.093 C 
HETATM    8  C   UNL     1      41.114 -13.282   0.250  1.00  0.00     0.121 C 
HETATM    9  C   UNL     1      40.054 -11.803  -1.349  1.00  0.00     0.158 C 
HETATM   10  S   UNL     1      39.460 -13.470  -1.713  1.00  0.00     0.147 S 
HETATM   11  O   UNL     1      38.016 -13.468  -1.663  1.00  0.00    -0.228 OA
HETATM   12  O   UNL     1      40.205 -13.975  -2.845  1.00  0.00    -0.228 OA
HETATM   13  C   UNL     1      40.080 -14.278  -0.225  1.00  0.00     0.167 C 
ENDROOT
BRANCH   1  14
HETATM   14  C   UNL     1      41.993 -14.536   2.207  1.00  0.00     0.048 A 
HETATM   15  C   UNL     1      41.571 -14.928   3.514  1.00  0.00     0.001 A 
HETATM   16  C   UNL     1      42.097 -16.116   4.083  1.00  0.00    -0.024 A 
HETATM   17  C   UNL     1      40.628 -14.202   4.280  1.00  0.00     0.014 A 
HETATM   18  C   UNL     1      41.713 -16.508   5.376  1.00  0.00     0.012 A 
HETATM   19  C   UNL     1      42.994 -16.903   3.350  1.00  0.00     0.012 A 
HETATM   20  C   UNL     1      40.804 -15.754   6.114  1.00  0.00     0.001 A 
HETATM   21  C   UNL     1      40.255 -14.604   5.564  1.00  0.00     0.001 A 
HETATM   22  C   UNL     1      43.381 -16.533   2.067  1.00  0.00     0.003 A 
HETATM   23  C   UNL     1      42.889 -15.359   1.503  1.00  0.00     0.030 A 
ENDBRANCH   1  14
TORSDOF 1
ENDMDL
MODEL 4
REMARK VINA RESULT:      -7.1      1.336      2.698
REMARK  1 active torsions:
REMARK  status: ('A' for Active; 'I' for Inactive)
REMARK    1  A    between atoms: C_5  and  N_6 
ROOT
HETATM    1  N   UNL     1      41.569 -13.865   3.910  1.00  0.00    -0.320 N 
HETATM    2  C   UNL     1      40.173 -13.550   3.792  1.00  0.00     0.141 C 
HETATM    3  N   UNL     1      39.346 -14.205   3.027  1.00  0.00    -0.380 N 
HETATM    4  H   UNL     1      39.682 -14.981   2.472  1.00  0.00     0.158 HD
HETATM    5  H   UNL     1      38.372 -13.938   3.000  1.00  0.00     0.158 HD
HETATM    6  S   UNL     1      39.691 -12.228   4.802  1.00  0.00    -0.086 SA
HETATM    7  C   UNL     1      41.436 -11.834   5.140  1.00  0.00     0.093 C 
HETATM    8  C   UNL     1      42.129 -13.213   5.102  1.00  0.00     0.121 C 
HETATM    9  C   UNL     1      41.887 -11.205   6.434  1.00  0.00     0.158 C 
HETATM   10  S   UNL     1      43.645 -11.620   6.439  1.00  0.00     0.147 S 
HETATM   11  O   UNL     1      44.390 -10.482   5.951  1.00  0.00    -0.228 OA
HETATM   12  O   UNL     1      43.949 -12.278   7.691  1.00  0.00    -0.228 OA
HETATM   13  C   UNL     1      43.602 -12.871   5.142  1.00  0.00     0.167 C 
ENDROOT
BRANCH   1  14
HETATM   14  C   UNL     1      42.194 -15.020   3.397  1.00  0.00     0.048 A 
HETATM   15  C   UNL     1      42.551 -16.098   4.262  1.00  0.00     0.001 A 
HETATM   16  C   UNL     1      43.261 -17.205   3.730  1.00  0.00    -0.024 A 
HETATM   17  C   UNL     1      42.217 -16.140   5.637  1.00  0.00     0.014 A 
HETATM   18  C   UNL     1      43.643 -18.266   4.568  1.00  0.00     0.012 A 
HETATM   19  C   UNL     1      43.574 -17.243   2.366  1.00  0.00     0.012 A 
HETATM   20  C   UNL     1      43.322 -18.262   5.924  1.00  0.00     0.001 A 
HETATM   21  C   UNL     1      42.601 -17.202   6.458  1.00  0.00     0.001 A 
HETATM   22  C   UNL     1      43.201 -16.205   1.521  1.00  0.00     0.003 A 
HETATM   23  C   UNL     1      42.520 -15.102   2.032  1.00  0.00     0.030 A 
ENDBRANCH   1  14
TORSDOF 1
ENDMDL
MODEL 5
REMARK VINA RESULT:      -7.0      2.841      4.367
REMARK  1 active torsions:
REMARK  status: ('A' for Active; 'I' for Inactive)
REMARK    1  A    between atoms: C_5  and  N_6 
ROOT
HETATM    1  N   UNL     1      42.574 -12.300   5.537  1.00  0.00    -0.320 N 
HETATM    2  C   UNL     1      43.622 -11.565   6.190  1.00  0.00     0.141 C 
HETATM    3  N   UNL     1      44.872 -11.936   6.193  1.00  0.00    -0.380 N 
HETATM    4  H   UNL     1      45.144 -12.786   5.719  1.00  0.00     0.158 HD
HETATM    5  H   UNL     1      45.560 -11.365   6.662  1.00  0.00     0.158 HD
HETATM    6  S   UNL     1      43.058 -10.111   6.944  1.00  0.00    -0.086 SA
HETATM    7  C   UNL     1      41.333 -10.641   6.706  1.00  0.00     0.093 C 
HETATM    8  C   UNL     1      41.384 -11.450   5.391  1.00  0.00     0.121 C 
HETATM    9  C   UNL     1      40.204  -9.660   6.518  1.00  0.00     0.158 C 
HETATM   10  S   UNL     1      38.947 -10.704   5.750  1.00  0.00     0.147 S 
HETATM   11  O   UNL     1      38.023 -11.144   6.771  1.00  0.00    -0.228 OA
HETATM   12  O   UNL     1      38.517 -10.065   4.526  1.00  0.00    -0.228 OA
HETATM   13  C   UNL     1      40.016 -12.090   5.315  1.00  0.00     0.167 C 
ENDROOT
BRANCH   1  14
HETATM   14  C   UNL     1      42.761 -13.383   4.654  1.00  0.00     0.048 A 
HETATM   15  C   UNL     1      42.787 -14.724   5.144  1.00  0.00     0.001 A 
HETATM   16  C   UNL     1      43.069 -15.783   4.244  1.00  0.00    -0.024 A 
HETATM   17  C   UNL     1      42.522 -15.068   6.491  1.00  0.00     0.014 A 
HETATM   18  C   UNL     1      43.122 -17.107   4.709  1.00  0.00     0.012 A 
HETATM   19  C   UNL     1      43.288 -15.507   2.889  1.00  0.00     0.012 A 
HETATM   20  C   UNL     1      42.885 -17.408   6.048  1.00  0.00     0.001 A 
HETATM   21  C   UNL     1      42.577 -16.389   6.939  1.00  0.00     0.001 A 
HETATM   22  C   UNL     1      43.235 -14.204   2.410  1.00  0.00     0.003 A 
HETATM   23  C   UNL     1      42.978 -13.151   3.285  1.00  0.00     0.030 A 
ENDBRANCH   1  14
TORSDOF 1
ENDMDL
MODEL 6
REMARK VINA RESULT:      -6.8     15.847     17.322
REMARK  1 active torsions:
REMARK  status: ('A' for Active; 'I' for Inactive)
REMARK    1  A    between atoms: C_5  and  N_6 
ROOT
HETATM    1  N   UNL     1      45.139 -31.134   0.429  1.00  0.00    -0.320 N 
HETATM    2  C   UNL     1      45.823 -32.385   0.609  1.00  0.00     0.141 C 
HETATM    3  N   UNL     1      46.983 -32.657   0.079  1.00  0.00    -0.380 N 
HETATM    4  H   UNL     1      47.446 -31.968  -0.498  1.00  0.00     0.158 HD
HETATM    5  H   UNL     1      47.414 -33.553   0.256  1.00  0.00     0.158 HD
HETATM    6  S   UNL     1      44.964 -33.483   1.635  1.00  0.00    -0.086 SA
HETATM    7  C   UNL     1      43.487 -32.421   1.558  1.00  0.00     0.093 C 
HETATM    8  C   UNL     1      44.075 -30.998   1.434  1.00  0.00     0.121 C 
HETATM    9  C   UNL     1      42.492 -32.336   2.687  1.00  0.00     0.158 C 
HETATM   10  S   UNL     1      41.671 -30.769   2.322  1.00  0.00     0.147 S 
HETATM   11  O   UNL     1      40.435 -31.046   1.626  1.00  0.00    -0.228 OA
HETATM   12  O   UNL     1      41.735 -29.940   3.505  1.00  0.00    -0.228 OA
HETATM   13  C   UNL     1      42.868 -30.141   1.129  1.00  0.00     0.167 C 
ENDROOT
BRANCH   1  14
HETATM   14  C   UNL     1      45.692 -29.975  -0.154  1.00  0.00     0.048 A 
HETATM   15  C   UNL     1      45.315 -29.573  -1.471  1.00  0.00     0.001 A 
HETATM   16  C   UNL     1      45.957 -28.456  -2.063  1.00  0.00    -0.024 A 
HETATM   17  C   UNL     1      44.307 -30.220  -2.226  1.00  0.00     0.014 A 
HETATM   18  C   UNL     1      45.618 -28.057  -3.366  1.00  0.00     0.012 A 
HETATM   19  C   UNL     1      46.925 -27.745  -1.342  1.00  0.00     0.012 A 
HETATM   20  C   UNL     1      44.641 -28.734  -4.093  1.00  0.00     0.001 A 
HETATM   21  C   UNL     1      43.980 -29.811  -3.520  1.00  0.00     0.001 A 
HETATM   22  C   UNL     1      47.270 -28.122  -0.050  1.00  0.00     0.003 A 
HETATM   23  C   UNL     1      46.662 -29.229   0.537  1.00  0.00     0.030 A 
ENDBRANCH   1  14
TORSDOF 1
ENDMDL
MODEL 7
REMARK VINA RESULT:      -6.7      5.777      7.165
REMARK  1 active torsions:
REMARK  status: ('A' for Active; 'I' for Inactive)
REMARK    1  A    between atoms: C_5  and  N_6 
ROOT
HETATM    1  N   UNL     1      39.754 -12.206   1.122  1.00  0.00    -0.320 N 
HETATM    2  C   UNL     1      38.621 -11.414   1.512  1.00  0.00     0.141 C 
HETATM    3  N   UNL     1      38.423 -10.984   2.726  1.00  0.00    -0.380 N 
HETATM    4  H   UNL     1      39.088 -11.210   3.454  1.00  0.00     0.158 HD
HETATM    5  H   UNL     1      37.610 -10.420   2.930  1.00  0.00     0.158 HD
HETATM    6  S   UNL     1      37.561 -11.056   0.190  1.00  0.00    -0.086 SA
HETATM    7  C   UNL     1      38.430 -12.269  -0.852  1.00  0.00     0.093 C 
HETATM    8  C   UNL     1      39.886 -12.203  -0.342  1.00  0.00     0.121 C 
HETATM    9  C   UNL     1      38.532 -12.121  -2.349  1.00  0.00     0.158 C 
HETATM   10  S   UNL     1      39.940 -13.192  -2.717  1.00  0.00     0.147 S 
HETATM   11  O   UNL     1      39.442 -14.475  -3.158  1.00  0.00    -0.228 OA
HETATM   12  O   UNL     1      40.905 -12.424  -3.473  1.00  0.00    -0.228 OA
HETATM   13  C   UNL     1      40.556 -13.369  -1.032  1.00  0.00     0.167 C 
ENDROOT
BRANCH   1  14
HETATM   14  C   UNL     1      40.893 -12.454   1.916  1.00  0.00     0.048 A 
HETATM   15  C   UNL     1      41.047 -13.701   2.594  1.00  0.00     0.001 A 
HETATM   16  C   UNL     1      42.157 -13.884   3.459  1.00  0.00    -0.024 A 
HETATM   17  C   UNL     1      40.158 -14.791   2.438  1.00  0.00     0.014 A 
HETATM   18  C   UNL     1      42.316 -15.094   4.154  1.00  0.00     0.012 A 
HETATM   19  C   UNL     1      43.098 -12.859   3.613  1.00  0.00     0.012 A 
HETATM   20  C   UNL     1      41.406 -16.137   3.998  1.00  0.00     0.001 A 
HETATM   21  C   UNL     1      40.330 -15.989   3.134  1.00  0.00     0.001 A 
HETATM   22  C   UNL     1      42.959 -11.656   2.931  1.00  0.00     0.003 A 
HETATM   23  C   UNL     1      41.865 -11.454   2.093  1.00  0.00     0.030 A 
ENDBRANCH   1  14
TORSDOF 1
ENDMDL
MODEL 8
REMARK VINA RESULT:      -6.7     15.808     17.357
REMARK  1 active torsions:
REMARK  status: ('A' for Active; 'I' for Inactive)
REMARK    1  A    between atoms: C_5  and  N_6 
ROOT
HETATM    1  N   UNL     1      46.188 -30.048   0.291  1.00  0.00    -0.320 N 
HETATM    2  C   UNL     1      45.582 -29.336   1.381  1.00  0.00     0.141 C 
HETATM    3  N   UNL     1      44.320 -29.009   1.419  1.00  0.00    -0.380 N 
HETATM    4  H   UNL     1      43.714 -29.256   0.649  1.00  0.00     0.158 HD
HETATM    5  H   UNL     1      43.956 -28.518   2.223  1.00  0.00     0.158 HD
HETATM    6  S   UNL     1      46.694 -28.987   2.661  1.00  0.00    -0.086 SA
HETATM    7  C   UNL     1      48.090 -29.476   1.599  1.00  0.00     0.093 C 
HETATM    8  C   UNL     1      47.490 -30.586   0.708  1.00  0.00     0.121 C 
HETATM    9  C   UNL     1      49.361 -30.065   2.156  1.00  0.00     0.158 C 
HETATM   10  S   UNL     1      50.047 -30.877   0.695  1.00  0.00     0.147 S 
HETATM   11  O   UNL     1      51.039 -30.007   0.105  1.00  0.00    -0.228 OA
HETATM   12  O   UNL     1      50.317 -32.258   1.032  1.00  0.00    -0.228 OA
HETATM   13  C   UNL     1      48.564 -30.827  -0.329  1.00  0.00     0.167 C 
ENDROOT
BRANCH   1  14
HETATM   14  C   UNL     1      45.494 -30.666  -0.770  1.00  0.00     0.048 A 
HETATM   15  C   UNL     1      45.206 -29.943  -1.968  1.00  0.00     0.001 A 
HETATM   16  C   UNL     1      44.427 -30.563  -2.978  1.00  0.00    -0.024 A 
HETATM   17  C   UNL     1      45.676 -28.632  -2.221  1.00  0.00     0.014 A 
HETATM   18  C   UNL     1      44.112 -29.862  -4.154  1.00  0.00     0.012 A 
HETATM   19  C   UNL     1      43.977 -31.877  -2.804  1.00  0.00     0.012 A 
HETATM   20  C   UNL     1      44.568 -28.562  -4.359  1.00  0.00     0.001 A 
HETATM   21  C   UNL     1      45.357 -27.949  -3.396  1.00  0.00     0.001 A 
HETATM   22  C   UNL     1      44.282 -32.588  -1.649  1.00  0.00     0.003 A 
HETATM   23  C   UNL     1      45.030 -31.986  -0.640  1.00  0.00     0.030 A 
ENDBRANCH   1  14
TORSDOF 1
ENDMDL
MODEL 9
REMARK VINA RESULT:      -6.6     15.885     17.655
REMARK  1 active torsions:
REMARK  status: ('A' for Active; 'I' for Inactive)
REMARK    1  A    between atoms: C_5  and  N_6 
ROOT
HETATM    1  N   UNL     1      45.935 -29.437  -0.471  1.00  0.00    -0.320 N 
HETATM    2  C   UNL     1      45.119 -29.272   0.700  1.00  0.00     0.141 C 
HETATM    3  N   UNL     1      43.883 -28.857   0.667  1.00  0.00    -0.380 N 
HETATM    4  H   UNL     1      43.453 -28.628  -0.219  1.00  0.00     0.158 HD
HETATM    5  H   UNL     1      43.361 -28.775   1.528  1.00  0.00     0.158 HD
HETATM    6  S   UNL     1      45.935 -29.717   2.161  1.00  0.00    -0.086 SA
HETATM    7  C   UNL     1      47.519 -29.797   1.267  1.00  0.00     0.093 C 
HETATM    8  C   UNL     1      47.109 -30.260  -0.148  1.00  0.00     0.121 C 
HETATM    9  C   UNL     1      48.632 -30.727   1.677  1.00  0.00     0.158 C 
HETATM   10  S   UNL     1      49.605 -30.810   0.156  1.00  0.00     0.147 S 
HETATM   11  O   UNL     1      50.712 -29.888   0.265  1.00  0.00    -0.228 OA
HETATM   12  O   UNL     1      49.776 -32.203  -0.194  1.00  0.00    -0.228 OA
HETATM   13  C   UNL     1      48.377 -30.097  -0.955  1.00  0.00     0.167 C 
ENDROOT
BRANCH   1  14
HETATM   14  C   UNL     1      45.477 -29.380  -1.803  1.00  0.00     0.048 A 
HETATM   15  C   UNL     1      44.975 -30.549  -2.450  1.00  0.00     0.001 A 
HETATM   16  C   UNL     1      44.608 -30.479  -3.818  1.00  0.00    -0.024 A 
HETATM   17  C   UNL     1      44.797 -31.790  -1.792  1.00  0.00     0.014 A 
HETATM   18  C   UNL     1      44.134 -31.623  -4.481  1.00  0.00     0.012 A 
HETATM   19  C   UNL     1      44.714 -29.264  -4.507  1.00  0.00     0.012 A 
HETATM   20  C   UNL     1      43.998 -32.836  -3.810  1.00  0.00     0.001 A 
HETATM   21  C   UNL     1      44.322 -32.919  -2.463  1.00  0.00     0.001 A 
HETATM   22  C   UNL     1      45.177 -28.121  -3.867  1.00  0.00     0.003 A 
HETATM   23  C   UNL     1      45.559 -28.179  -2.529  1.00  0.00     0.030 A 
ENDBRANCH   1  14
TORSDOF 1
ENDMDL
MODEL 10
REMARK VINA RESULT:      -6.6      3.142      5.034
REMARK  1 active torsions:
REMARK  status: ('A' for Active; 'I' for Inactive)
REMARK    1  A    between atoms: C_5  and  N_6 
ROOT
HETATM    1  N   UNL     1      44.105 -10.953   6.648  1.00  0.00    -0.320 N 
HETATM    2  C   UNL     1      45.473 -10.672   6.988  1.00  0.00     0.141 C 
HETATM    3  N   UNL     1      46.491 -11.289   6.456  1.00  0.00    -0.380 N 
HETATM    4  H   UNL     1      46.336 -12.012   5.766  1.00  0.00     0.158 HD
HETATM    5  H   UNL     1      47.428 -11.033   6.731  1.00  0.00     0.158 HD
HETATM    6  S   UNL     1      45.632  -9.401   8.152  1.00  0.00    -0.086 SA
HETATM    7  C   UNL     1      43.843  -9.459   8.480  1.00  0.00     0.093 C 
HETATM    8  C   UNL     1      43.241  -9.860   7.116  1.00  0.00     0.121 C 
HETATM    9  C   UNL     1      43.060  -8.245   8.912  1.00  0.00     0.158 C 
HETATM   10  S   UNL     1      41.375  -8.738   8.488  1.00  0.00     0.147 S 
HETATM   11  O   UNL     1      40.724  -9.235   9.679  1.00  0.00    -0.228 OA
HETATM   12  O   UNL     1      40.799  -7.706   7.654  1.00  0.00    -0.228 OA
HETATM   13  C   UNL     1      41.791 -10.144   7.438  1.00  0.00     0.167 C 
ENDROOT
BRANCH   1  14
HETATM   14  C   UNL     1      43.677 -11.761   5.575  1.00  0.00     0.048 A 
HETATM   15  C   UNL     1      43.382 -13.143   5.779  1.00  0.00     0.001 A 
HETATM   16  C   UNL     1      43.043 -13.949   4.662  1.00  0.00    -0.024 A 
HETATM   17  C   UNL     1      43.385 -13.763   7.052  1.00  0.00     0.014 A 
HETATM   18  C   UNL     1      42.771 -15.316   4.837  1.00  0.00     0.012 A 
HETATM   19  C   UNL     1      42.973 -13.378   3.386  1.00  0.00     0.012 A 
HETATM   20  C   UNL     1      42.811 -15.901   6.101  1.00  0.00     0.001 A 
HETATM   21  C   UNL     1      43.111 -15.122   7.210  1.00  0.00     0.001 A 
HETATM   22  C   UNL     1      43.235 -12.027   3.194  1.00  0.00     0.003 A 
HETATM   23  C   UNL     1      43.587 -11.227   4.278  1.00  0.00     0.030 A 
ENDBRANCH   1  14
TORSDOF 1
ENDMDL
