MODEL 1
REMARK VINA RESULT:      -8.8      0.000      0.000
REMARK  5 active torsions:
REMARK  status: ('A' for Active; 'I' for Inactive)
REMARK    1  A    between atoms: C_6  and  S_7 
REMARK    2  A    between atoms: S_7  and  C_8 
REMARK    3  A    between atoms: C_8  and  C_9 
REMARK       I    between atoms: C_9  and  N_10 
REMARK    4  A    between atoms: N_10  and  C_11 
REMARK    5  A    between atoms: N_22  and  C_23 
ROOT
HETATM    1  C   UNL     1      45.311  -9.423   9.214  1.00  0.00     0.001 A 
HETATM    2  C   UNL     1      45.065 -10.636   8.571  1.00  0.00     0.019 A 
HETATM    3  C   UNL     1      43.990 -10.743   7.681  1.00  0.00     0.061 A 
HETATM    4  C   UNL     1      43.161  -9.654   7.427  1.00  0.00     0.075 A 
HETATM    5  N   UNL     1      42.083  -9.724   6.539  1.00  0.00    -0.223 NA
HETATM    6  C   UNL     1      41.846 -10.847   5.943  1.00  0.00     0.177 A 
HETATM    7  N   UNL     1      42.608 -11.996   6.108  1.00  0.00    -0.255 N 
HETATM    8  C   UNL     1      43.689 -12.013   6.995  1.00  0.00     0.267 A 
HETATM    9  O   UNL     1      44.364 -13.003   7.270  1.00  0.00    -0.267 OA
HETATM   10  C   UNL     1      43.414  -8.444   8.080  1.00  0.00     0.032 A 
HETATM   11  C   UNL     1      44.485  -8.328   8.970  1.00  0.00     0.002 A 
ENDROOT
BRANCH   6  12
HETATM   12  S   UNL     1      40.512 -10.838   4.797  1.00  0.00    -0.082 SA
BRANCH  12  13
HETATM   13  C   UNL     1      41.286  -9.967   3.398  1.00  0.00     0.185 C 
BRANCH  13  14
HETATM   14  C   UNL     1      41.190 -10.728   2.078  1.00  0.00     0.231 C 
HETATM   15  N   UNL     1      40.190 -11.678   2.034  1.00  0.00    -0.326 N 
HETATM   16  H   UNL     1      39.604 -11.730   2.865  1.00  0.00     0.169 HD
HETATM   17  O   UNL     1      42.012 -10.517   1.187  1.00  0.00    -0.272 OA
BRANCH  15  18
HETATM   18  C   UNL     1      39.880 -12.581   1.000  1.00  0.00     0.037 A 
HETATM   19  C   UNL     1      39.321 -12.197  -0.223  1.00  0.00     0.061 A 
HETATM   20  C   UNL     1      39.101 -13.192  -1.149  1.00  0.00     0.065 A 
HETATM   21  C   UNL     1      39.401 -14.529  -0.898  1.00  0.00     0.063 A 
HETATM   22  N   UNL     1      38.587 -13.106  -2.439  1.00  0.00    -0.306 N 
HETATM   23  N   UNL     1      39.066 -15.265  -2.027  1.00  0.00    -0.307 N 
HETATM   24  C   UNL     1      39.939 -14.943   0.293  1.00  0.00     0.034 A 
HETATM   25  C   UNL     1      38.560 -14.391  -3.001  1.00  0.00     0.325 A 
HETATM   26  H   UNL     1      39.161 -16.258  -2.164  1.00  0.00     0.170 HD
HETATM   27  O   UNL     1      38.177 -14.691  -4.116  1.00  0.00    -0.247 OA
HETATM   28  C   UNL     1      40.185 -13.947   1.247  1.00  0.00     0.032 A 
HETATM   29  H   UNL     1      38.282 -12.274  -2.917  1.00  0.00     0.170 HD
ENDBRANCH  15  18
ENDBRANCH  13  14
ENDBRANCH  12  13
ENDBRANCH   6  12
BRANCH   7  30
HETATM   30  C   UNL     1      42.335 -13.211   5.412  1.00  0.00     0.066 A 
HETATM   31  C   UNL     1      42.959 -13.507   4.186  1.00  0.00     0.061 A 
HETATM   32 CL   UNL     1      43.979 -12.367   3.380  1.00  0.00    -0.082 Cl
HETATM   33  C   UNL     1      42.709 -14.725   3.549  1.00  0.00     0.026 A 
HETATM   34  C   UNL     1      41.840 -15.652   4.126  1.00  0.00     0.002 A 
HETATM   35  C   UNL     1      41.219 -15.366   5.340  1.00  0.00     0.002 A 
HETATM   36  C   UNL     1      41.465 -14.152   5.985  1.00  0.00     0.032 A 
ENDBRANCH   7  30
TORSDOF 5
ENDMDL
MODEL 2
REMARK VINA RESULT:      -8.7      2.498      9.166
REMARK  5 active torsions:
REMARK  status: ('A' for Active; 'I' for Inactive)
REMARK    1  A    between atoms: C_6  and  S_7 
REMARK    2  A    between atoms: S_7  and  C_8 
REMARK    3  A    between atoms: C_8  and  C_9 
REMARK       I    between atoms: C_9  and  N_10 
REMARK    4  A    between atoms: N_10  and  C_11 
REMARK    5  A    between atoms: N_22  and  C_23 
ROOT
HETATM    1  C   UNL     1      38.791 -13.772  -2.578  1.00  0.00     0.001 A 
HETATM    2  C   UNL     1      39.064 -14.579  -1.474  1.00  0.00     0.019 A 
HETATM    3  C   UNL     1      39.905 -14.105  -0.461  1.00  0.00     0.061 A 
HETATM    4  C   UNL     1      40.473 -12.837  -0.538  1.00  0.00     0.075 A 
HETATM    5  N   UNL     1      41.311 -12.330   0.460  1.00  0.00    -0.223 NA
HETATM    6  C   UNL     1      41.572 -13.075   1.485  1.00  0.00     0.177 A 
HETATM    7  N   UNL     1      41.057 -14.350   1.677  1.00  0.00    -0.255 N 
HETATM    8  C   UNL     1      40.229 -14.935   0.714  1.00  0.00     0.267 A 
HETATM    9  O   UNL     1      39.798 -16.086   0.756  1.00  0.00    -0.267 OA
HETATM   10  C   UNL     1      40.197 -12.038  -1.651  1.00  0.00     0.032 A 
HETATM   11  C   UNL     1      39.359 -12.502  -2.668  1.00  0.00     0.002 A 
ENDROOT
BRANCH   6  12
HETATM   12  S   UNL     1      42.584 -12.344   2.724  1.00  0.00    -0.082 SA
BRANCH  12  13
HETATM   13  C   UNL     1      41.329 -11.434   3.679  1.00  0.00     0.185 C 
BRANCH  13  14
HETATM   14  C   UNL     1      41.614 -11.391   5.177  1.00  0.00     0.231 C 
HETATM   15  N   UNL     1      42.607 -10.506   5.548  1.00  0.00    -0.326 N 
HETATM   16  H   UNL     1      43.001  -9.952   4.789  1.00  0.00     0.169 HD
HETATM   17  O   UNL     1      41.026 -12.159   5.937  1.00  0.00    -0.272 OA
BRANCH  15  18
HETATM   18  C   UNL     1      43.147 -10.275   6.827  1.00  0.00     0.037 A 
HETATM   19  C   UNL     1      42.508  -9.515   7.812  1.00  0.00     0.061 A 
HETATM   20  C   UNL     1      43.147  -9.403   9.027  1.00  0.00     0.065 A 
HETATM   21  C   UNL     1      44.379  -9.998   9.282  1.00  0.00     0.063 A 
HETATM   22  N   UNL     1      42.746  -8.740  10.182  1.00  0.00    -0.306 N 
HETATM   23  N   UNL     1      44.740  -9.697  10.589  1.00  0.00    -0.307 N 
HETATM   24  C   UNL     1      45.040 -10.741   8.337  1.00  0.00     0.034 A 
HETATM   25  C   UNL     1      43.729  -8.916  11.167  1.00  0.00     0.325 A 
HETATM   26  H   UNL     1      45.575  -9.979  11.077  1.00  0.00     0.170 HD
HETATM   27  O   UNL     1      43.709  -8.479  12.303  1.00  0.00    -0.247 OA
HETATM   28  C   UNL     1      44.403 -10.881   7.097  1.00  0.00     0.032 A 
HETATM   29  H   UNL     1      41.897  -8.217  10.319  1.00  0.00     0.170 HD
ENDBRANCH  15  18
ENDBRANCH  13  14
ENDBRANCH  12  13
ENDBRANCH   6  12
BRANCH   7  30
HETATM   30  C   UNL     1      41.342 -15.133   2.834  1.00  0.00     0.066 A 
HETATM   31  C   UNL     1      42.487 -15.948   2.901  1.00  0.00     0.061 A 
HETATM   32 CL   UNL     1      43.538 -16.161   1.544  1.00  0.00    -0.082 Cl
HETATM   33  C   UNL     1      42.767 -16.671   4.063  1.00  0.00     0.026 A 
HETATM   34  C   UNL     1      41.913 -16.585   5.163  1.00  0.00     0.002 A 
HETATM   35  C   UNL     1      40.776 -15.780   5.105  1.00  0.00     0.002 A 
HETATM   36  C   UNL     1      40.490 -15.053   3.947  1.00  0.00     0.032 A 
ENDBRANCH   7  30
TORSDOF 5
ENDMDL
MODEL 3
REMARK VINA RESULT:      -8.6      3.583      6.133
REMARK  5 active torsions:
REMARK  status: ('A' for Active; 'I' for Inactive)
REMARK    1  A    between atoms: C_6  and  S_7 
REMARK    2  A    between atoms: S_7  and  C_8 
REMARK    3  A    between atoms: C_8  and  C_9 
REMARK       I    between atoms: C_9  and  N_10 
REMARK    4  A    between atoms: N_10  and  C_11 
REMARK    5  A    between atoms: N_22  and  C_23 
ROOT
HETATM    1  C   UNL     1      44.411 -18.848   4.034  1.00  0.00     0.001 A 
HETATM    2  C   UNL     1      44.080 -17.629   4.624  1.00  0.00     0.019 A 
HETATM    3  C   UNL     1      43.107 -16.814   4.034  1.00  0.00     0.061 A 
HETATM    4  C   UNL     1      42.463 -17.204   2.863  1.00  0.00     0.075 A 
HETATM    5  N   UNL     1      41.483 -16.417   2.251  1.00  0.00    -0.223 NA
HETATM    6  C   UNL     1      41.174 -15.283   2.791  1.00  0.00     0.177 A 
HETATM    7  N   UNL     1      41.740 -14.794   3.960  1.00  0.00    -0.255 N 
HETATM    8  C   UNL     1      42.743 -15.511   4.620  1.00  0.00     0.267 A 
HETATM    9  O   UNL     1      43.360 -15.119   5.609  1.00  0.00    -0.267 OA
HETATM   10  C   UNL     1      42.806 -18.426   2.276  1.00  0.00     0.032 A 
HETATM   11  C   UNL     1      43.774 -19.246   2.859  1.00  0.00     0.002 A 
ENDROOT
BRANCH   6  12
HETATM   12  S   UNL     1      39.891 -14.382   1.995  1.00  0.00    -0.082 SA
BRANCH  12  13
HETATM   13  C   UNL     1      40.449 -14.472   0.264  1.00  0.00     0.185 C 
BRANCH  13  14
HETATM   14  C   UNL     1      40.120 -13.224  -0.549  1.00  0.00     0.231 C 
HETATM   15  N   UNL     1      41.214 -12.452  -0.886  1.00  0.00    -0.326 N 
HETATM   16  H   UNL     1      42.115 -12.826  -0.594  1.00  0.00     0.169 HD
HETATM   17  O   UNL     1      38.948 -12.942  -0.794  1.00  0.00    -0.272 OA
BRANCH  15  18
HETATM   18  C   UNL     1      41.246 -11.222  -1.569  1.00  0.00     0.037 A 
HETATM   19  C   UNL     1      40.953 -11.083  -2.930  1.00  0.00     0.061 A 
HETATM   20  C   UNL     1      40.998  -9.809  -3.451  1.00  0.00     0.065 A 
HETATM   21  C   UNL     1      41.329  -8.697  -2.682  1.00  0.00     0.063 A 
HETATM   22  N   UNL     1      40.736  -9.371  -4.745  1.00  0.00    -0.306 N 
HETATM   23  N   UNL     1      41.278  -7.577  -3.502  1.00  0.00    -0.307 N 
HETATM   24  C   UNL     1      41.632  -8.796  -1.348  1.00  0.00     0.034 A 
HETATM   25  C   UNL     1      40.904  -7.979  -4.793  1.00  0.00     0.325 A 
HETATM   26  H   UNL     1      41.464  -6.620  -3.248  1.00  0.00     0.170 HD
HETATM   27  O   UNL     1      40.754  -7.260  -5.762  1.00  0.00    -0.247 OA
HETATM   28  C   UNL     1      41.580 -10.081  -0.791  1.00  0.00     0.032 A 
HETATM   29  H   UNL     1      40.465  -9.934  -5.534  1.00  0.00     0.170 HD
ENDBRANCH  15  18
ENDBRANCH  13  14
ENDBRANCH  12  13
ENDBRANCH   6  12
BRANCH   7  30
HETATM   30  C   UNL     1      41.356 -13.551   4.545  1.00  0.00     0.066 A 
HETATM   31  C   UNL     1      41.952 -12.341   4.147  1.00  0.00     0.061 A 
HETATM   32 CL   UNL     1      43.277 -12.296   3.036  1.00  0.00    -0.082 Cl
HETATM   33  C   UNL     1      41.525 -11.133   4.703  1.00  0.00     0.026 A 
HETATM   34  C   UNL     1      40.504 -11.122   5.654  1.00  0.00     0.002 A 
HETATM   35  C   UNL     1      39.908 -12.317   6.053  1.00  0.00     0.002 A 
HETATM   36  C   UNL     1      40.328 -13.529   5.501  1.00  0.00     0.032 A 
ENDBRANCH   7  30
TORSDOF 5
ENDMDL
MODEL 4
REMARK VINA RESULT:      -8.5      4.568      8.280
REMARK  5 active torsions:
REMARK  status: ('A' for Active; 'I' for Inactive)
REMARK    1  A    between atoms: C_6  and  S_7 
REMARK    2  A    between atoms: S_7  and  C_8 
REMARK    3  A    between atoms: C_8  and  C_9 
REMARK       I    between atoms: C_9  and  N_10 
REMARK    4  A    between atoms: N_10  and  C_11 
REMARK    5  A    between atoms: N_22  and  C_23 
ROOT
HETATM    1  C   UNL     1      42.575  -6.973  -2.784  1.00  0.00     0.001 A 
HETATM    2  C   UNL     1      41.833  -8.070  -3.221  1.00  0.00     0.019 A 
HETATM    3  C   UNL     1      41.433  -9.047  -2.303  1.00  0.00     0.061 A 
HETATM    4  C   UNL     1      41.766  -8.941  -0.955  1.00  0.00     0.075 A 
HETATM    5  N   UNL     1      41.376  -9.895  -0.011  1.00  0.00    -0.223 NA
HETATM    6  C   UNL     1      40.692 -10.917  -0.411  1.00  0.00     0.177 A 
HETATM    7  N   UNL     1      40.293 -11.126  -1.724  1.00  0.00    -0.255 N 
HETATM    8  C   UNL     1      40.661 -10.228  -2.731  1.00  0.00     0.267 A 
HETATM    9  O   UNL     1      40.430 -10.375  -3.930  1.00  0.00    -0.267 OA
HETATM   10  C   UNL     1      42.514  -7.840  -0.528  1.00  0.00     0.032 A 
HETATM   11  C   UNL     1      42.917  -6.859  -1.437  1.00  0.00     0.002 A 
ENDROOT
BRANCH   6  12
HETATM   12  S   UNL     1      40.189 -12.040   0.846  1.00  0.00    -0.082 SA
BRANCH  12  13
HETATM   13  C   UNL     1      41.738 -12.187   1.793  1.00  0.00     0.185 C 
BRANCH  13  14
HETATM   14  C   UNL     1      41.819 -13.458   2.635  1.00  0.00     0.231 C 
HETATM   15  N   UNL     1      42.775 -14.363   2.217  1.00  0.00    -0.326 N 
HETATM   16  H   UNL     1      43.344 -14.061   1.429  1.00  0.00     0.169 HD
HETATM   17  O   UNL     1      41.023 -13.637   3.555  1.00  0.00    -0.272 OA
BRANCH  15  18
HETATM   18  C   UNL     1      43.059 -15.641   2.732  1.00  0.00     0.037 A 
HETATM   19  C   UNL     1      42.975 -16.817   1.978  1.00  0.00     0.061 A 
HETATM   20  C   UNL     1      43.313 -17.991   2.613  1.00  0.00     0.065 A 
HETATM   21  C   UNL     1      43.710 -18.034   3.946  1.00  0.00     0.063 A 
HETATM   22  N   UNL     1      43.346 -19.290   2.116  1.00  0.00    -0.306 N 
HETATM   23  N   UNL     1      43.981 -19.357   4.272  1.00  0.00    -0.307 N 
HETATM   24  C   UNL     1      43.794 -16.904   4.719  1.00  0.00     0.034 A 
HETATM   25  C   UNL     1      43.762 -20.154   3.139  1.00  0.00     0.325 A 
HETATM   26  H   UNL     1      44.290 -19.721   5.159  1.00  0.00     0.170 HD
HETATM   27  O   UNL     1      43.910 -21.360   3.060  1.00  0.00    -0.247 OA
HETATM   28  C   UNL     1      43.468 -15.695   4.092  1.00  0.00     0.032 A 
HETATM   29  H   UNL     1      43.118 -19.589   1.182  1.00  0.00     0.170 HD
ENDBRANCH  15  18
ENDBRANCH  13  14
ENDBRANCH  12  13
ENDBRANCH   6  12
BRANCH   7  30
HETATM   30  C   UNL     1      39.513 -12.251  -2.126  1.00  0.00     0.066 A 
HETATM   31  C   UNL     1      38.112 -12.173  -2.220  1.00  0.00     0.061 A 
HETATM   32 CL   UNL     1      37.239 -10.764  -1.723  1.00  0.00    -0.082 Cl
HETATM   33  C   UNL     1      37.376 -13.276  -2.661  1.00  0.00     0.026 A 
HETATM   34  C   UNL     1      38.029 -14.458  -3.010  1.00  0.00     0.002 A 
HETATM   35  C   UNL     1      39.418 -14.543  -2.919  1.00  0.00     0.002 A 
HETATM   36  C   UNL     1      40.161 -13.445  -2.482  1.00  0.00     0.032 A 
ENDBRANCH   7  30
TORSDOF 5
ENDMDL
MODEL 5
REMARK VINA RESULT:      -8.4      3.506      6.044
REMARK  5 active torsions:
REMARK  status: ('A' for Active; 'I' for Inactive)
REMARK    1  A    between atoms: C_6  and  S_7 
REMARK    2  A    between atoms: S_7  and  C_8 
REMARK    3  A    between atoms: C_8  and  C_9 
REMARK       I    between atoms: C_9  and  N_10 
REMARK    4  A    between atoms: N_10  and  C_11 
REMARK    5  A    between atoms: N_22  and  C_23 
ROOT
HETATM    1  C   UNL     1      46.309 -11.205   6.704  1.00  0.00     0.001 A 
HETATM    2  C   UNL     1      46.079 -10.642   7.959  1.00  0.00     0.019 A 
HETATM    3  C   UNL     1      44.785 -10.241   8.312  1.00  0.00     0.061 A 
HETATM    4  C   UNL     1      43.722 -10.398   7.427  1.00  0.00     0.075 A 
HETATM    5  N   UNL     1      42.417 -10.015   7.751  1.00  0.00    -0.223 NA
HETATM    6  C   UNL     1      42.197  -9.488   8.911  1.00  0.00     0.177 A 
HETATM    7  N   UNL     1      43.173  -9.291   9.878  1.00  0.00    -0.255 N 
HETATM    8  C   UNL     1      44.506  -9.627   9.623  1.00  0.00     0.267 A 
HETATM    9  O   UNL     1      45.449  -9.410  10.382  1.00  0.00    -0.267 OA
HETATM   10  C   UNL     1      43.964 -10.959   6.170  1.00  0.00     0.032 A 
HETATM   11  C   UNL     1      45.252 -11.363   5.809  1.00  0.00     0.002 A 
ENDROOT
BRANCH   6  12
HETATM   12  S   UNL     1      40.521  -9.089   9.265  1.00  0.00    -0.082 SA
BRANCH  12  13
HETATM   13  C   UNL     1      39.808  -9.148   7.590  1.00  0.00     0.185 C 
BRANCH  13  14
HETATM   14  C   UNL     1      39.548 -10.566   7.088  1.00  0.00     0.231 C 
HETATM   15  N   UNL     1      40.407 -10.989   6.093  1.00  0.00    -0.326 N 
HETATM   16  H   UNL     1      41.140 -10.328   5.842  1.00  0.00     0.169 HD
HETATM   17  O   UNL     1      38.591 -11.205   7.522  1.00  0.00    -0.272 OA
BRANCH  15  18
HETATM   18  C   UNL     1      40.397 -12.203   5.381  1.00  0.00     0.037 A 
HETATM   19  C   UNL     1      39.839 -12.349   4.106  1.00  0.00     0.061 A 
HETATM   20  C   UNL     1      39.932 -13.594   3.524  1.00  0.00     0.065 A 
HETATM   21  C   UNL     1      40.537 -14.675   4.159  1.00  0.00     0.063 A 
HETATM   22  N   UNL     1      39.496 -14.023   2.275  1.00  0.00    -0.306 N 
HETATM   23  N   UNL     1      40.467 -15.770   3.307  1.00  0.00    -0.307 N 
HETATM   24  C   UNL     1      41.084 -14.571   5.413  1.00  0.00     0.034 A 
HETATM   25  C   UNL     1      39.824 -15.379   2.123  1.00  0.00     0.325 A 
HETATM   26  H   UNL     1      40.814 -16.700   3.472  1.00  0.00     0.170 HD
HETATM   27  O   UNL     1      39.598 -16.080   1.154  1.00  0.00    -0.247 OA
HETATM   28  C   UNL     1      41.014 -13.311   6.021  1.00  0.00     0.032 A 
HETATM   29  H   UNL     1      39.025 -13.475   1.574  1.00  0.00     0.170 HD
ENDBRANCH  15  18
ENDBRANCH  13  14
ENDBRANCH  12  13
ENDBRANCH   6  12
BRANCH   7  30
HETATM   30  C   UNL     1      42.891  -8.732  11.160  1.00  0.00     0.066 A 
HETATM   31  C   UNL     1      42.765  -7.343  11.340  1.00  0.00     0.061 A 
HETATM   32 CL   UNL     1      43.081  -6.222  10.061  1.00  0.00    -0.082 Cl
HETATM   33  C   UNL     1      42.443  -6.825  12.597  1.00  0.00     0.026 A 
HETATM   34  C   UNL     1      42.244  -7.684  13.678  1.00  0.00     0.002 A 
HETATM   35  C   UNL     1      42.368  -9.062  13.508  1.00  0.00     0.002 A 
HETATM   36  C   UNL     1      42.687  -9.588  12.254  1.00  0.00     0.032 A 
ENDBRANCH   7  30
TORSDOF 5
ENDMDL
MODEL 6
REMARK VINA RESULT:      -8.4      3.970      9.322
REMARK  5 active torsions:
REMARK  status: ('A' for Active; 'I' for Inactive)
REMARK    1  A    between atoms: C_6  and  S_7 
REMARK    2  A    between atoms: S_7  and  C_8 
REMARK    3  A    between atoms: C_8  and  C_9 
REMARK       I    between atoms: C_9  and  N_10 
REMARK    4  A    between atoms: N_10  and  C_11 
REMARK    5  A    between atoms: N_22  and  C_23 
ROOT
HETATM    1  C   UNL     1      43.544 -18.800   2.421  1.00  0.00     0.001 A 
HETATM    2  C   UNL     1      42.843 -17.595   2.400  1.00  0.00     0.019 A 
HETATM    3  C   UNL     1      42.924 -16.727   3.495  1.00  0.00     0.061 A 
HETATM    4  C   UNL     1      43.697 -17.049   4.607  1.00  0.00     0.075 A 
HETATM    5  N   UNL     1      43.805 -16.202   5.714  1.00  0.00    -0.223 NA
HETATM    6  C   UNL     1      43.154 -15.085   5.703  1.00  0.00     0.177 A 
HETATM    7  N   UNL     1      42.361 -14.652   4.649  1.00  0.00    -0.255 N 
HETATM    8  C   UNL     1      42.184 -15.452   3.516  1.00  0.00     0.267 A 
HETATM    9  O   UNL     1      41.435 -15.192   2.575  1.00  0.00    -0.267 OA
HETATM   10  C   UNL     1      44.393 -18.262   4.620  1.00  0.00     0.032 A 
HETATM   11  C   UNL     1      44.318 -19.134   3.531  1.00  0.00     0.002 A 
ENDROOT
BRANCH   6  12
HETATM   12  S   UNL     1      43.390 -14.049   7.105  1.00  0.00    -0.082 SA
BRANCH  12  13
HETATM   13  C   UNL     1      44.657 -12.910   6.462  1.00  0.00     0.185 C 
BRANCH  13  14
HETATM   14  C   UNL     1      44.675 -11.556   7.166  1.00  0.00     0.231 C 
HETATM   15  N   UNL     1      43.780 -11.441   8.211  1.00  0.00    -0.326 N 
HETATM   16  H   UNL     1      43.247 -12.283   8.421  1.00  0.00     0.169 HD
HETATM   17  O   UNL     1      45.398 -10.655   6.746  1.00  0.00    -0.272 OA
BRANCH  15  18
HETATM   18  C   UNL     1      43.506 -10.319   9.014  1.00  0.00     0.037 A 
HETATM   19  C   UNL     1      42.468  -9.417   8.758  1.00  0.00     0.061 A 
HETATM   20  C   UNL     1      42.306  -8.381   9.652  1.00  0.00     0.065 A 
HETATM   21  C   UNL     1      43.132  -8.211  10.759  1.00  0.00     0.063 A 
HETATM   22  N   UNL     1      41.359  -7.362   9.665  1.00  0.00    -0.306 N 
HETATM   23  N   UNL     1      42.700  -7.086  11.450  1.00  0.00    -0.307 N 
HETATM   24  C   UNL     1      44.166  -9.069  11.036  1.00  0.00     0.034 A 
HETATM   25  C   UNL     1      41.591  -6.546  10.782  1.00  0.00     0.325 A 
HETATM   26  H   UNL     1      43.088  -6.697  12.293  1.00  0.00     0.170 HD
HETATM   27  O   UNL     1      40.953  -5.563  11.112  1.00  0.00    -0.247 OA
HETATM   28  C   UNL     1      44.343 -10.139  10.149  1.00  0.00     0.032 A 
HETATM   29  H   UNL     1      40.618  -7.212   9.001  1.00  0.00     0.170 HD
ENDBRANCH  15  18
ENDBRANCH  13  14
ENDBRANCH  12  13
ENDBRANCH   6  12
BRANCH   7  30
HETATM   30  C   UNL     1      41.678 -13.400   4.658  1.00  0.00     0.066 A 
HETATM   31  C   UNL     1      40.527 -13.200   5.442  1.00  0.00     0.061 A 
HETATM   32 CL   UNL     1      39.789 -14.490   6.327  1.00  0.00    -0.082 Cl
HETATM   33  C   UNL     1      39.904 -11.950   5.467  1.00  0.00     0.026 A 
HETATM   34  C   UNL     1      40.422 -10.894   4.717  1.00  0.00     0.002 A 
HETATM   35  C   UNL     1      41.562 -11.084   3.938  1.00  0.00     0.002 A 
HETATM   36  C   UNL     1      42.192 -12.330   3.908  1.00  0.00     0.032 A 
ENDBRANCH   7  30
TORSDOF 5
ENDMDL
MODEL 7
REMARK VINA RESULT:      -8.3      3.071      5.575
REMARK  5 active torsions:
REMARK  status: ('A' for Active; 'I' for Inactive)
REMARK    1  A    between atoms: C_6  and  S_7 
REMARK    2  A    between atoms: S_7  and  C_8 
REMARK    3  A    between atoms: C_8  and  C_9 
REMARK       I    between atoms: C_9  and  N_10 
REMARK    4  A    between atoms: N_10  and  C_11 
REMARK    5  A    between atoms: N_22  and  C_23 
ROOT
HETATM    1  C   UNL     1      43.839 -19.610   5.798  1.00  0.00     0.001 A 
HETATM    2  C   UNL     1      43.241 -18.440   6.265  1.00  0.00     0.019 A 
HETATM    3  C   UNL     1      43.109 -17.341   5.409  1.00  0.00     0.061 A 
HETATM    4  C   UNL     1      43.566 -17.398   4.095  1.00  0.00     0.075 A 
HETATM    5  N   UNL     1      43.443 -16.321   3.213  1.00  0.00    -0.223 NA
HETATM    6  C   UNL     1      42.894 -15.230   3.640  1.00  0.00     0.177 A 
HETATM    7  N   UNL     1      42.392 -15.059   4.923  1.00  0.00    -0.255 N 
HETATM    8  C   UNL     1      42.497 -16.081   5.872  1.00  0.00     0.267 A 
HETATM    9  O   UNL     1      42.161 -15.991   7.051  1.00  0.00    -0.267 OA
HETATM   10  C   UNL     1      44.169 -18.574   3.639  1.00  0.00     0.032 A 
HETATM   11  C   UNL     1      44.304 -19.676   4.486  1.00  0.00     0.002 A 
ENDROOT
BRANCH   6  12
HETATM   12  S   UNL     1      42.722 -13.944   2.453  1.00  0.00    -0.082 SA
BRANCH  12  13
HETATM   13  C   UNL     1      41.472 -14.679   1.351  1.00  0.00     0.185 C 
BRANCH  13  14
HETATM   14  C   UNL     1      40.553 -13.649   0.700  1.00  0.00     0.231 C 
HETATM   15  N   UNL     1      40.751 -13.479  -0.656  1.00  0.00    -0.326 N 
HETATM   16  H   UNL     1      41.452 -14.089  -1.072  1.00  0.00     0.169 HD
HETATM   17  O   UNL     1      39.767 -13.004   1.391  1.00  0.00    -0.272 OA
BRANCH  15  18
HETATM   18  C   UNL     1      40.120 -12.574  -1.530  1.00  0.00     0.037 A 
HETATM   19  C   UNL     1      38.736 -12.530  -1.732  1.00  0.00     0.061 A 
HETATM   20  C   UNL     1      38.263 -11.568  -2.597  1.00  0.00     0.065 A 
HETATM   21  C   UNL     1      39.103 -10.679  -3.262  1.00  0.00     0.063 A 
HETATM   22  N   UNL     1      36.954 -11.277  -2.969  1.00  0.00    -0.306 N 
HETATM   23  N   UNL     1      38.316  -9.846  -4.046  1.00  0.00    -0.307 N 
HETATM   24  C   UNL     1      40.464 -10.700  -3.095  1.00  0.00     0.034 A 
HETATM   25  C   UNL     1      36.970 -10.203  -3.872  1.00  0.00     0.325 A 
HETATM   26  H   UNL     1      38.621  -9.097  -4.646  1.00  0.00     0.170 HD
HETATM   27  O   UNL     1      36.006  -9.680  -4.399  1.00  0.00    -0.247 OA
HETATM   28  C   UNL     1      40.970 -11.661  -2.210  1.00  0.00     0.032 A 
HETATM   29  H   UNL     1      36.117 -11.739  -2.656  1.00  0.00     0.170 HD
ENDBRANCH  15  18
ENDBRANCH  13  14
ENDBRANCH  12  13
ENDBRANCH   6  12
BRANCH   7  30
HETATM   30  C   UNL     1      41.765 -13.852   5.354  1.00  0.00     0.066 A 
HETATM   31  C   UNL     1      42.508 -12.810   5.937  1.00  0.00     0.061 A 
HETATM   32 CL   UNL     1      44.192 -12.978   6.297  1.00  0.00    -0.082 Cl
HETATM   33  C   UNL     1      41.877 -11.621   6.308  1.00  0.00     0.026 A 
HETATM   34  C   UNL     1      40.506 -11.461   6.100  1.00  0.00     0.002 A 
HETATM   35  C   UNL     1      39.763 -12.490   5.523  1.00  0.00     0.002 A 
HETATM   36  C   UNL     1      40.387 -13.681   5.147  1.00  0.00     0.032 A 
ENDBRANCH   7  30
TORSDOF 5
ENDMDL
MODEL 8
REMARK VINA RESULT:      -8.3      4.158      7.509
REMARK  5 active torsions:
REMARK  status: ('A' for Active; 'I' for Inactive)
REMARK    1  A    between atoms: C_6  and  S_7 
REMARK    2  A    between atoms: S_7  and  C_8 
REMARK    3  A    between atoms: C_8  and  C_9 
REMARK       I    between atoms: C_9  and  N_10 
REMARK    4  A    between atoms: N_10  and  C_11 
REMARK    5  A    between atoms: N_22  and  C_23 
ROOT
HETATM    1  C   UNL     1      38.839 -14.557  -2.818  1.00  0.00     0.001 A 
HETATM    2  C   UNL     1      39.152 -14.982  -1.528  1.00  0.00     0.019 A 
HETATM    3  C   UNL     1      39.856 -14.130  -0.669  1.00  0.00     0.061 A 
HETATM    4  C   UNL     1      40.249 -12.861  -1.085  1.00  0.00     0.075 A 
HETATM    5  N   UNL     1      40.947 -11.983  -0.250  1.00  0.00    -0.223 NA
HETATM    6  C   UNL     1      41.245 -12.373   0.947  1.00  0.00     0.177 A 
HETATM    7  N   UNL     1      40.898 -13.609   1.475  1.00  0.00    -0.255 N 
HETATM    8  C   UNL     1      40.219 -14.551   0.697  1.00  0.00     0.267 A 
HETATM    9  O   UNL     1      39.948 -15.698   1.049  1.00  0.00    -0.267 OA
HETATM   10  C   UNL     1      39.935 -12.446  -2.382  1.00  0.00     0.032 A 
HETATM   11  C   UNL     1      39.232 -13.290  -3.246  1.00  0.00     0.002 A 
ENDROOT
BRANCH   6  12
HETATM   12  S   UNL     1      42.069 -11.190   1.954  1.00  0.00    -0.082 SA
BRANCH  12  13
HETATM   13  C   UNL     1      40.785  -9.904   2.068  1.00  0.00     0.185 C 
BRANCH  13  14
HETATM   14  C   UNL     1      40.825  -8.898   0.920  1.00  0.00     0.231 C 
HETATM   15  N   UNL     1      41.862  -9.086   0.028  1.00  0.00    -0.326 N 
HETATM   16  H   UNL     1      42.450  -9.897   0.210  1.00  0.00     0.169 HD
HETATM   17  O   UNL     1      40.016  -7.973   0.886  1.00  0.00    -0.272 OA
BRANCH  15  18
HETATM   18  C   UNL     1      42.213  -8.306  -1.089  1.00  0.00     0.037 A 
HETATM   19  C   UNL     1      41.891  -8.649  -2.406  1.00  0.00     0.061 A 
HETATM   20  C   UNL     1      42.277  -7.768  -3.393  1.00  0.00     0.065 A 
HETATM   21  C   UNL     1      42.968  -6.591  -3.118  1.00  0.00     0.063 A 
HETATM   22  N   UNL     1      42.077  -7.834  -4.768  1.00  0.00    -0.306 N 
HETATM   23  N   UNL     1      43.198  -5.937  -4.321  1.00  0.00    -0.307 N 
HETATM   24  C   UNL     1      43.309  -6.228  -1.840  1.00  0.00     0.034 A 
HETATM   25  C   UNL     1      42.645  -6.697  -5.361  1.00  0.00     0.325 A 
HETATM   26  H   UNL     1      43.673  -5.060  -4.462  1.00  0.00     0.170 HD
HETATM   27  O   UNL     1      42.654  -6.421  -6.547  1.00  0.00    -0.247 OA
HETATM   28  C   UNL     1      42.916  -7.101  -0.817  1.00  0.00     0.032 A 
HETATM   29  H   UNL     1      41.604  -8.561  -5.279  1.00  0.00     0.170 HD
ENDBRANCH  15  18
ENDBRANCH  13  14
ENDBRANCH  12  13
ENDBRANCH   6  12
BRANCH   7  30
HETATM   30  C   UNL     1      41.218 -13.996   2.811  1.00  0.00     0.066 A 
HETATM   31  C   UNL     1      42.441 -14.618   3.119  1.00  0.00     0.061 A 
HETATM   32 CL   UNL     1      43.568 -15.079   1.890  1.00  0.00    -0.082 Cl
HETATM   33  C   UNL     1      42.747 -14.946   4.442  1.00  0.00     0.026 A 
HETATM   34  C   UNL     1      41.841 -14.656   5.463  1.00  0.00     0.002 A 
HETATM   35  C   UNL     1      40.627 -14.040   5.165  1.00  0.00     0.002 A 
HETATM   36  C   UNL     1      40.314 -13.707   3.846  1.00  0.00     0.032 A 
ENDBRANCH   7  30
TORSDOF 5
ENDMDL
MODEL 9
REMARK VINA RESULT:      -8.3      3.464      8.778
REMARK  5 active torsions:
REMARK  status: ('A' for Active; 'I' for Inactive)
REMARK    1  A    between atoms: C_6  and  S_7 
REMARK    2  A    between atoms: S_7  and  C_8 
REMARK    3  A    between atoms: C_8  and  C_9 
REMARK       I    between atoms: C_9  and  N_10 
REMARK    4  A    between atoms: N_10  and  C_11 
REMARK    5  A    between atoms: N_22  and  C_23 
ROOT
HETATM    1  C   UNL     1      43.993 -19.752   3.075  1.00  0.00     0.001 A 
HETATM    2  C   UNL     1      43.613 -18.524   2.535  1.00  0.00     0.019 A 
HETATM    3  C   UNL     1      43.313 -17.455   3.388  1.00  0.00     0.061 A 
HETATM    4  C   UNL     1      43.388 -17.600   4.770  1.00  0.00     0.075 A 
HETATM    5  N   UNL     1      43.102 -16.552   5.649  1.00  0.00    -0.223 NA
HETATM    6  C   UNL     1      42.745 -15.411   5.155  1.00  0.00     0.177 A 
HETATM    7  N   UNL     1      42.645 -15.144   3.796  1.00  0.00    -0.255 N 
HETATM    8  C   UNL     1      42.893 -16.146   2.854  1.00  0.00     0.267 A 
HETATM    9  O   UNL     1      42.746 -16.028   1.638  1.00  0.00    -0.267 OA
HETATM   10  C   UNL     1      43.765 -18.837   5.301  1.00  0.00     0.032 A 
HETATM   11  C   UNL     1      44.067 -19.909   4.458  1.00  0.00     0.002 A 
ENDROOT
BRANCH   6  12
HETATM   12  S   UNL     1      42.461 -14.127   6.323  1.00  0.00    -0.082 SA
BRANCH  12  13
HETATM   13  C   UNL     1      44.176 -13.683   6.747  1.00  0.00     0.185 C 
BRANCH  13  14
HETATM   14  C   UNL     1      44.377 -12.189   6.988  1.00  0.00     0.231 C 
HETATM   15  N   UNL     1      43.331 -11.567   7.640  1.00  0.00    -0.326 N 
HETATM   16  H   UNL     1      42.570 -12.181   7.925  1.00  0.00     0.169 HD
HETATM   17  O   UNL     1      45.379 -11.626   6.551  1.00  0.00    -0.272 OA
BRANCH  15  18
HETATM   18  C   UNL     1      43.178 -10.204   7.955  1.00  0.00     0.037 A 
HETATM   19  C   UNL     1      42.429  -9.309   7.183  1.00  0.00     0.061 A 
HETATM   20  C   UNL     1      42.348  -8.011   7.635  1.00  0.00     0.065 A 
HETATM   21  C   UNL     1      42.983  -7.581   8.797  1.00  0.00     0.063 A 
HETATM   22  N   UNL     1      41.666  -6.925   7.096  1.00  0.00    -0.306 N 
HETATM   23  N   UNL     1      42.699  -6.233   8.970  1.00  0.00    -0.307 N 
HETATM   24  C   UNL     1      43.733  -8.427   9.573  1.00  0.00     0.034 A 
HETATM   25  C   UNL     1      41.873  -5.808   7.918  1.00  0.00     0.325 A 
HETATM   26  H   UNL     1      43.008  -5.630   9.714  1.00  0.00     0.170 HD
HETATM   27  O   UNL     1      41.424  -4.689   7.755  1.00  0.00    -0.247 OA
HETATM   28  C   UNL     1      43.821  -9.757   9.141  1.00  0.00     0.032 A 
HETATM   29  H   UNL     1      41.106  -6.914   6.259  1.00  0.00     0.170 HD
ENDBRANCH  15  18
ENDBRANCH  13  14
ENDBRANCH  12  13
ENDBRANCH   6  12
BRANCH   7  30
HETATM   30  C   UNL     1      42.275 -13.865   3.284  1.00  0.00     0.066 A 
HETATM   31  C   UNL     1      40.959 -13.596   2.867  1.00  0.00     0.061 A 
HETATM   32 CL   UNL     1      39.747 -14.829   2.815  1.00  0.00    -0.082 Cl
HETATM   33  C   UNL     1      40.614 -12.321   2.413  1.00  0.00     0.026 A 
HETATM   34  C   UNL     1      41.574 -11.309   2.372  1.00  0.00     0.002 A 
HETATM   35  C   UNL     1      42.880 -11.567   2.784  1.00  0.00     0.002 A 
HETATM   36  C   UNL     1      43.233 -12.839   3.241  1.00  0.00     0.032 A 
ENDBRANCH   7  30
TORSDOF 5
ENDMDL
MODEL 10
REMARK VINA RESULT:      -8.2     18.071     20.146
REMARK  5 active torsions:
REMARK  status: ('A' for Active; 'I' for Inactive)
REMARK    1  A    between atoms: C_6  and  S_7 
REMARK    2  A    between atoms: S_7  and  C_8 
REMARK    3  A    between atoms: C_8  and  C_9 
REMARK       I    between atoms: C_9  and  N_10 
REMARK    4  A    between atoms: N_10  and  C_11 
REMARK    5  A    between atoms: N_22  and  C_23 
ROOT
HETATM    1  C   UNL     1      45.074 -28.177  -3.677  1.00  0.00     0.001 A 
HETATM    2  C   UNL     1      46.066 -28.055  -2.704  1.00  0.00     0.019 A 
HETATM    3  C   UNL     1      46.056 -28.907  -1.594  1.00  0.00     0.061 A 
HETATM    4  C   UNL     1      45.070 -29.878  -1.446  1.00  0.00     0.075 A 
HETATM    5  N   UNL     1      45.036 -30.750  -0.354  1.00  0.00    -0.223 NA
HETATM    6  C   UNL     1      45.950 -30.639   0.555  1.00  0.00     0.177 A 
HETATM    7  N   UNL     1      46.987 -29.717   0.512  1.00  0.00    -0.255 N 
HETATM    8  C   UNL     1      47.079 -28.796  -0.537  1.00  0.00     0.267 A 
HETATM    9  O   UNL     1      47.908 -27.892  -0.615  1.00  0.00    -0.267 OA
HETATM   10  C   UNL     1      44.078 -29.990  -2.425  1.00  0.00     0.032 A 
HETATM   11  C   UNL     1      44.080 -29.144  -3.536  1.00  0.00     0.002 A 
ENDROOT
BRANCH   6  12
HETATM   12  S   UNL     1      45.873 -31.810   1.865  1.00  0.00    -0.082 SA
BRANCH  12  13
HETATM   13  C   UNL     1      44.819 -30.911   3.047  1.00  0.00     0.185 C 
BRANCH  13  14
HETATM   14  C   UNL     1      43.750 -31.785   3.698  1.00  0.00     0.231 C 
HETATM   15  N   UNL     1      42.651 -31.093   4.167  1.00  0.00    -0.326 N 
HETATM   16  H   UNL     1      42.658 -30.091   3.986  1.00  0.00     0.169 HD
HETATM   17  O   UNL     1      43.939 -32.993   3.828  1.00  0.00    -0.272 OA
BRANCH  15  18
HETATM   18  C   UNL     1      41.533 -31.588   4.864  1.00  0.00     0.037 A 
HETATM   19  C   UNL     1      40.349 -31.996   4.240  1.00  0.00     0.061 A 
HETATM   20  C   UNL     1      39.352 -32.486   5.054  1.00  0.00     0.065 A 
HETATM   21  C   UNL     1      39.487 -32.569   6.437  1.00  0.00     0.063 A 
HETATM   22  N   UNL     1      38.095 -32.980   4.718  1.00  0.00    -0.306 N 
HETATM   23  N   UNL     1      38.314 -33.105   6.953  1.00  0.00    -0.307 N 
HETATM   24  C   UNL     1      40.628 -32.168   7.084  1.00  0.00     0.034 A 
HETATM   25  C   UNL     1      37.436 -33.372   5.892  1.00  0.00     0.325 A 
HETATM   26  H   UNL     1      38.096 -33.292   7.918  1.00  0.00     0.170 HD
HETATM   27  O   UNL     1      36.321 -33.852   5.976  1.00  0.00    -0.247 OA
HETATM   28  C   UNL     1      41.663 -31.678   6.276  1.00  0.00     0.032 A 
HETATM   29  H   UNL     1      37.700 -33.058   3.796  1.00  0.00     0.170 HD
ENDBRANCH  15  18
ENDBRANCH  13  14
ENDBRANCH  12  13
ENDBRANCH   6  12
BRANCH   7  30
HETATM   30  C   UNL     1      47.996 -29.640   1.517  1.00  0.00     0.066 A 
HETATM   31  C   UNL     1      49.205 -30.350   1.397  1.00  0.00     0.061 A 
HETATM   32 CL   UNL     1      49.486 -31.463   0.102  1.00  0.00    -0.082 Cl
HETATM   33  C   UNL     1      50.194 -30.221   2.374  1.00  0.00     0.026 A 
HETATM   34  C   UNL     1      49.988 -29.387   3.473  1.00  0.00     0.002 A 
HETATM   35  C   UNL     1      48.793 -28.681   3.600  1.00  0.00     0.002 A 
HETATM   36  C   UNL     1      47.799 -28.802   2.626  1.00  0.00     0.032 A 
ENDBRANCH   7  30
TORSDOF 5
ENDMDL
