MODEL 1
REMARK VINA RESULT:      -8.4      0.000      0.000
REMARK  8 active torsions:
REMARK  status: ('A' for Active; 'I' for Inactive)
REMARK    1  A    between atoms: C_2  and  C_3 
REMARK    2  A    between atoms: C_3  and  O_4 
REMARK    3  A    between atoms: O_4  and  C_5 
REMARK    4  A    between atoms: C_7  and  C_8 
REMARK    5  A    between atoms: N_9  and  C_10 
REMARK    6  A    between atoms: C_10  and  C_11 
REMARK    7  A    between atoms: C_24  and  C_25 
REMARK    8  A    between atoms: C_26  and  O_27 
ROOT
HETATM    1  C   UNL     1      41.795 -15.670   5.017  1.00  0.00     0.159 A 
HETATM    2  N   UNL     1      41.814 -14.581   6.033  1.00  0.00    -0.329 N 
HETATM    3  C   UNL     1      42.937 -14.601   6.863  1.00  0.00     0.273 A 
HETATM    4  O   UNL     1      43.197 -13.878   7.807  1.00  0.00    -0.266 OA
HETATM    5  C   UNL     1      43.693 -15.687   6.367  1.00  0.00     0.129 A 
HETATM    6  C   UNL     1      43.083 -16.330   5.330  1.00  0.00     0.034 A 
HETATM    7  N   UNL     1      44.857 -16.302   6.611  1.00  0.00    -0.272 N 
HETATM    8  H   UNL     1      45.565 -16.084   7.307  1.00  0.00     0.189 HD
HETATM    9  N   UNL     1      45.052 -17.349   5.767  1.00  0.00    -0.173 NA
HETATM   10  C   UNL     1      43.932 -17.401   4.996  1.00  0.00     0.101 A 
ENDROOT
BRANCH   1  11
HETATM   11  C   UNL     1      41.858 -15.165   3.595  1.00  0.00    -0.028 A 
HETATM   12  C   UNL     1      40.825 -15.398   2.667  1.00  0.00     0.046 A 
HETATM   13  C   UNL     1      40.904 -14.933   1.350  1.00  0.00     0.069 A 
HETATM   14  C   UNL     1      42.027 -14.216   0.945  1.00  0.00     0.037 A 
HETATM   15  C   UNL     1      43.066 -13.979   1.848  1.00  0.00     0.003 A 
HETATM   16  C   UNL     1      42.986 -14.454   3.159  1.00  0.00     0.010 A 
BRANCH  13  17
HETATM   17  O   UNL     1      39.822 -15.247   0.574  1.00  0.00    -0.348 OA
BRANCH  17  18
HETATM   18  C   UNL     1      39.542 -14.391  -0.531  1.00  0.00     0.202 C 
BRANCH  18  19
HETATM   19  C   UNL     1      39.231 -15.269  -1.706  1.00  0.00    -0.011 C 
HETATM   20  C   UNL     1      38.611 -14.863  -2.822  1.00  0.00     0.009 C 
ENDBRANCH  18  19
ENDBRANCH  17  18
ENDBRANCH  13  17
ENDBRANCH   1  11
BRANCH   2  21
HETATM   21  C   UNL     1      40.684 -13.705   6.247  1.00  0.00     0.167 C 
BRANCH  21  22
HETATM   22  C   UNL     1      40.675 -12.554   5.281  1.00  0.00    -0.023 A 
HETATM   23  C   UNL     1      41.706 -11.622   5.263  1.00  0.00     0.125 A 
HETATM   24  N   UNL     1      41.773 -10.582   4.401  1.00  0.00    -0.273 NA
HETATM   25  C   UNL     1      40.757 -10.457   3.519  1.00  0.00     0.116 A 
HETATM   26  C   UNL     1      39.682 -11.327   3.456  1.00  0.00     0.020 A 
HETATM   27  C   UNL     1      39.644 -12.391   4.351  1.00  0.00     0.012 A 
ENDBRANCH  21  22
ENDBRANCH   2  21
BRANCH  10  28
HETATM   28  C   UNL     1      43.769 -18.453   3.989  1.00  0.00     0.028 A 
HETATM   29  C   UNL     1      43.952 -19.811   4.311  1.00  0.00     0.078 A 
HETATM   30  C   UNL     1      43.822 -20.810   3.347  1.00  0.00     0.037 A 
HETATM   31  C   UNL     1      43.486 -20.470   2.038  1.00  0.00     0.003 A 
HETATM   32  C   UNL     1      43.273 -19.136   1.702  1.00  0.00     0.001 A 
HETATM   33  C   UNL     1      43.409 -18.134   2.671  1.00  0.00     0.017 A 
BRANCH  29  34
HETATM   34  O   UNL     1      44.254 -20.232   5.581  1.00  0.00    -0.360 OA
HETATM   35  H   UNL     1      45.096 -20.738   5.506  1.00  0.00     0.217 HD
ENDBRANCH  29  34
ENDBRANCH  10  28
TORSDOF 8
ENDMDL
MODEL 2
REMARK VINA RESULT:      -8.2      2.020      6.430
REMARK  8 active torsions:
REMARK  status: ('A' for Active; 'I' for Inactive)
REMARK    1  A    between atoms: C_2  and  C_3 
REMARK    2  A    between atoms: C_3  and  O_4 
REMARK    3  A    between atoms: O_4  and  C_5 
REMARK    4  A    between atoms: C_7  and  C_8 
REMARK    5  A    between atoms: N_9  and  C_10 
REMARK    6  A    between atoms: C_10  and  C_11 
REMARK    7  A    between atoms: C_24  and  C_25 
REMARK    8  A    between atoms: C_26  and  O_27 
ROOT
HETATM    1  C   UNL     1      42.144 -14.731   4.055  1.00  0.00     0.159 A 
HETATM    2  N   UNL     1      42.776 -16.019   4.454  1.00  0.00    -0.329 N 
HETATM    3  C   UNL     1      42.240 -16.578   5.616  1.00  0.00     0.273 A 
HETATM    4  O   UNL     1      42.587 -17.585   6.205  1.00  0.00    -0.266 OA
HETATM    5  C   UNL     1      41.212 -15.675   5.971  1.00  0.00     0.129 A 
HETATM    6  C   UNL     1      41.126 -14.608   5.125  1.00  0.00     0.034 A 
HETATM    7  N   UNL     1      40.270 -15.536   6.913  1.00  0.00    -0.272 N 
HETATM    8  H   UNL     1      40.049 -16.147   7.694  1.00  0.00     0.189 HD
HETATM    9  N   UNL     1      39.549 -14.400   6.729  1.00  0.00    -0.173 NA
HETATM   10  C   UNL     1      40.103 -13.794   5.645  1.00  0.00     0.101 A 
ENDROOT
BRANCH   1  11
HETATM   11  C   UNL     1      41.426 -14.800   2.728  1.00  0.00    -0.028 A 
HETATM   12  C   UNL     1      41.572 -13.806   1.741  1.00  0.00     0.046 A 
HETATM   13  C   UNL     1      40.891 -13.880   0.522  1.00  0.00     0.069 A 
HETATM   14  C   UNL     1      40.053 -14.963   0.271  1.00  0.00     0.037 A 
HETATM   15  C   UNL     1      39.889 -15.956   1.239  1.00  0.00     0.003 A 
HETATM   16  C   UNL     1      40.564 -15.873   2.459  1.00  0.00     0.010 A 
BRANCH  13  17
HETATM   17  O   UNL     1      41.136 -12.834  -0.326  1.00  0.00    -0.348 OA
BRANCH  17  18
HETATM   18  C   UNL     1      40.463 -11.606  -0.058  1.00  0.00     0.202 C 
BRANCH  18  19
HETATM   19  C   UNL     1      39.135 -11.668  -0.752  1.00  0.00    -0.011 C 
HETATM   20  C   UNL     1      37.948 -11.531  -0.147  1.00  0.00     0.009 C 
ENDBRANCH  18  19
ENDBRANCH  17  18
ENDBRANCH  13  17
ENDBRANCH   1  11
BRANCH   2  21
HETATM   21  C   UNL     1      43.954 -16.538   3.794  1.00  0.00     0.167 C 
BRANCH  21  22
HETATM   22  C   UNL     1      43.798 -17.986   3.424  1.00  0.00    -0.023 A 
HETATM   23  C   UNL     1      44.375 -18.991   4.192  1.00  0.00     0.125 A 
HETATM   24  N   UNL     1      44.248 -20.312   3.932  1.00  0.00    -0.273 NA
HETATM   25  C   UNL     1      43.519 -20.650   2.846  1.00  0.00     0.116 A 
HETATM   26  C   UNL     1      42.907 -19.729   2.014  1.00  0.00     0.020 A 
HETATM   27  C   UNL     1      43.049 -18.378   2.310  1.00  0.00     0.012 A 
ENDBRANCH  21  22
ENDBRANCH   2  21
BRANCH  10  28
HETATM   28  C   UNL     1      39.602 -12.498   5.177  1.00  0.00     0.028 A 
HETATM   29  C   UNL     1      39.248 -11.480   6.082  1.00  0.00     0.078 A 
HETATM   30  C   UNL     1      38.747 -10.257   5.638  1.00  0.00     0.037 A 
HETATM   31  C   UNL     1      38.607 -10.019   4.273  1.00  0.00     0.003 A 
HETATM   32  C   UNL     1      38.978 -11.002   3.358  1.00  0.00     0.001 A 
HETATM   33  C   UNL     1      39.475 -12.231   3.806  1.00  0.00     0.017 A 
BRANCH  29  34
HETATM   34  O   UNL     1      39.383 -11.622   7.440  1.00  0.00    -0.360 OA
HETATM   35  H   UNL     1      39.962 -10.881   7.733  1.00  0.00     0.217 HD
ENDBRANCH  29  34
ENDBRANCH  10  28
TORSDOF 8
ENDMDL
MODEL 3
REMARK VINA RESULT:      -8.2      1.394      2.063
REMARK  8 active torsions:
REMARK  status: ('A' for Active; 'I' for Inactive)
REMARK    1  A    between atoms: C_2  and  C_3 
REMARK    2  A    between atoms: C_3  and  O_4 
REMARK    3  A    between atoms: O_4  and  C_5 
REMARK    4  A    between atoms: C_7  and  C_8 
REMARK    5  A    between atoms: N_9  and  C_10 
REMARK    6  A    between atoms: C_10  and  C_11 
REMARK    7  A    between atoms: C_24  and  C_25 
REMARK    8  A    between atoms: C_26  and  O_27 
ROOT
HETATM    1  C   UNL     1      41.597 -15.991   5.270  1.00  0.00     0.159 A 
HETATM    2  N   UNL     1      41.619 -14.874   6.254  1.00  0.00    -0.329 N 
HETATM    3  C   UNL     1      42.852 -14.703   6.888  1.00  0.00     0.273 A 
HETATM    4  O   UNL     1      43.151 -13.916   7.766  1.00  0.00    -0.266 OA
HETATM    5  C   UNL     1      43.669 -15.688   6.289  1.00  0.00     0.129 A 
HETATM    6  C   UNL     1      43.001 -16.450   5.376  1.00  0.00     0.034 A 
HETATM    7  N   UNL     1      44.935 -16.122   6.348  1.00  0.00    -0.272 N 
HETATM    8  H   UNL     1      45.705 -15.781   6.916  1.00  0.00     0.189 HD
HETATM    9  N   UNL     1      45.143 -17.162   5.498  1.00  0.00    -0.173 NA
HETATM   10  C   UNL     1      43.933 -17.401   4.922  1.00  0.00     0.101 A 
ENDROOT
BRANCH   1  11
HETATM   11  C   UNL     1      41.357 -15.536   3.850  1.00  0.00    -0.028 A 
HETATM   12  C   UNL     1      42.053 -14.454   3.278  1.00  0.00     0.046 A 
HETATM   13  C   UNL     1      41.811 -14.038   1.965  1.00  0.00     0.069 A 
HETATM   14  C   UNL     1      40.863 -14.713   1.199  1.00  0.00     0.037 A 
HETATM   15  C   UNL     1      40.157 -15.784   1.749  1.00  0.00     0.003 A 
HETATM   16  C   UNL     1      40.396 -16.189   3.064  1.00  0.00     0.010 A 
BRANCH  13  17
HETATM   17  O   UNL     1      42.564 -12.970   1.562  1.00  0.00    -0.348 OA
BRANCH  17  18
HETATM   18  C   UNL     1      42.392 -11.746   2.272  1.00  0.00     0.202 C 
BRANCH  18  19
HETATM   19  C   UNL     1      41.748 -10.773   1.329  1.00  0.00    -0.011 C 
HETATM   20  C   UNL     1      40.559 -10.952   0.739  1.00  0.00     0.009 C 
ENDBRANCH  18  19
ENDBRANCH  17  18
ENDBRANCH  13  17
ENDBRANCH   1  11
BRANCH   2  21
HETATM   21  C   UNL     1      40.423 -14.159   6.638  1.00  0.00     0.167 C 
BRANCH  21  22
HETATM   22  C   UNL     1      40.296 -12.847   5.917  1.00  0.00    -0.023 A 
HETATM   23  C   UNL     1      41.108 -11.766   6.243  1.00  0.00     0.125 A 
HETATM   24  N   UNL     1      41.066 -10.570   5.613  1.00  0.00    -0.273 NA
HETATM   25  C   UNL     1      40.162 -10.439   4.618  1.00  0.00     0.116 A 
HETATM   26  C   UNL     1      39.305 -11.449   4.219  1.00  0.00     0.020 A 
HETATM   27  C   UNL     1      39.376 -12.671   4.879  1.00  0.00     0.012 A 
ENDBRANCH  21  22
ENDBRANCH   2  21
BRANCH  10  28
HETATM   28  C   UNL     1      43.766 -18.503   3.970  1.00  0.00     0.028 A 
HETATM   29  C   UNL     1      43.968 -19.842   4.355  1.00  0.00     0.078 A 
HETATM   30  C   UNL     1      43.835 -20.888   3.443  1.00  0.00     0.037 A 
HETATM   31  C   UNL     1      43.475 -20.616   2.125  1.00  0.00     0.003 A 
HETATM   32  C   UNL     1      43.243 -19.302   1.727  1.00  0.00     0.001 A 
HETATM   33  C   UNL     1      43.383 -18.253   2.644  1.00  0.00     0.017 A 
BRANCH  29  34
HETATM   34  O   UNL     1      44.294 -20.197   5.639  1.00  0.00    -0.360 OA
HETATM   35  H   UNL     1      44.427 -21.173   5.625  1.00  0.00     0.217 HD
ENDBRANCH  29  34
ENDBRANCH  10  28
TORSDOF 8
ENDMDL
MODEL 4
REMARK VINA RESULT:      -8.1      2.267      6.544
REMARK  8 active torsions:
REMARK  status: ('A' for Active; 'I' for Inactive)
REMARK    1  A    between atoms: C_2  and  C_3 
REMARK    2  A    between atoms: C_3  and  O_4 
REMARK    3  A    between atoms: O_4  and  C_5 
REMARK    4  A    between atoms: C_7  and  C_8 
REMARK    5  A    between atoms: N_9  and  C_10 
REMARK    6  A    between atoms: C_10  and  C_11 
REMARK    7  A    between atoms: C_24  and  C_25 
REMARK    8  A    between atoms: C_26  and  O_27 
ROOT
HETATM    1  C   UNL     1      42.987 -12.581   4.015  1.00  0.00     0.159 A 
HETATM    2  N   UNL     1      43.155 -12.345   5.475  1.00  0.00    -0.329 N 
HETATM    3  C   UNL     1      42.406 -11.273   5.965  1.00  0.00     0.273 A 
HETATM    4  O   UNL     1      42.382 -10.815   7.093  1.00  0.00    -0.266 OA
HETATM    5  C   UNL     1      41.700 -10.818   4.829  1.00  0.00     0.129 A 
HETATM    6  C   UNL     1      42.003 -11.519   3.699  1.00  0.00     0.034 A 
HETATM    7  N   UNL     1      40.801  -9.879   4.507  1.00  0.00    -0.272 N 
HETATM    8  H   UNL     1      40.354  -9.187   5.103  1.00  0.00     0.189 HD
HETATM    9  N   UNL     1      40.488  -9.923   3.186  1.00  0.00    -0.173 NA
HETATM   10  C   UNL     1      41.265 -10.912   2.667  1.00  0.00     0.101 A 
ENDROOT
BRANCH   1  11
HETATM   11  C   UNL     1      42.358 -13.916   3.691  1.00  0.00    -0.028 A 
HETATM   12  C   UNL     1      43.055 -14.929   3.004  1.00  0.00     0.046 A 
HETATM   13  C   UNL     1      42.454 -16.155   2.702  1.00  0.00     0.069 A 
HETATM   14  C   UNL     1      41.138 -16.386   3.094  1.00  0.00     0.037 A 
HETATM   15  C   UNL     1      40.427 -15.393   3.771  1.00  0.00     0.003 A 
HETATM   16  C   UNL     1      41.029 -14.166   4.061  1.00  0.00     0.010 A 
BRANCH  13  17
HETATM   17  O   UNL     1      43.262 -17.029   2.027  1.00  0.00    -0.348 OA
BRANCH  17  18
HETATM   18  C   UNL     1      43.735 -18.166   2.744  1.00  0.00     0.202 C 
BRANCH  18  19
HETATM   19  C   UNL     1      43.071 -19.373   2.152  1.00  0.00    -0.011 C 
HETATM   20  C   UNL     1      43.698 -20.511   1.828  1.00  0.00     0.009 C 
ENDBRANCH  18  19
ENDBRANCH  17  18
ENDBRANCH  13  17
ENDBRANCH   1  11
BRANCH   2  21
HETATM   21  C   UNL     1      44.141 -13.050   6.263  1.00  0.00     0.167 C 
BRANCH  21  22
HETATM   22  C   UNL     1      43.730 -14.469   6.537  1.00  0.00    -0.023 A 
HETATM   23  C   UNL     1      42.535 -14.760   7.185  1.00  0.00     0.125 A 
HETATM   24  N   UNL     1      42.094 -16.014   7.435  1.00  0.00    -0.273 NA
HETATM   25  C   UNL     1      42.887 -17.029   7.030  1.00  0.00     0.116 A 
HETATM   26  C   UNL     1      44.096 -16.849   6.381  1.00  0.00     0.020 A 
HETATM   27  C   UNL     1      44.521 -15.549   6.131  1.00  0.00     0.012 A 
ENDBRANCH  21  22
ENDBRANCH   2  21
BRANCH  10  28
HETATM   28  C   UNL     1      41.227 -11.214   1.232  1.00  0.00     0.028 A 
HETATM   29  C   UNL     1      41.600 -10.255   0.272  1.00  0.00     0.078 A 
HETATM   30  C   UNL     1      41.539 -10.534  -1.093  1.00  0.00     0.037 A 
HETATM   31  C   UNL     1      41.121 -11.790  -1.526  1.00  0.00     0.003 A 
HETATM   32  C   UNL     1      40.774 -12.764  -0.593  1.00  0.00     0.001 A 
HETATM   33  C   UNL     1      40.831 -12.480   0.777  1.00  0.00     0.017 A 
BRANCH  29  34
HETATM   34  O   UNL     1      42.051  -9.006   0.614  1.00  0.00    -0.360 OA
HETATM   35  H   UNL     1      41.320  -8.384   0.395  1.00  0.00     0.217 HD
ENDBRANCH  29  34
ENDBRANCH  10  28
TORSDOF 8
ENDMDL
MODEL 5
REMARK VINA RESULT:      -7.8      2.783      6.079
REMARK  8 active torsions:
REMARK  status: ('A' for Active; 'I' for Inactive)
REMARK    1  A    between atoms: C_2  and  C_3 
REMARK    2  A    between atoms: C_3  and  O_4 
REMARK    3  A    between atoms: O_4  and  C_5 
REMARK    4  A    between atoms: C_7  and  C_8 
REMARK    5  A    between atoms: N_9  and  C_10 
REMARK    6  A    between atoms: C_10  and  C_11 
REMARK    7  A    between atoms: C_24  and  C_25 
REMARK    8  A    between atoms: C_26  and  O_27 
ROOT
HETATM    1  C   UNL     1      43.176 -12.617   4.538  1.00  0.00     0.159 A 
HETATM    2  N   UNL     1      43.592 -11.542   5.481  1.00  0.00    -0.329 N 
HETATM    3  C   UNL     1      42.648 -10.524   5.630  1.00  0.00     0.273 A 
HETATM    4  O   UNL     1      42.732  -9.500   6.284  1.00  0.00    -0.266 OA
HETATM    5  C   UNL     1      41.576 -10.945   4.811  1.00  0.00     0.129 A 
HETATM    6  C   UNL     1      41.832 -12.118   4.163  1.00  0.00     0.034 A 
HETATM    7  N   UNL     1      40.352 -10.534   4.459  1.00  0.00    -0.272 N 
HETATM    8  H   UNL     1      39.843  -9.706   4.755  1.00  0.00     0.189 HD
HETATM    9  N   UNL     1      39.770 -11.398   3.586  1.00  0.00    -0.173 NA
HETATM   10  C   UNL     1      40.702 -12.363   3.362  1.00  0.00     0.101 A 
ENDROOT
BRANCH   1  11
HETATM   11  C   UNL     1      43.011 -13.965   5.199  1.00  0.00    -0.028 A 
HETATM   12  C   UNL     1      43.258 -15.173   4.518  1.00  0.00     0.046 A 
HETATM   13  C   UNL     1      43.088 -16.413   5.141  1.00  0.00     0.069 A 
HETATM   14  C   UNL     1      42.672 -16.459   6.469  1.00  0.00     0.037 A 
HETATM   15  C   UNL     1      42.416 -15.274   7.161  1.00  0.00     0.003 A 
HETATM   16  C   UNL     1      42.577 -14.038   6.530  1.00  0.00     0.010 A 
BRANCH  13  17
HETATM   17  O   UNL     1      43.364 -17.489   4.342  1.00  0.00    -0.348 OA
BRANCH  17  18
HETATM   18  C   UNL     1      43.405 -17.263   2.935  1.00  0.00     0.202 C 
BRANCH  18  19
HETATM   19  C   UNL     1      42.862 -18.493   2.272  1.00  0.00    -0.011 C 
HETATM   20  C   UNL     1      43.449 -19.697   2.292  1.00  0.00     0.009 C 
ENDBRANCH  18  19
ENDBRANCH  17  18
ENDBRANCH  13  17
ENDBRANCH   1  11
BRANCH   2  21
HETATM   21  C   UNL     1      44.923 -11.480   6.043  1.00  0.00     0.167 C 
BRANCH  21  22
HETATM   22  C   UNL     1      44.918 -10.920   7.437  1.00  0.00    -0.023 A 
HETATM   23  C   UNL     1      44.136 -11.486   8.437  1.00  0.00     0.125 A 
HETATM   24  N   UNL     1      44.109 -11.050   9.717  1.00  0.00    -0.273 NA
HETATM   25  C   UNL     1      44.891  -9.990  10.014  1.00  0.00     0.116 A 
HETATM   26  C   UNL     1      45.703  -9.351   9.093  1.00  0.00     0.020 A 
HETATM   27  C   UNL     1      45.715  -9.826   7.787  1.00  0.00     0.012 A 
ENDBRANCH  21  22
ENDBRANCH   2  21
BRANCH  10  28
HETATM   28  C   UNL     1      40.434 -13.454   2.419  1.00  0.00     0.028 A 
HETATM   29  C   UNL     1      40.394 -13.228   1.031  1.00  0.00     0.078 A 
HETATM   30  C   UNL     1      40.113 -14.260   0.136  1.00  0.00     0.037 A 
HETATM   31  C   UNL     1      39.887 -15.548   0.613  1.00  0.00     0.003 A 
HETATM   32  C   UNL     1      39.949 -15.802   1.981  1.00  0.00     0.001 A 
HETATM   33  C   UNL     1      40.226 -14.762   2.878  1.00  0.00     0.017 A 
BRANCH  29  34
HETATM   34  O   UNL     1      40.636 -11.996   0.477  1.00  0.00    -0.360 OA
HETATM   35  H   UNL     1      39.761 -11.660   0.173  1.00  0.00     0.217 HD
ENDBRANCH  29  34
ENDBRANCH  10  28
TORSDOF 8
ENDMDL
MODEL 6
REMARK VINA RESULT:      -7.7      2.486      6.838
REMARK  8 active torsions:
REMARK  status: ('A' for Active; 'I' for Inactive)
REMARK    1  A    between atoms: C_2  and  C_3 
REMARK    2  A    between atoms: C_3  and  O_4 
REMARK    3  A    between atoms: O_4  and  C_5 
REMARK    4  A    between atoms: C_7  and  C_8 
REMARK    5  A    between atoms: N_9  and  C_10 
REMARK    6  A    between atoms: C_10  and  C_11 
REMARK    7  A    between atoms: C_24  and  C_25 
REMARK    8  A    between atoms: C_26  and  O_27 
ROOT
HETATM    1  C   UNL     1      40.824 -12.060   2.836  1.00  0.00     0.159 A 
HETATM    2  N   UNL     1      40.416 -11.645   4.207  1.00  0.00    -0.329 N 
HETATM    3  C   UNL     1      39.199 -10.962   4.253  1.00  0.00     0.273 A 
HETATM    4  O   UNL     1      38.645 -10.461   5.214  1.00  0.00    -0.266 OA
HETATM    5  C   UNL     1      38.771 -10.960   2.906  1.00  0.00     0.129 A 
HETATM    6  C   UNL     1      39.662 -11.559   2.065  1.00  0.00     0.034 A 
HETATM    7  N   UNL     1      37.732 -10.534   2.177  1.00  0.00    -0.272 N 
HETATM    8  H   UNL     1      36.890 -10.052   2.480  1.00  0.00     0.189 HD
HETATM    9  N   UNL     1      37.896 -10.826   0.861  1.00  0.00    -0.173 NA
HETATM   10  C   UNL     1      39.115 -11.425   0.776  1.00  0.00     0.101 A 
ENDROOT
BRANCH   1  11
HETATM   11  C   UNL     1      40.895 -13.558   2.659  1.00  0.00    -0.028 A 
HETATM   12  C   UNL     1      42.110 -14.267   2.729  1.00  0.00     0.046 A 
HETATM   13  C   UNL     1      42.161 -15.653   2.551  1.00  0.00     0.069 A 
HETATM   14  C   UNL     1      40.983 -16.354   2.306  1.00  0.00     0.037 A 
HETATM   15  C   UNL     1      39.768 -15.670   2.226  1.00  0.00     0.003 A 
HETATM   16  C   UNL     1      39.725 -14.284   2.395  1.00  0.00     0.010 A 
BRANCH  13  17
HETATM   17  O   UNL     1      43.416 -16.189   2.643  1.00  0.00    -0.348 OA
BRANCH  17  18
HETATM   18  C   UNL     1      43.537 -17.599   2.471  1.00  0.00     0.202 C 
BRANCH  18  19
HETATM   19  C   UNL     1      43.842 -18.187   3.817  1.00  0.00    -0.011 C 
HETATM   20  C   UNL     1      44.293 -17.493   4.870  1.00  0.00     0.009 C 
ENDBRANCH  18  19
ENDBRANCH  17  18
ENDBRANCH  13  17
ENDBRANCH   1  11
BRANCH   2  21
HETATM   21  C   UNL     1      41.293 -11.782   5.348  1.00  0.00     0.167 C 
BRANCH  21  22
HETATM   22  C   UNL     1      41.311 -13.188   5.877  1.00  0.00    -0.023 A 
HETATM   23  C   UNL     1      42.495 -13.788   6.289  1.00  0.00     0.125 A 
HETATM   24  N   UNL     1      42.575 -15.037   6.801  1.00  0.00    -0.273 NA
HETATM   25  C   UNL     1      41.419 -15.729   6.898  1.00  0.00     0.116 A 
HETATM   26  C   UNL     1      40.187 -15.227   6.513  1.00  0.00     0.020 A 
HETATM   27  C   UNL     1      40.136 -13.937   5.996  1.00  0.00     0.012 A 
ENDBRANCH  21  22
ENDBRANCH   2  21
BRANCH  10  28
HETATM   28  C   UNL     1      39.653 -11.840  -0.523  1.00  0.00     0.028 A 
HETATM   29  C   UNL     1      38.935 -12.704  -1.371  1.00  0.00     0.078 A 
HETATM   30  C   UNL     1      39.458 -13.120  -2.595  1.00  0.00     0.037 A 
HETATM   31  C   UNL     1      40.707 -12.661  -3.007  1.00  0.00     0.003 A 
HETATM   32  C   UNL     1      41.424 -11.783  -2.197  1.00  0.00     0.001 A 
HETATM   33  C   UNL     1      40.898 -11.372  -0.966  1.00  0.00     0.017 A 
BRANCH  29  34
HETATM   34  O   UNL     1      37.687 -13.177  -1.055  1.00  0.00    -0.360 OA
HETATM   35  H   UNL     1      37.599 -14.043  -1.517  1.00  0.00     0.217 HD
ENDBRANCH  29  34
ENDBRANCH  10  28
TORSDOF 8
ENDMDL
MODEL 7
REMARK VINA RESULT:      -7.7      2.675      7.689
REMARK  8 active torsions:
REMARK  status: ('A' for Active; 'I' for Inactive)
REMARK    1  A    between atoms: C_2  and  C_3 
REMARK    2  A    between atoms: C_3  and  O_4 
REMARK    3  A    between atoms: O_4  and  C_5 
REMARK    4  A    between atoms: C_7  and  C_8 
REMARK    5  A    between atoms: N_9  and  C_10 
REMARK    6  A    between atoms: C_10  and  C_11 
REMARK    7  A    between atoms: C_24  and  C_25 
REMARK    8  A    between atoms: C_26  and  O_27 
ROOT
HETATM    1  C   UNL     1      39.927 -14.175   3.266  1.00  0.00     0.159 A 
HETATM    2  N   UNL     1      40.847 -15.345   3.306  1.00  0.00    -0.329 N 
HETATM    3  C   UNL     1      41.542 -15.561   2.115  1.00  0.00     0.273 A 
HETATM    4  O   UNL     1      42.313 -16.461   1.837  1.00  0.00    -0.266 OA
HETATM    5  C   UNL     1      41.113 -14.498   1.287  1.00  0.00     0.129 A 
HETATM    6  C   UNL     1      40.191 -13.694   1.890  1.00  0.00     0.034 A 
HETATM    7  N   UNL     1      41.335 -14.026   0.054  1.00  0.00    -0.272 N 
HETATM    8  H   UNL     1      41.963 -14.376  -0.664  1.00  0.00     0.189 HD
HETATM    9  N   UNL     1      40.585 -12.922  -0.197  1.00  0.00    -0.173 NA
HETATM   10  C   UNL     1      39.837 -12.734   0.924  1.00  0.00     0.101 A 
ENDROOT
BRANCH   1  11
HETATM   11  C   UNL     1      40.310 -13.077   4.230  1.00  0.00    -0.028 A 
HETATM   12  C   UNL     1      41.512 -12.353   4.107  1.00  0.00     0.046 A 
HETATM   13  C   UNL     1      41.857 -11.346   5.014  1.00  0.00     0.069 A 
HETATM   14  C   UNL     1      40.991 -11.045   6.062  1.00  0.00     0.037 A 
HETATM   15  C   UNL     1      39.797 -11.755   6.206  1.00  0.00     0.003 A 
HETATM   16  C   UNL     1      39.462 -12.766   5.302  1.00  0.00     0.010 A 
BRANCH  13  17
HETATM   17  O   UNL     1      43.058 -10.743   4.759  1.00  0.00    -0.348 OA
BRANCH  17  18
HETATM   18  C   UNL     1      44.230 -11.545   4.884  1.00  0.00     0.202 C 
BRANCH  18  19
HETATM   19  C   UNL     1      44.607 -11.558   6.336  1.00  0.00    -0.011 C 
HETATM   20  C   UNL     1      45.796 -11.177   6.821  1.00  0.00     0.009 C 
ENDBRANCH  18  19
ENDBRANCH  17  18
ENDBRANCH  13  17
ENDBRANCH   1  11
BRANCH   2  21
HETATM   21  C   UNL     1      40.873 -16.269   4.419  1.00  0.00     0.167 C 
BRANCH  21  22
HETATM   22  C   UNL     1      42.189 -16.240   5.142  1.00  0.00    -0.023 A 
HETATM   23  C   UNL     1      43.116 -17.265   4.991  1.00  0.00     0.125 A 
HETATM   24  N   UNL     1      44.329 -17.284   5.589  1.00  0.00    -0.273 NA
HETATM   25  C   UNL     1      44.629 -16.238   6.388  1.00  0.00     0.116 A 
HETATM   26  C   UNL     1      43.777 -15.170   6.610  1.00  0.00     0.020 A 
HETATM   27  C   UNL     1      42.539 -15.174   5.976  1.00  0.00     0.012 A 
ENDBRANCH  21  22
ENDBRANCH   2  21
BRANCH  10  28
HETATM   28  C   UNL     1      38.859 -11.644   0.995  1.00  0.00     0.028 A 
HETATM   29  C   UNL     1      37.808 -11.541   0.064  1.00  0.00     0.078 A 
HETATM   30  C   UNL     1      36.894 -10.490   0.116  1.00  0.00     0.037 A 
HETATM   31  C   UNL     1      37.002  -9.526   1.116  1.00  0.00     0.003 A 
HETATM   32  C   UNL     1      38.017  -9.622   2.064  1.00  0.00     0.001 A 
HETATM   33  C   UNL     1      38.937 -10.676   2.007  1.00  0.00     0.017 A 
BRANCH  29  34
HETATM   34  O   UNL     1      37.613 -12.464  -0.932  1.00  0.00    -0.360 OA
HETATM   35  H   UNL     1      36.663 -12.721  -0.881  1.00  0.00     0.217 HD
ENDBRANCH  29  34
ENDBRANCH  10  28
TORSDOF 8
ENDMDL
MODEL 8
REMARK VINA RESULT:      -7.7      2.817      6.152
REMARK  8 active torsions:
REMARK  status: ('A' for Active; 'I' for Inactive)
REMARK    1  A    between atoms: C_2  and  C_3 
REMARK    2  A    between atoms: C_3  and  O_4 
REMARK    3  A    between atoms: O_4  and  C_5 
REMARK    4  A    between atoms: C_7  and  C_8 
REMARK    5  A    between atoms: N_9  and  C_10 
REMARK    6  A    between atoms: C_10  and  C_11 
REMARK    7  A    between atoms: C_24  and  C_25 
REMARK    8  A    between atoms: C_26  and  O_27 
ROOT
HETATM    1  C   UNL     1      42.122 -12.799   2.510  1.00  0.00     0.159 A 
HETATM    2  N   UNL     1      41.155 -11.984   1.724  1.00  0.00    -0.329 N 
HETATM    3  C   UNL     1      39.961 -12.647   1.434  1.00  0.00     0.273 A 
HETATM    4  O   UNL     1      39.018 -12.258   0.769  1.00  0.00    -0.266 OA
HETATM    5  C   UNL     1      40.117 -13.900   2.068  1.00  0.00     0.129 A 
HETATM    6  C   UNL     1      41.328 -14.038   2.681  1.00  0.00     0.034 A 
HETATM    7  N   UNL     1      39.425 -15.031   2.255  1.00  0.00    -0.272 N 
HETATM    8  H   UNL     1      38.488 -15.270   1.941  1.00  0.00     0.189 HD
HETATM    9  N   UNL     1      40.136 -15.934   2.978  1.00  0.00    -0.173 NA
HETATM   10  C   UNL     1      41.339 -15.342   3.209  1.00  0.00     0.101 A 
ENDROOT
BRANCH   1  11
HETATM   11  C   UNL     1      42.410 -12.232   3.880  1.00  0.00    -0.028 A 
HETATM   12  C   UNL     1      43.701 -11.823   4.269  1.00  0.00     0.046 A 
HETATM   13  C   UNL     1      43.953 -11.311   5.546  1.00  0.00     0.069 A 
HETATM   14  C   UNL     1      42.904 -11.195   6.455  1.00  0.00     0.037 A 
HETATM   15  C   UNL     1      41.619 -11.601   6.092  1.00  0.00     0.003 A 
HETATM   16  C   UNL     1      41.374 -12.121   4.819  1.00  0.00     0.010 A 
BRANCH  13  17
HETATM   17  O   UNL     1      45.258 -10.966   5.768  1.00  0.00    -0.348 OA
BRANCH  17  18
HETATM   18  C   UNL     1      45.794 -11.242   7.060  1.00  0.00     0.202 C 
BRANCH  18  19
HETATM   19  C   UNL     1      46.283  -9.941   7.625  1.00  0.00    -0.011 C 
HETATM   20  C   UNL     1      45.540  -9.093   8.347  1.00  0.00     0.009 C 
ENDBRANCH  18  19
ENDBRANCH  17  18
ENDBRANCH  13  17
ENDBRANCH   1  11
BRANCH   2  21
HETATM   21  C   UNL     1      41.504 -10.696   1.167  1.00  0.00     0.167 C 
BRANCH  21  22
HETATM   22  C   UNL     1      40.729  -9.579   1.806  1.00  0.00    -0.023 A 
HETATM   23  C   UNL     1      39.741  -8.896   1.106  1.00  0.00     0.125 A 
HETATM   24  N   UNL     1      38.988  -7.903   1.632  1.00  0.00    -0.273 NA
HETATM   25  C   UNL     1      39.239  -7.565   2.916  1.00  0.00     0.116 A 
HETATM   26  C   UNL     1      40.202  -8.178   3.698  1.00  0.00     0.020 A 
HETATM   27  C   UNL     1      40.956  -9.200   3.133  1.00  0.00     0.012 A 
ENDBRANCH  21  22
ENDBRANCH   2  21
BRANCH  10  28
HETATM   28  C   UNL     1      42.395 -16.056   3.932  1.00  0.00     0.028 A 
HETATM   29  C   UNL     1      42.921 -17.270   3.451  1.00  0.00     0.078 A 
HETATM   30  C   UNL     1      43.907 -17.962   4.153  1.00  0.00     0.037 A 
HETATM   31  C   UNL     1      44.404 -17.442   5.345  1.00  0.00     0.003 A 
HETATM   32  C   UNL     1      43.920 -16.228   5.826  1.00  0.00     0.001 A 
HETATM   33  C   UNL     1      42.926 -15.537   5.122  1.00  0.00     0.017 A 
BRANCH  29  34
HETATM   34  O   UNL     1      42.508 -17.835   2.272  1.00  0.00    -0.360 OA
HETATM   35  H   UNL     1      41.582 -18.137   2.425  1.00  0.00     0.217 HD
ENDBRANCH  29  34
ENDBRANCH  10  28
TORSDOF 8
ENDMDL
MODEL 9
REMARK VINA RESULT:      -7.7      2.602      6.744
REMARK  8 active torsions:
REMARK  status: ('A' for Active; 'I' for Inactive)
REMARK    1  A    between atoms: C_2  and  C_3 
REMARK    2  A    between atoms: C_3  and  O_4 
REMARK    3  A    between atoms: O_4  and  C_5 
REMARK    4  A    between atoms: C_7  and  C_8 
REMARK    5  A    between atoms: N_9  and  C_10 
REMARK    6  A    between atoms: C_10  and  C_11 
REMARK    7  A    between atoms: C_24  and  C_25 
REMARK    8  A    between atoms: C_26  and  O_27 
ROOT
HETATM    1  C   UNL     1      42.096 -12.470   1.692  1.00  0.00     0.159 A 
HETATM    2  N   UNL     1      42.524 -11.581   2.806  1.00  0.00    -0.329 N 
HETATM    3  C   UNL     1      41.640 -10.531   3.065  1.00  0.00     0.273 A 
HETATM    4  O   UNL     1      41.751  -9.625   3.870  1.00  0.00    -0.266 OA
HETATM    5  C   UNL     1      40.592 -10.749   2.142  1.00  0.00     0.129 A 
HETATM    6  C   UNL     1      40.810 -11.828   1.335  1.00  0.00     0.034 A 
HETATM    7  N   UNL     1      39.418 -10.204   1.799  1.00  0.00    -0.272 N 
HETATM    8  H   UNL     1      38.946  -9.396   2.195  1.00  0.00     0.189 HD
HETATM    9  N   UNL     1      38.833 -10.885   0.779  1.00  0.00    -0.173 NA
HETATM   10  C   UNL     1      39.714 -11.870   0.455  1.00  0.00     0.101 A 
ENDROOT
BRANCH   1  11
HETATM   11  C   UNL     1      41.809 -13.887   2.131  1.00  0.00    -0.028 A 
HETATM   12  C   UNL     1      42.660 -14.962   1.810  1.00  0.00     0.046 A 
HETATM   13  C   UNL     1      42.374 -16.269   2.215  1.00  0.00     0.069 A 
HETATM   14  C   UNL     1      41.223 -16.517   2.959  1.00  0.00     0.037 A 
HETATM   15  C   UNL     1      40.362 -15.466   3.282  1.00  0.00     0.003 A 
HETATM   16  C   UNL     1      40.648 -14.164   2.867  1.00  0.00     0.010 A 
BRANCH  13  17
HETATM   17  O   UNL     1      43.296 -17.198   1.819  1.00  0.00    -0.348 OA
BRANCH  17  18
HETATM   18  C   UNL     1      43.119 -18.533   2.287  1.00  0.00     0.202 C 
BRANCH  18  19
HETATM   19  C   UNL     1      44.281 -18.848   3.182  1.00  0.00    -0.011 C 
HETATM   20  C   UNL     1      44.309 -18.635   4.504  1.00  0.00     0.009 C 
ENDBRANCH  18  19
ENDBRANCH  17  18
ENDBRANCH  13  17
ENDBRANCH   1  11
BRANCH   2  21
HETATM   21  C   UNL     1      43.823 -11.697   3.432  1.00  0.00     0.167 C 
BRANCH  21  22
HETATM   22  C   UNL     1      43.718 -12.140   4.864  1.00  0.00    -0.023 A 
HETATM   23  C   UNL     1      44.162 -11.330   5.903  1.00  0.00     0.125 A 
HETATM   24  N   UNL     1      44.069 -11.656   7.212  1.00  0.00    -0.273 NA
HETATM   25  C   UNL     1      43.516 -12.854   7.502  1.00  0.00     0.116 A 
HETATM   26  C   UNL     1      43.047 -13.737   6.544  1.00  0.00     0.020 A 
HETATM   27  C   UNL     1      43.149 -13.371   5.207  1.00  0.00     0.012 A 
ENDBRANCH  21  22
ENDBRANCH   2  21
BRANCH  10  28
HETATM   28  C   UNL     1      39.432 -12.786  -0.655  1.00  0.00     0.028 A 
HETATM   29  C   UNL     1      39.019 -12.308  -1.913  1.00  0.00     0.078 A 
HETATM   30  C   UNL     1      38.726 -13.180  -2.960  1.00  0.00     0.037 A 
HETATM   31  C   UNL     1      38.860 -14.554  -2.776  1.00  0.00     0.003 A 
HETATM   32  C   UNL     1      39.294 -15.049  -1.548  1.00  0.00     0.001 A 
HETATM   33  C   UNL     1      39.582 -14.171  -0.497  1.00  0.00     0.017 A 
BRANCH  29  34
HETATM   34  O   UNL     1      38.892 -10.970  -2.187  1.00  0.00    -0.360 OA
HETATM   35  H   UNL     1      37.980 -10.851  -2.540  1.00  0.00     0.217 HD
ENDBRANCH  29  34
ENDBRANCH  10  28
TORSDOF 8
ENDMDL
MODEL 10
REMARK VINA RESULT:      -7.6      2.407      6.270
REMARK  8 active torsions:
REMARK  status: ('A' for Active; 'I' for Inactive)
REMARK    1  A    between atoms: C_2  and  C_3 
REMARK    2  A    between atoms: C_3  and  O_4 
REMARK    3  A    between atoms: O_4  and  C_5 
REMARK    4  A    between atoms: C_7  and  C_8 
REMARK    5  A    between atoms: N_9  and  C_10 
REMARK    6  A    between atoms: C_10  and  C_11 
REMARK    7  A    between atoms: C_24  and  C_25 
REMARK    8  A    between atoms: C_26  and  O_27 
ROOT
HETATM    1  C   UNL     1      42.016 -13.124   3.931  1.00  0.00     0.159 A 
HETATM    2  N   UNL     1      41.689 -13.337   5.368  1.00  0.00    -0.329 N 
HETATM    3  C   UNL     1      40.341 -13.143   5.676  1.00  0.00     0.273 A 
HETATM    4  O   UNL     1      39.795 -13.193   6.762  1.00  0.00    -0.266 OA
HETATM    5  C   UNL     1      39.757 -12.839   4.425  1.00  0.00     0.129 A 
HETATM    6  C   UNL     1      40.667 -12.805   3.409  1.00  0.00     0.034 A 
HETATM    7  N   UNL     1      38.552 -12.561   3.913  1.00  0.00    -0.272 N 
HETATM    8  H   UNL     1      37.652 -12.507   4.383  1.00  0.00     0.189 HD
HETATM    9  N   UNL     1      38.620 -12.336   2.575  1.00  0.00    -0.173 NA
HETATM   10  C   UNL     1      39.939 -12.442   2.261  1.00  0.00     0.101 A 
ENDROOT
BRANCH   1  11
HETATM   11  C   UNL     1      42.508 -14.371   3.235  1.00  0.00    -0.028 A 
HETATM   12  C   UNL     1      42.547 -15.625   3.876  1.00  0.00     0.046 A 
HETATM   13  C   UNL     1      43.015 -16.768   3.221  1.00  0.00     0.069 A 
HETATM   14  C   UNL     1      43.448 -16.670   1.901  1.00  0.00     0.037 A 
HETATM   15  C   UNL     1      43.423 -15.435   1.249  1.00  0.00     0.003 A 
HETATM   16  C   UNL     1      42.964 -14.295   1.911  1.00  0.00     0.010 A 
BRANCH  13  17
HETATM   17  O   UNL     1      42.994 -17.904   3.983  1.00  0.00    -0.348 OA
BRANCH  17  18
HETATM   18  C   UNL     1      44.247 -18.401   4.447  1.00  0.00     0.202 C 
BRANCH  18  19
HETATM   19  C   UNL     1      44.201 -19.896   4.333  1.00  0.00    -0.011 C 
HETATM   20  C   UNL     1      43.964 -20.734   5.350  1.00  0.00     0.009 C 
ENDBRANCH  18  19
ENDBRANCH  17  18
ENDBRANCH  13  17
ENDBRANCH   1  11
BRANCH   2  21
HETATM   21  C   UNL     1      42.710 -13.547   6.370  1.00  0.00     0.167 C 
BRANCH  21  22
HETATM   22  C   UNL     1      43.453 -12.281   6.688  1.00  0.00    -0.023 A 
HETATM   23  C   UNL     1      42.776 -11.097   6.957  1.00  0.00     0.125 A 
HETATM   24  N   UNL     1      43.384  -9.933   7.279  1.00  0.00    -0.273 NA
HETATM   25  C   UNL     1      44.734  -9.944   7.325  1.00  0.00     0.116 A 
HETATM   26  C   UNL     1      45.503 -11.066   7.070  1.00  0.00     0.020 A 
HETATM   27  C   UNL     1      44.850 -12.251   6.748  1.00  0.00     0.012 A 
ENDBRANCH  21  22
ENDBRANCH   2  21
BRANCH  10  28
HETATM   28  C   UNL     1      40.400 -12.210   0.888  1.00  0.00     0.028 A 
HETATM   29  C   UNL     1      40.167 -13.151  -0.132  1.00  0.00     0.078 A 
HETATM   30  C   UNL     1      40.627 -12.942  -1.431  1.00  0.00     0.037 A 
HETATM   31  C   UNL     1      41.316 -11.772  -1.742  1.00  0.00     0.003 A 
HETATM   32  C   UNL     1      41.533 -10.813  -0.756  1.00  0.00     0.001 A 
HETATM   33  C   UNL     1      41.075 -11.028   0.549  1.00  0.00     0.017 A 
BRANCH  29  34
HETATM   34  O   UNL     1      39.472 -14.313   0.084  1.00  0.00    -0.360 OA
HETATM   35  H   UNL     1      40.062 -15.042  -0.218  1.00  0.00     0.217 HD
ENDBRANCH  29  34
ENDBRANCH  10  28
TORSDOF 8
ENDMDL
