MODEL 1
REMARK VINA RESULT:      -8.7      0.000      0.000
REMARK  5 active torsions:
REMARK  status: ('A' for Active; 'I' for Inactive)
REMARK    1  A    between atoms: C_3  and  N_4 
REMARK    2  A    between atoms: N_5  and  C_6 
REMARK    3  A    between atoms: C_6  and  C_7 
REMARK    4  A    between atoms: C_7  and  C_8 
REMARK    5  A    between atoms: C_19  and  C_20 
ROOT
HETATM    1  C   UNL     1      40.498 -16.213   6.064  1.00  0.00     0.175 C 
HETATM    2  N   UNL     1      41.102 -15.258   5.147  1.00  0.00    -0.186 N 
HETATM    3  C   UNL     1      40.764 -13.976   5.074  1.00  0.00     0.680 C 
HETATM    4  N   UNL     1      41.703 -13.321   4.400  1.00  0.00    -0.184 N 
HETATM    5  C   UNL     1      42.580 -14.257   3.870  1.00  0.00     0.140 C 
HETATM    6  C   UNL     1      42.173 -15.512   4.269  1.00  0.00     0.077 C 
ENDROOT
BRANCH   4   7
HETATM    7  C   UNL     1      41.864 -11.858   4.273  1.00  0.00     0.231 C 
BRANCH   7   8
HETATM    8  C   UNL     1      43.310 -11.390   4.395  1.00  0.00     0.178 C 
HETATM    9  O   UNL     1      44.004 -11.144   3.406  1.00  0.00    -0.290 OA
BRANCH   8  10
HETATM   10  C   UNL     1      43.881 -11.173   5.751  1.00  0.00     0.014 A 
HETATM   11  C   UNL     1      43.089 -10.741   6.821  1.00  0.00     0.055 A 
HETATM   12  C   UNL     1      43.715 -10.546   8.037  1.00  0.00     0.106 A 
HETATM   13  C   UNL     1      45.061 -10.766   8.211  1.00  0.00     0.105 A 
HETATM   14  O   UNL     1      43.107 -10.121   9.176  1.00  0.00    -0.323 OA
HETATM   15  O   UNL     1      45.467 -10.509   9.481  1.00  0.00    -0.323 OA
HETATM   16  C   UNL     1      45.865 -11.187   7.177  1.00  0.00     0.040 A 
HETATM   17  C   UNL     1      44.230 -10.076  10.086  1.00  0.00     0.352 A 
HETATM   18  C   UNL     1      45.267 -11.388   5.928  1.00  0.00     0.018 A 
ENDBRANCH   8  10
ENDBRANCH   7   8
ENDBRANCH   4   7
BRANCH   3  19
HETATM   19  N   UNL     1      39.668 -13.452   5.612  1.00  0.00    -0.234 N 
HETATM   20  H   UNL     1      39.194 -12.667   5.199  1.00  0.00     0.174 HD
HETATM   21  H   UNL     1      39.488 -13.625   6.601  1.00  0.00     0.174 HD
ENDBRANCH   3  19
BRANCH   6  22
HETATM   22  C   UNL     1      42.790 -16.814   3.842  1.00  0.00    -0.007 A 
HETATM   23  C   UNL     1      43.757 -17.432   4.647  1.00  0.00     0.014 A 
HETATM   24  C   UNL     1      44.341 -18.636   4.245  1.00  0.00     0.001 A 
HETATM   25  C   UNL     1      43.976 -19.221   3.035  1.00  0.00     0.000 A 
HETATM   26  C   UNL     1      43.031 -18.602   2.222  1.00  0.00     0.001 A 
HETATM   27  C   UNL     1      42.440 -17.401   2.622  1.00  0.00     0.014 A 
ENDBRANCH   6  22
TORSDOF 5
ENDMDL
MODEL 2
REMARK VINA RESULT:      -8.4      3.301      8.096
REMARK  5 active torsions:
REMARK  status: ('A' for Active; 'I' for Inactive)
REMARK    1  A    between atoms: C_3  and  N_4 
REMARK    2  A    between atoms: N_5  and  C_6 
REMARK    3  A    between atoms: C_6  and  C_7 
REMARK    4  A    between atoms: C_7  and  C_8 
REMARK    5  A    between atoms: C_19  and  C_20 
ROOT
HETATM    1  C   UNL     1      43.568 -12.104   4.074  1.00  0.00     0.175 C 
HETATM    2  N   UNL     1      43.245 -12.939   5.221  1.00  0.00    -0.186 N 
HETATM    3  C   UNL     1      42.511 -14.044   5.157  1.00  0.00     0.680 C 
HETATM    4  N   UNL     1      42.678 -14.736   6.279  1.00  0.00    -0.184 N 
HETATM    5  C   UNL     1      43.406 -13.951   7.162  1.00  0.00     0.140 C 
HETATM    6  C   UNL     1      43.715 -12.762   6.536  1.00  0.00     0.077 C 
ENDROOT
BRANCH   4   7
HETATM    7  C   UNL     1      42.247 -16.122   6.553  1.00  0.00     0.231 C 
BRANCH   7   8
HETATM    8  C   UNL     1      43.406 -17.096   6.740  1.00  0.00     0.178 C 
HETATM    9  O   UNL     1      44.182 -17.014   7.695  1.00  0.00    -0.290 OA
BRANCH   8  10
HETATM   10  C   UNL     1      43.571 -18.210   5.768  1.00  0.00     0.014 A 
HETATM   11  C   UNL     1      43.591 -17.982   4.387  1.00  0.00     0.055 A 
HETATM   12  C   UNL     1      43.726 -19.082   3.564  1.00  0.00     0.106 A 
HETATM   13  C   UNL     1      43.841 -20.359   4.061  1.00  0.00     0.105 A 
HETATM   14  O   UNL     1      43.754 -19.050   2.206  1.00  0.00    -0.323 OA
HETATM   15  O   UNL     1      43.958 -21.289   3.078  1.00  0.00    -0.323 OA
HETATM   16  C   UNL     1      43.820 -20.614   5.413  1.00  0.00     0.040 A 
HETATM   17  C   UNL     1      43.879 -20.458   1.900  1.00  0.00     0.352 A 
HETATM   18  C   UNL     1      43.677 -19.524   6.278  1.00  0.00     0.018 A 
ENDBRANCH   8  10
ENDBRANCH   7   8
ENDBRANCH   4   7
BRANCH   3  19
HETATM   19  N   UNL     1      41.754 -14.389   4.122  1.00  0.00    -0.234 N 
HETATM   20  H   UNL     1      42.145 -14.578   3.214  1.00  0.00     0.174 HD
HETATM   21  H   UNL     1      40.762 -14.151   4.151  1.00  0.00     0.174 HD
ENDBRANCH   3  19
BRANCH   6  22
HETATM   22  C   UNL     1      44.415 -11.591   7.167  1.00  0.00    -0.007 A 
HETATM   23  C   UNL     1      43.707 -10.716   8.003  1.00  0.00     0.014 A 
HETATM   24  C   UNL     1      44.352  -9.619   8.580  1.00  0.00     0.001 A 
HETATM   25  C   UNL     1      45.699  -9.382   8.317  1.00  0.00     0.000 A 
HETATM   26  C   UNL     1      46.402 -10.236   7.472  1.00  0.00     0.001 A 
HETATM   27  C   UNL     1      45.763 -11.337   6.896  1.00  0.00     0.014 A 
ENDBRANCH   6  22
TORSDOF 5
ENDMDL
MODEL 3
REMARK VINA RESULT:      -8.2      4.148      6.850
REMARK  5 active torsions:
REMARK  status: ('A' for Active; 'I' for Inactive)
REMARK    1  A    between atoms: C_3  and  N_4 
REMARK    2  A    between atoms: N_5  and  C_6 
REMARK    3  A    between atoms: C_6  and  C_7 
REMARK    4  A    between atoms: C_7  and  C_8 
REMARK    5  A    between atoms: C_19  and  C_20 
ROOT
HETATM    1  C   UNL     1      40.833 -16.350   5.370  1.00  0.00     0.175 C 
HETATM    2  N   UNL     1      41.423 -15.713   4.202  1.00  0.00    -0.186 N 
HETATM    3  C   UNL     1      41.128 -14.485   3.793  1.00  0.00     0.680 C 
HETATM    4  N   UNL     1      42.053 -14.086   2.927  1.00  0.00    -0.184 N 
HETATM    5  C   UNL     1      42.867 -15.173   2.640  1.00  0.00     0.140 C 
HETATM    6  C   UNL     1      42.437 -16.250   3.386  1.00  0.00     0.077 C 
ENDROOT
BRANCH   4   7
HETATM    7  C   UNL     1      42.261 -12.723   2.396  1.00  0.00     0.231 C 
BRANCH   7   8
HETATM    8  C   UNL     1      41.009 -12.113   1.773  1.00  0.00     0.178 C 
HETATM    9  O   UNL     1      40.333 -11.266   2.361  1.00  0.00    -0.290 OA
BRANCH   8  10
HETATM   10  C   UNL     1      40.625 -12.516   0.394  1.00  0.00     0.014 A 
HETATM   11  C   UNL     1      39.927 -13.703   0.144  1.00  0.00     0.055 A 
HETATM   12  C   UNL     1      39.635 -14.002  -1.173  1.00  0.00     0.106 A 
HETATM   13  C   UNL     1      40.005 -13.180  -2.210  1.00  0.00     0.105 A 
HETATM   14  O   UNL     1      38.977 -15.112  -1.600  1.00  0.00    -0.323 OA
HETATM   15  O   UNL     1      39.623 -13.666  -3.419  1.00  0.00    -0.323 OA
HETATM   16  C   UNL     1      40.696 -12.009  -1.995  1.00  0.00     0.040 A 
HETATM   17  C   UNL     1      38.992 -14.906  -3.032  1.00  0.00     0.352 A 
HETATM   18  C   UNL     1      41.016 -11.676  -0.674  1.00  0.00     0.018 A 
ENDBRANCH   8  10
ENDBRANCH   7   8
ENDBRANCH   4   7
BRANCH   3  19
HETATM   19  N   UNL     1      40.082 -13.781   4.210  1.00  0.00    -0.234 N 
HETATM   20  H   UNL     1      39.144 -13.987   3.906  1.00  0.00     0.174 HD
HETATM   21  H   UNL     1      40.247 -12.842   4.572  1.00  0.00     0.174 HD
ENDBRANCH   3  19
BRANCH   6  22
HETATM   22  C   UNL     1      42.982 -17.647   3.309  1.00  0.00    -0.007 A 
HETATM   23  C   UNL     1      43.763 -18.157   4.356  1.00  0.00     0.014 A 
HETATM   24  C   UNL     1      44.283 -19.451   4.280  1.00  0.00     0.001 A 
HETATM   25  C   UNL     1      44.039 -20.239   3.157  1.00  0.00     0.000 A 
HETATM   26  C   UNL     1      43.281 -19.731   2.105  1.00  0.00     0.001 A 
HETATM   27  C   UNL     1      42.755 -18.439   2.179  1.00  0.00     0.014 A 
ENDBRANCH   6  22
TORSDOF 5
ENDMDL
MODEL 4
REMARK VINA RESULT:      -8.0      4.631      7.374
REMARK  5 active torsions:
REMARK  status: ('A' for Active; 'I' for Inactive)
REMARK    1  A    between atoms: C_3  and  N_4 
REMARK    2  A    between atoms: N_5  and  C_6 
REMARK    3  A    between atoms: C_6  and  C_7 
REMARK    4  A    between atoms: C_7  and  C_8 
REMARK    5  A    between atoms: C_19  and  C_20 
ROOT
HETATM    1  C   UNL     1      38.694 -12.303   2.108  1.00  0.00     0.175 C 
HETATM    2  N   UNL     1      39.973 -12.851   1.683  1.00  0.00    -0.186 N 
HETATM    3  C   UNL     1      41.078 -12.828   2.419  1.00  0.00     0.680 C 
HETATM    4  N   UNL     1      41.957 -13.680   1.904  1.00  0.00    -0.184 N 
HETATM    5  C   UNL     1      41.456 -14.128   0.690  1.00  0.00     0.140 C 
HETATM    6  C   UNL     1      40.220 -13.552   0.487  1.00  0.00     0.077 C 
ENDROOT
BRANCH   4   7
HETATM    7  C   UNL     1      43.217 -14.151   2.514  1.00  0.00     0.231 C 
BRANCH   7   8
HETATM    8  C   UNL     1      43.010 -15.021   3.749  1.00  0.00     0.178 C 
HETATM    9  O   UNL     1      42.626 -14.552   4.822  1.00  0.00    -0.290 OA
BRANCH   8  10
HETATM   10  C   UNL     1      43.230 -16.488   3.639  1.00  0.00     0.014 A 
HETATM   11  C   UNL     1      43.547 -17.269   4.756  1.00  0.00     0.055 A 
HETATM   12  C   UNL     1      43.755 -18.619   4.549  1.00  0.00     0.106 A 
HETATM   13  C   UNL     1      43.657 -19.193   3.304  1.00  0.00     0.105 A 
HETATM   14  O   UNL     1      44.080 -19.521   5.512  1.00  0.00    -0.323 OA
HETATM   15  O   UNL     1      43.904 -20.527   3.327  1.00  0.00    -0.323 OA
HETATM   16  C   UNL     1      43.350 -18.449   2.186  1.00  0.00     0.040 A 
HETATM   17  C   UNL     1      44.196 -20.730   4.726  1.00  0.00     0.352 A 
HETATM   18  C   UNL     1      43.140 -17.077   2.356  1.00  0.00     0.018 A 
ENDBRANCH   8  10
ENDBRANCH   7   8
ENDBRANCH   4   7
BRANCH   3  19
HETATM   19  N   UNL     1      41.248 -12.078   3.502  1.00  0.00    -0.234 N 
HETATM   20  H   UNL     1      41.967 -12.272   4.179  1.00  0.00     0.174 HD
HETATM   21  H   UNL     1      40.463 -11.509   3.821  1.00  0.00     0.174 HD
ENDBRANCH   3  19
BRANCH   6  22
HETATM   22  C   UNL     1      39.374 -13.696  -0.746  1.00  0.00    -0.007 A 
HETATM   23  C   UNL     1      39.374 -14.901  -1.463  1.00  0.00     0.014 A 
HETATM   24  C   UNL     1      38.598 -15.032  -2.617  1.00  0.00     0.001 A 
HETATM   25  C   UNL     1      37.831 -13.961  -3.070  1.00  0.00     0.000 A 
HETATM   26  C   UNL     1      37.843 -12.756  -2.374  1.00  0.00     0.001 A 
HETATM   27  C   UNL     1      38.613 -12.621  -1.216  1.00  0.00     0.014 A 
ENDBRANCH   6  22
TORSDOF 5
ENDMDL
MODEL 5
REMARK VINA RESULT:      -8.0      2.935      7.537
REMARK  5 active torsions:
REMARK  status: ('A' for Active; 'I' for Inactive)
REMARK    1  A    between atoms: C_3  and  N_4 
REMARK    2  A    between atoms: N_5  and  C_6 
REMARK    3  A    between atoms: C_6  and  C_7 
REMARK    4  A    between atoms: C_7  and  C_8 
REMARK    5  A    between atoms: C_19  and  C_20 
ROOT
HETATM    1  C   UNL     1      42.046  -9.912   4.885  1.00  0.00     0.175 C 
HETATM    2  N   UNL     1      42.193 -11.318   5.230  1.00  0.00    -0.186 N 
HETATM    3  C   UNL     1      41.449 -12.293   4.721  1.00  0.00     0.680 C 
HETATM    4  N   UNL     1      42.035 -13.458   4.973  1.00  0.00    -0.184 N 
HETATM    5  C   UNL     1      43.100 -13.224   5.831  1.00  0.00     0.140 C 
HETATM    6  C   UNL     1      43.175 -11.869   6.074  1.00  0.00     0.077 C 
ENDROOT
BRANCH   4   7
HETATM    7  C   UNL     1      41.694 -14.779   4.405  1.00  0.00     0.231 C 
BRANCH   7   8
HETATM    8  C   UNL     1      42.752 -15.326   3.453  1.00  0.00     0.178 C 
HETATM    9  O   UNL     1      43.376 -14.597   2.680  1.00  0.00    -0.290 OA
BRANCH   8  10
HETATM   10  C   UNL     1      43.076 -16.777   3.499  1.00  0.00     0.014 A 
HETATM   11  C   UNL     1      43.394 -17.420   4.701  1.00  0.00     0.055 A 
HETATM   12  C   UNL     1      43.703 -18.765   4.639  1.00  0.00     0.106 A 
HETATM   13  C   UNL     1      43.703 -19.463   3.455  1.00  0.00     0.105 A 
HETATM   14  O   UNL     1      44.044 -19.544   5.700  1.00  0.00    -0.323 OA
HETATM   15  O   UNL     1      44.040 -20.767   3.622  1.00  0.00    -0.323 OA
HETATM   16  C   UNL     1      43.400 -18.856   2.257  1.00  0.00     0.040 A 
HETATM   17  C   UNL     1      44.280 -20.811   5.045  1.00  0.00     0.352 A 
HETATM   18  C   UNL     1      43.088 -17.492   2.280  1.00  0.00     0.018 A 
ENDBRANCH   8  10
ENDBRANCH   7   8
ENDBRANCH   4   7
BRANCH   3  19
HETATM   19  N   UNL     1      40.314 -12.108   4.056  1.00  0.00    -0.234 N 
HETATM   20  H   UNL     1      39.592 -12.809   4.026  1.00  0.00     0.174 HD
HETATM   21  H   UNL     1      40.299 -11.407   3.314  1.00  0.00     0.174 HD
ENDBRANCH   3  19
BRANCH   6  22
HETATM   22  C   UNL     1      44.128 -11.196   7.022  1.00  0.00    -0.007 A 
HETATM   23  C   UNL     1      43.644 -10.567   8.177  1.00  0.00     0.014 A 
HETATM   24  C   UNL     1      44.526  -9.929   9.053  1.00  0.00     0.001 A 
HETATM   25  C   UNL     1      45.891  -9.904   8.776  1.00  0.00     0.000 A 
HETATM   26  C   UNL     1      46.375 -10.511   7.620  1.00  0.00     0.001 A 
HETATM   27  C   UNL     1      45.497 -11.154   6.744  1.00  0.00     0.014 A 
ENDBRANCH   6  22
TORSDOF 5
ENDMDL
MODEL 6
REMARK VINA RESULT:      -7.8      1.527      2.298
REMARK  5 active torsions:
REMARK  status: ('A' for Active; 'I' for Inactive)
REMARK    1  A    between atoms: C_3  and  N_4 
REMARK    2  A    between atoms: N_5  and  C_6 
REMARK    3  A    between atoms: C_6  and  C_7 
REMARK    4  A    between atoms: C_7  and  C_8 
REMARK    5  A    between atoms: C_19  and  C_20 
ROOT
HETATM    1  C   UNL     1      40.609 -15.371   6.355  1.00  0.00     0.175 C 
HETATM    2  N   UNL     1      41.534 -14.411   5.772  1.00  0.00    -0.186 N 
HETATM    3  C   UNL     1      41.488 -13.102   5.990  1.00  0.00     0.680 C 
HETATM    4  N   UNL     1      42.635 -12.560   5.597  1.00  0.00    -0.184 N 
HETATM    5  C   UNL     1      43.367 -13.538   4.939  1.00  0.00     0.140 C 
HETATM    6  C   UNL     1      42.649 -14.715   4.968  1.00  0.00     0.077 C 
ENDROOT
BRANCH   4   7
HETATM    7  C   UNL     1      43.118 -11.188   5.858  1.00  0.00     0.231 C 
BRANCH   7   8
HETATM    8  C   UNL     1      44.341 -11.133   6.766  1.00  0.00     0.178 C 
HETATM    9  O   UNL     1      45.439 -11.570   6.412  1.00  0.00    -0.290 OA
BRANCH   8  10
HETATM   10  C   UNL     1      44.217 -10.485   8.099  1.00  0.00     0.014 A 
HETATM   11  C   UNL     1      43.003  -9.949   8.544  1.00  0.00     0.055 A 
HETATM   12  C   UNL     1      42.992  -9.347   9.787  1.00  0.00     0.106 A 
HETATM   13  C   UNL     1      44.117  -9.268  10.573  1.00  0.00     0.105 A 
HETATM   14  O   UNL     1      41.910  -8.767  10.371  1.00  0.00    -0.323 OA
HETATM   15  O   UNL     1      43.884  -8.633  11.750  1.00  0.00    -0.323 OA
HETATM   16  C   UNL     1      45.326  -9.782  10.160  1.00  0.00     0.040 A 
HETATM   17  C   UNL     1      42.488  -8.294  11.610  1.00  0.00     0.352 A 
HETATM   18  C   UNL     1      45.377 -10.393   8.903  1.00  0.00     0.018 A 
ENDBRANCH   8  10
ENDBRANCH   7   8
ENDBRANCH   4   7
BRANCH   3  19
HETATM   19  N   UNL     1      40.457 -12.462   6.530  1.00  0.00    -0.234 N 
HETATM   20  H   UNL     1      39.506 -12.748   6.367  1.00  0.00     0.174 HD
HETATM   21  H   UNL     1      40.597 -11.501   6.842  1.00  0.00     0.174 HD
ENDBRANCH   3  19
BRANCH   6  22
HETATM   22  C   UNL     1      43.037 -15.998   4.291  1.00  0.00    -0.007 A 
HETATM   23  C   UNL     1      42.582 -16.276   2.995  1.00  0.00     0.014 A 
HETATM   24  C   UNL     1      42.930 -17.475   2.368  1.00  0.00     0.001 A 
HETATM   25  C   UNL     1      43.721 -18.408   3.035  1.00  0.00     0.000 A 
HETATM   26  C   UNL     1      44.159 -18.148   4.330  1.00  0.00     0.001 A 
HETATM   27  C   UNL     1      43.818 -16.947   4.959  1.00  0.00     0.014 A 
ENDBRANCH   6  22
TORSDOF 5
ENDMDL
MODEL 7
REMARK VINA RESULT:      -7.6      4.401      7.168
REMARK  5 active torsions:
REMARK  status: ('A' for Active; 'I' for Inactive)
REMARK    1  A    between atoms: C_3  and  N_4 
REMARK    2  A    between atoms: N_5  and  C_6 
REMARK    3  A    between atoms: C_6  and  C_7 
REMARK    4  A    between atoms: C_7  and  C_8 
REMARK    5  A    between atoms: C_19  and  C_20 
ROOT
HETATM    1  C   UNL     1      41.062 -10.567   0.450  1.00  0.00     0.175 C 
HETATM    2  N   UNL     1      40.956 -11.844   1.138  1.00  0.00    -0.186 N 
HETATM    3  C   UNL     1      41.549 -12.122   2.294  1.00  0.00     0.680 C 
HETATM    4  N   UNL     1      41.000 -13.217   2.807  1.00  0.00    -0.184 N 
HETATM    5  C   UNL     1      40.150 -13.757   1.853  1.00  0.00     0.140 C 
HETATM    6  C   UNL     1      40.163 -12.938   0.743  1.00  0.00     0.077 C 
ENDROOT
BRANCH   4   7
HETATM    7  C   UNL     1      41.179 -13.759   4.170  1.00  0.00     0.231 C 
BRANCH   7   8
HETATM    8  C   UNL     1      42.620 -14.141   4.492  1.00  0.00     0.178 C 
HETATM    9  O   UNL     1      43.431 -13.321   4.928  1.00  0.00    -0.290 OA
BRANCH   8  10
HETATM   10  C   UNL     1      43.041 -15.557   4.324  1.00  0.00     0.014 A 
HETATM   11  C   UNL     1      42.765 -16.270   3.151  1.00  0.00     0.055 A 
HETATM   12  C   UNL     1      43.176 -17.588   3.098  1.00  0.00     0.106 A 
HETATM   13  C   UNL     1      43.834 -18.193   4.143  1.00  0.00     0.105 A 
HETATM   14  O   UNL     1      42.985 -18.430   2.049  1.00  0.00    -0.323 OA
HETATM   15  O   UNL     1      44.141 -19.489   3.881  1.00  0.00    -0.323 OA
HETATM   16  C   UNL     1      44.115 -17.518   5.310  1.00  0.00     0.040 A 
HETATM   17  C   UNL     1      43.580 -19.645   2.561  1.00  0.00     0.352 A 
HETATM   18  C   UNL     1      43.707 -16.183   5.403  1.00  0.00     0.018 A 
ENDBRANCH   8  10
ENDBRANCH   7   8
ENDBRANCH   4   7
BRANCH   3  19
HETATM   19  N   UNL     1      42.520 -11.396   2.837  1.00  0.00    -0.234 N 
HETATM   20  H   UNL     1      43.077 -11.738   3.603  1.00  0.00     0.174 HD
HETATM   21  H   UNL     1      42.495 -10.385   2.707  1.00  0.00     0.174 HD
ENDBRANCH   3  19
BRANCH   6  22
HETATM   22  C   UNL     1      39.453 -13.203  -0.554  1.00  0.00    -0.007 A 
HETATM   23  C   UNL     1      38.281 -12.502  -0.871  1.00  0.00     0.014 A 
HETATM   24  C   UNL     1      37.611 -12.757  -2.071  1.00  0.00     0.001 A 
HETATM   25  C   UNL     1      38.097 -13.719  -2.952  1.00  0.00     0.000 A 
HETATM   26  C   UNL     1      39.250 -14.434  -2.634  1.00  0.00     0.001 A 
HETATM   27  C   UNL     1      39.925 -14.179  -1.438  1.00  0.00     0.014 A 
ENDBRANCH   6  22
TORSDOF 5
ENDMDL
MODEL 8
REMARK VINA RESULT:      -7.3      1.849      2.361
REMARK  5 active torsions:
REMARK  status: ('A' for Active; 'I' for Inactive)
REMARK    1  A    between atoms: C_3  and  N_4 
REMARK    2  A    between atoms: N_5  and  C_6 
REMARK    3  A    between atoms: C_6  and  C_7 
REMARK    4  A    between atoms: C_7  and  C_8 
REMARK    5  A    between atoms: C_19  and  C_20 
ROOT
HETATM    1  C   UNL     1      40.109 -15.640   2.143  1.00  0.00     0.175 C 
HETATM    2  N   UNL     1      41.270 -14.781   2.321  1.00  0.00    -0.186 N 
HETATM    3  C   UNL     1      41.292 -13.485   2.034  1.00  0.00     0.680 C 
HETATM    4  N   UNL     1      42.357 -12.935   2.607  1.00  0.00    -0.184 N 
HETATM    5  C   UNL     1      43.138 -13.957   3.128  1.00  0.00     0.140 C 
HETATM    6  C   UNL     1      42.502 -15.157   2.889  1.00  0.00     0.077 C 
ENDROOT
BRANCH   4   7
HETATM    7  C   UNL     1      42.658 -11.496   2.751  1.00  0.00     0.231 C 
BRANCH   7   8
HETATM    8  C   UNL     1      41.799 -10.794   3.797  1.00  0.00     0.178 C 
HETATM    9  O   UNL     1      40.612 -10.525   3.595  1.00  0.00    -0.290 OA
BRANCH   8  10
HETATM   10  C   UNL     1      42.398 -10.471   5.119  1.00  0.00     0.014 A 
HETATM   11  C   UNL     1      43.524 -11.151   5.600  1.00  0.00     0.055 A 
HETATM   12  C   UNL     1      43.994 -10.796   6.849  1.00  0.00     0.106 A 
HETATM   13  C   UNL     1      43.396  -9.816   7.606  1.00  0.00     0.105 A 
HETATM   14  O   UNL     1      45.063 -11.355   7.475  1.00  0.00    -0.323 OA
HETATM   15  O   UNL     1      44.017  -9.632   8.799  1.00  0.00    -0.323 OA
HETATM   16  C   UNL     1      42.287  -9.133   7.161  1.00  0.00     0.040 A 
HETATM   17  C   UNL     1      45.060 -10.627   8.726  1.00  0.00     0.352 A 
HETATM   18  C   UNL     1      41.777  -9.471   5.902  1.00  0.00     0.018 A 
ENDBRANCH   8  10
ENDBRANCH   7   8
ENDBRANCH   4   7
BRANCH   3  19
HETATM   19  N   UNL     1      40.376 -12.858   1.304  1.00  0.00    -0.234 N 
HETATM   20  H   UNL     1      40.416 -12.839   0.298  1.00  0.00     0.174 HD
HETATM   21  H   UNL     1      39.821 -12.129   1.752  1.00  0.00     0.174 HD
ENDBRANCH   3  19
BRANCH   6  22
HETATM   22  C   UNL     1      43.048 -16.520   3.207  1.00  0.00    -0.007 A 
HETATM   23  C   UNL     1      43.591 -16.784   4.473  1.00  0.00     0.014 A 
HETATM   24  C   UNL     1      44.112 -18.046   4.766  1.00  0.00     0.001 A 
HETATM   25  C   UNL     1      44.107 -19.047   3.797  1.00  0.00     0.000 A 
HETATM   26  C   UNL     1      43.588 -18.786   2.532  1.00  0.00     0.001 A 
HETATM   27  C   UNL     1      43.062 -17.526   2.236  1.00  0.00     0.014 A 
ENDBRANCH   6  22
TORSDOF 5
ENDMDL
MODEL 9
REMARK VINA RESULT:      -7.3     16.458     19.174
REMARK  5 active torsions:
REMARK  status: ('A' for Active; 'I' for Inactive)
REMARK    1  A    between atoms: C_3  and  N_4 
REMARK    2  A    between atoms: N_5  and  C_6 
REMARK    3  A    between atoms: C_6  and  C_7 
REMARK    4  A    between atoms: C_7  and  C_8 
REMARK    5  A    between atoms: C_19  and  C_20 
ROOT
HETATM    1  C   UNL     1      49.679 -30.056  -0.979  1.00  0.00     0.175 C 
HETATM    2  N   UNL     1      48.541 -29.359  -0.399  1.00  0.00    -0.186 N 
HETATM    3  C   UNL     1      47.647 -28.674  -1.102  1.00  0.00     0.680 C 
HETATM    4  N   UNL     1      46.581 -28.449  -0.342  1.00  0.00    -0.184 N 
HETATM    5  C   UNL     1      46.885 -28.852   0.951  1.00  0.00     0.140 C 
HETATM    6  C   UNL     1      48.164 -29.368   0.958  1.00  0.00     0.077 C 
ENDROOT
BRANCH   4   7
HETATM    7  C   UNL     1      45.264 -27.934  -0.768  1.00  0.00     0.231 C 
BRANCH   7   8
HETATM    8  C   UNL     1      44.191 -29.012  -0.874  1.00  0.00     0.178 C 
HETATM    9  O   UNL     1      43.290 -29.123  -0.039  1.00  0.00    -0.290 OA
BRANCH   8  10
HETATM   10  C   UNL     1      44.203 -29.923  -2.049  1.00  0.00     0.014 A 
HETATM   11  C   UNL     1      44.135 -29.434  -3.359  1.00  0.00     0.055 A 
HETATM   12  C   UNL     1      44.130 -30.359  -4.383  1.00  0.00     0.106 A 
HETATM   13  C   UNL     1      44.190 -31.713  -4.149  1.00  0.00     0.105 A 
HETATM   14  O   UNL     1      44.058 -30.066  -5.708  1.00  0.00    -0.323 OA
HETATM   15  O   UNL     1      44.167 -32.439  -5.295  1.00  0.00    -0.323 OA
HETATM   16  C   UNL     1      44.253 -32.224  -2.872  1.00  0.00     0.040 A 
HETATM   17  C   UNL     1      44.059 -31.393  -6.284  1.00  0.00     0.352 A 
HETATM   18  C   UNL     1      44.253 -31.316  -1.807  1.00  0.00     0.018 A 
ENDBRANCH   8  10
ENDBRANCH   7   8
ENDBRANCH   4   7
BRANCH   3  19
HETATM   19  N   UNL     1      47.807 -28.299  -2.366  1.00  0.00    -0.234 N 
HETATM   20  H   UNL     1      48.552 -28.659  -2.939  1.00  0.00     0.174 HD
HETATM   21  H   UNL     1      47.388 -27.418  -2.664  1.00  0.00     0.174 HD
ENDBRANCH   3  19
BRANCH   6  22
HETATM   22  C   UNL     1      48.918 -29.833   2.171  1.00  0.00    -0.007 A 
HETATM   23  C   UNL     1      48.227 -30.174   3.342  1.00  0.00     0.014 A 
HETATM   24  C   UNL     1      48.927 -30.593   4.476  1.00  0.00     0.001 A 
HETATM   25  C   UNL     1      50.318 -30.662   4.453  1.00  0.00     0.000 A 
HETATM   26  C   UNL     1      51.012 -30.305   3.300  1.00  0.00     0.001 A 
HETATM   27  C   UNL     1      50.316 -29.890   2.162  1.00  0.00     0.014 A 
ENDBRANCH   6  22
TORSDOF 5
ENDMDL
MODEL 10
REMARK VINA RESULT:      -7.1      4.879      7.700
REMARK  5 active torsions:
REMARK  status: ('A' for Active; 'I' for Inactive)
REMARK    1  A    between atoms: C_3  and  N_4 
REMARK    2  A    between atoms: N_5  and  C_6 
REMARK    3  A    between atoms: C_6  and  C_7 
REMARK    4  A    between atoms: C_7  and  C_8 
REMARK    5  A    between atoms: C_19  and  C_20 
ROOT
HETATM    1  C   UNL     1      43.995 -11.812   3.438  1.00  0.00     0.175 C 
HETATM    2  N   UNL     1      42.589 -11.974   3.099  1.00  0.00    -0.186 N 
HETATM    3  C   UNL     1      41.723 -10.972   3.004  1.00  0.00     0.680 C 
HETATM    4  N   UNL     1      40.638 -11.400   2.370  1.00  0.00    -0.184 N 
HETATM    5  C   UNL     1      40.746 -12.775   2.216  1.00  0.00     0.140 C 
HETATM    6  C   UNL     1      41.953 -13.179   2.745  1.00  0.00     0.077 C 
ENDROOT
BRANCH   4   7
HETATM    7  C   UNL     1      39.525 -10.584   1.840  1.00  0.00     0.231 C 
BRANCH   7   8
HETATM    8  C   UNL     1      39.730 -10.136   0.396  1.00  0.00     0.178 C 
HETATM    9  O   UNL     1      40.003  -8.970   0.106  1.00  0.00    -0.290 OA
BRANCH   8  10
HETATM   10  C   UNL     1      39.650 -11.151  -0.688  1.00  0.00     0.014 A 
HETATM   11  C   UNL     1      38.477 -11.876  -0.929  1.00  0.00     0.055 A 
HETATM   12  C   UNL     1      38.507 -12.813  -1.943  1.00  0.00     0.106 A 
HETATM   13  C   UNL     1      39.632 -13.039  -2.699  1.00  0.00     0.105 A 
HETATM   14  O   UNL     1      37.469 -13.611  -2.308  1.00  0.00    -0.323 OA
HETATM   15  O   UNL     1      39.443 -14.003  -3.636  1.00  0.00    -0.323 OA
HETATM   16  C   UNL     1      40.801 -12.344  -2.482  1.00  0.00     0.040 A 
HETATM   17  C   UNL     1      38.076 -14.383  -3.370  1.00  0.00     0.352 A 
HETATM   18  C   UNL     1      40.811 -11.392  -1.458  1.00  0.00     0.018 A 
ENDBRANCH   8  10
ENDBRANCH   7   8
ENDBRANCH   4   7
BRANCH   3  19
HETATM   19  N   UNL     1      41.938  -9.743   3.461  1.00  0.00    -0.234 N 
HETATM   20  H   UNL     1      41.538  -8.932   3.020  1.00  0.00     0.174 HD
HETATM   21  H   UNL     1      42.755  -9.585   4.051  1.00  0.00     0.174 HD
ENDBRANCH   3  19
BRANCH   6  22
HETATM   22  C   UNL     1      42.428 -14.599   2.868  1.00  0.00    -0.007 A 
HETATM   23  C   UNL     1      42.515 -15.206   4.129  1.00  0.00     0.014 A 
HETATM   24  C   UNL     1      42.969 -16.522   4.246  1.00  0.00     0.001 A 
HETATM   25  C   UNL     1      43.351 -17.234   3.112  1.00  0.00     0.000 A 
HETATM   26  C   UNL     1      43.286 -16.631   1.859  1.00  0.00     0.001 A 
HETATM   27  C   UNL     1      42.827 -15.317   1.736  1.00  0.00     0.014 A 
ENDBRANCH   6  22
TORSDOF 5
ENDMDL
