MODEL 1
REMARK VINA RESULT:      -7.5      0.000      0.000
REMARK  2 active torsions:
REMARK  status: ('A' for Active; 'I' for Inactive)
REMARK    1  A    between atoms: C_3  and  N_4 
REMARK       I    between atoms: N_4  and  C_5 
REMARK       I    between atoms: C_5  and  N_6 
REMARK    2  A    between atoms: N_6  and  C_7 
ROOT
HETATM    1  N   UNL     1      41.481 -16.339   2.774  1.00  0.00    -0.307 N 
HETATM    2  C   UNL     1      41.591 -15.388   1.787  1.00  0.00     0.321 C 
HETATM    3  N   UNL     1      40.368 -15.196   1.167  1.00  0.00    -0.338 N 
HETATM    4  O   UNL     1      42.600 -14.799   1.421  1.00  0.00    -0.247 OA
HETATM    5  H   UNL     1      40.768 -17.028   2.577  1.00  0.00     0.170 HD
HETATM    6  H   UNL     1      39.561 -15.387   1.749  1.00  0.00     0.164 HD
ENDROOT
BRANCH   3   7
HETATM    7  C   UNL     1      40.188 -14.288   0.035  1.00  0.00     0.090 C 
HETATM    8  C   UNL     1      39.419 -14.960  -1.116  1.00  0.00     0.058 C 
HETATM    9  C   UNL     1      38.864 -13.999  -2.169  1.00  0.00     0.190 C 
HETATM   10  N   UNL     1      38.108 -12.912  -1.445  1.00  0.00    -0.066 N 
HETATM   11  C   UNL     1      39.916 -13.386  -3.101  1.00  0.00     0.033 C 
HETATM   12  H   UNL     1      37.492 -13.395  -0.767  1.00  0.00     0.280 HD
HETATM   13  C   UNL     1      37.150 -12.136  -2.310  1.00  0.00     0.270 C 
HETATM   14  C   UNL     1      39.041 -12.058  -0.623  1.00  0.00     0.190 C 
HETATM   15  C   UNL     1      39.613 -12.935   0.491  1.00  0.00     0.058 C 
HETATM   16  C   UNL     1      40.093 -11.401  -1.523  1.00  0.00     0.033 C 
HETATM   17  C   UNL     1      40.834 -12.360  -2.447  1.00  0.00     0.004 C 
ENDBRANCH   3   7
BRANCH   1  18
HETATM   18  C   UNL     1      42.497 -16.765   3.663  1.00  0.00     0.059 A 
HETATM   19  C   UNL     1      43.315 -17.893   3.514  1.00  0.00    -0.032 A 
HETATM   20  C   UNL     1      43.295 -18.818   2.332  1.00  0.00     0.050 C 
HETATM   21  C   UNL     1      44.253 -18.172   4.526  1.00  0.00     0.028 A 
HETATM   22  C   UNL     1      44.385 -17.306   5.600  1.00  0.00     0.117 A 
HETATM   23  N   UNL     1      43.656 -16.184   5.739  1.00  0.00    -0.271 NA
HETATM   24  C   UNL     1      42.742 -15.943   4.772  1.00  0.00     0.146 A 
ENDBRANCH   1  18
TORSDOF 2
ENDMDL
MODEL 2
REMARK VINA RESULT:      -7.2      5.110      7.087
REMARK  2 active torsions:
REMARK  status: ('A' for Active; 'I' for Inactive)
REMARK    1  A    between atoms: C_3  and  N_4 
REMARK       I    between atoms: N_4  and  C_5 
REMARK       I    between atoms: C_5  and  N_6 
REMARK    2  A    between atoms: N_6  and  C_7 
ROOT
HETATM    1  N   UNL     1      43.376 -10.770   6.748  1.00  0.00    -0.307 N 
HETATM    2  C   UNL     1      43.357 -12.066   6.290  1.00  0.00     0.321 C 
HETATM    3  N   UNL     1      42.895 -12.107   4.985  1.00  0.00    -0.338 N 
HETATM    4  O   UNL     1      43.640 -13.085   6.907  1.00  0.00    -0.247 OA
HETATM    5  H   UNL     1      42.664 -10.193   6.321  1.00  0.00     0.170 HD
HETATM    6  H   UNL     1      43.067 -11.267   4.446  1.00  0.00     0.164 HD
ENDROOT
BRANCH   3   7
HETATM    7  C   UNL     1      42.705 -13.358   4.251  1.00  0.00     0.090 C 
HETATM    8  C   UNL     1      41.315 -13.963   4.508  1.00  0.00     0.058 C 
HETATM    9  C   UNL     1      40.888 -15.048   3.517  1.00  0.00     0.190 C 
HETATM   10  N   UNL     1      41.100 -14.505   2.125  1.00  0.00    -0.066 N 
HETATM   11  C   UNL     1      41.611 -16.391   3.680  1.00  0.00     0.033 C 
HETATM   12  H   UNL     1      40.675 -13.561   2.118  1.00  0.00     0.280 HD
HETATM   13  C   UNL     1      40.351 -15.243   1.047  1.00  0.00     0.270 C 
HETATM   14  C   UNL     1      42.567 -14.301   1.840  1.00  0.00     0.190 C 
HETATM   15  C   UNL     1      43.071 -13.193   2.765  1.00  0.00     0.058 C 
HETATM   16  C   UNL     1      43.323 -15.629   1.963  1.00  0.00     0.033 C 
HETATM   17  C   UNL     1      43.076 -16.387   3.262  1.00  0.00     0.004 C 
ENDBRANCH   3   7
BRANCH   1  18
HETATM   18  C   UNL     1      43.839 -10.319   8.008  1.00  0.00     0.059 A 
HETATM   19  C   UNL     1      45.171 -10.273   8.437  1.00  0.00    -0.032 A 
HETATM   20  C   UNL     1      46.359 -10.636   7.594  1.00  0.00     0.050 C 
HETATM   21  C   UNL     1      45.432  -9.820   9.744  1.00  0.00     0.028 A 
HETATM   22  C   UNL     1      44.387  -9.382  10.542  1.00  0.00     0.117 A 
HETATM   23  N   UNL     1      43.106  -9.359  10.136  1.00  0.00    -0.271 NA
HETATM   24  C   UNL     1      42.868  -9.820   8.887  1.00  0.00     0.146 A 
ENDBRANCH   1  18
TORSDOF 2
ENDMDL
MODEL 3
REMARK VINA RESULT:      -7.2      2.370      3.796
REMARK  2 active torsions:
REMARK  status: ('A' for Active; 'I' for Inactive)
REMARK    1  A    between atoms: C_3  and  N_4 
REMARK       I    between atoms: N_4  and  C_5 
REMARK       I    between atoms: C_5  and  N_6 
REMARK    2  A    between atoms: N_6  and  C_7 
ROOT
HETATM    1  N   UNL     1      43.445 -17.214   2.322  1.00  0.00    -0.307 N 
HETATM    2  C   UNL     1      42.441 -16.311   2.573  1.00  0.00     0.321 C 
HETATM    3  N   UNL     1      42.535 -15.236   1.705  1.00  0.00    -0.338 N 
HETATM    4  O   UNL     1      41.589 -16.359   3.451  1.00  0.00    -0.247 OA
HETATM    5  H   UNL     1      44.283 -16.780   1.959  1.00  0.00     0.170 HD
HETATM    6  H   UNL     1      42.964 -15.446   0.812  1.00  0.00     0.164 HD
ENDROOT
BRANCH   3   7
HETATM    7  C   UNL     1      41.638 -14.082   1.773  1.00  0.00     0.090 C 
HETATM    8  C   UNL     1      42.294 -12.894   2.496  1.00  0.00     0.058 C 
HETATM    9  C   UNL     1      41.595 -11.548   2.292  1.00  0.00     0.190 C 
HETATM   10  N   UNL     1      41.390 -11.358   0.809  1.00  0.00    -0.066 N 
HETATM   11  C   UNL     1      40.264 -11.394   3.038  1.00  0.00     0.033 C 
HETATM   12  H   UNL     1      42.300 -11.575   0.365  1.00  0.00     0.280 HD
HETATM   13  C   UNL     1      41.117  -9.937   0.394  1.00  0.00     0.270 C 
HETATM   14  C   UNL     1      40.411 -12.368   0.264  1.00  0.00     0.190 C 
HETATM   15  C   UNL     1      41.052 -13.751   0.389  1.00  0.00     0.058 C 
HETATM   16  C   UNL     1      39.055 -12.226   0.963  1.00  0.00     0.033 C 
HETATM   17  C   UNL     1      39.116 -12.231   2.485  1.00  0.00     0.004 C 
ENDBRANCH   3   7
BRANCH   1  18
HETATM   18  C   UNL     1      43.646 -18.463   2.960  1.00  0.00     0.059 A 
HETATM   19  C   UNL     1      44.066 -18.664   4.281  1.00  0.00    -0.032 A 
HETATM   20  C   UNL     1      44.313 -17.572   5.280  1.00  0.00     0.050 C 
HETATM   21  C   UNL     1      44.240 -19.988   4.728  1.00  0.00     0.028 A 
HETATM   22  C   UNL     1      43.941 -21.045   3.883  1.00  0.00     0.117 A 
HETATM   23  N   UNL     1      43.480 -20.882   2.630  1.00  0.00    -0.271 NA
HETATM   24  C   UNL     1      43.341 -19.605   2.207  1.00  0.00     0.146 A 
ENDBRANCH   1  18
TORSDOF 2
ENDMDL
MODEL 4
REMARK VINA RESULT:      -6.8      3.610      4.987
REMARK  2 active torsions:
REMARK  status: ('A' for Active; 'I' for Inactive)
REMARK    1  A    between atoms: C_3  and  N_4 
REMARK       I    between atoms: N_4  and  C_5 
REMARK       I    between atoms: C_5  and  N_6 
REMARK    2  A    between atoms: N_6  and  C_7 
ROOT
HETATM    1  N   UNL     1      43.864 -17.180   4.165  1.00  0.00    -0.307 N 
HETATM    2  C   UNL     1      42.794 -16.362   3.893  1.00  0.00     0.321 C 
HETATM    3  N   UNL     1      43.192 -15.036   3.896  1.00  0.00    -0.338 N 
HETATM    4  O   UNL     1      41.627 -16.686   3.719  1.00  0.00    -0.247 OA
HETATM    5  H   UNL     1      44.555 -16.739   4.756  1.00  0.00     0.170 HD
HETATM    6  H   UNL     1      44.162 -14.882   3.649  1.00  0.00     0.164 HD
ENDROOT
BRANCH   3   7
HETATM    7  C   UNL     1      42.257 -13.928   3.699  1.00  0.00     0.090 C 
HETATM    8  C   UNL     1      41.778 -13.342   5.038  1.00  0.00     0.058 C 
HETATM    9  C   UNL     1      41.108 -11.970   4.940  1.00  0.00     0.190 C 
HETATM   10  N   UNL     1      42.018 -11.072   4.140  1.00  0.00    -0.066 N 
HETATM   11  C   UNL     1      39.701 -11.982   4.331  1.00  0.00     0.033 C 
HETATM   12  H   UNL     1      42.965 -11.190   4.542  1.00  0.00     0.280 HD
HETATM   13  C   UNL     1      41.741  -9.600   4.301  1.00  0.00     0.270 C 
HETATM   14  C   UNL     1      42.116 -11.536   2.708  1.00  0.00     0.190 C 
HETATM   15  C   UNL     1      42.820 -12.894   2.707  1.00  0.00     0.058 C 
HETATM   16  C   UNL     1      40.731 -11.534   2.051  1.00  0.00     0.033 C 
HETATM   17  C   UNL     1      39.650 -12.269   2.835  1.00  0.00     0.004 C 
ENDBRANCH   3   7
BRANCH   1  18
HETATM   18  C   UNL     1      43.868 -18.596   4.192  1.00  0.00     0.059 A 
HETATM   19  C   UNL     1      43.768 -19.407   5.330  1.00  0.00    -0.032 A 
HETATM   20  C   UNL     1      43.569 -18.903   6.729  1.00  0.00     0.050 C 
HETATM   21  C   UNL     1      43.823 -20.804   5.157  1.00  0.00     0.028 A 
HETATM   22  C   UNL     1      43.914 -21.336   3.881  1.00  0.00     0.117 A 
HETATM   23  N   UNL     1      43.951 -20.584   2.767  1.00  0.00    -0.271 NA
HETATM   24  C   UNL     1      43.922 -19.244   2.950  1.00  0.00     0.146 A 
ENDBRANCH   1  18
TORSDOF 2
ENDMDL
MODEL 5
REMARK VINA RESULT:      -6.7     14.539     17.027
REMARK  2 active torsions:
REMARK  status: ('A' for Active; 'I' for Inactive)
REMARK    1  A    between atoms: C_3  and  N_4 
REMARK       I    between atoms: N_4  and  C_5 
REMARK       I    between atoms: C_5  and  N_6 
REMARK    2  A    between atoms: N_6  and  C_7 
ROOT
HETATM    1  N   UNL     1      41.156  -8.208  18.174  1.00  0.00    -0.307 N 
HETATM    2  C   UNL     1      40.814  -7.758  16.921  1.00  0.00     0.321 C 
HETATM    3  N   UNL     1      41.573  -8.399  15.957  1.00  0.00    -0.338 N 
HETATM    4  O   UNL     1      40.007  -6.884  16.632  1.00  0.00    -0.247 OA
HETATM    5  H   UNL     1      42.122  -8.501  18.235  1.00  0.00     0.170 HD
HETATM    6  H   UNL     1      41.889  -9.328  16.212  1.00  0.00     0.164 HD
ENDROOT
BRANCH   3   7
HETATM    7  C   UNL     1      41.476  -8.083  14.533  1.00  0.00     0.090 C 
HETATM    8  C   UNL     1      42.852  -7.757  13.927  1.00  0.00     0.058 C 
HETATM    9  C   UNL     1      42.907  -7.781  12.398  1.00  0.00     0.190 C 
HETATM   10  N   UNL     1      42.299  -9.083  11.938  1.00  0.00    -0.066 N 
HETATM   11  C   UNL     1      42.216  -6.598  11.710  1.00  0.00     0.033 C 
HETATM   12  H   UNL     1      42.739  -9.824  12.512  1.00  0.00     0.280 HD
HETATM   13  C   UNL     1      42.648  -9.470  10.525  1.00  0.00     0.270 C 
HETATM   14  C   UNL     1      40.825  -9.135  12.254  1.00  0.00     0.190 C 
HETATM   15  C   UNL     1      40.677  -9.159  13.776  1.00  0.00     0.058 C 
HETATM   16  C   UNL     1      40.091  -7.984  11.559  1.00  0.00     0.033 C 
HETATM   17  C   UNL     1      40.694  -6.604  11.794  1.00  0.00     0.004 C 
ENDBRANCH   3   7
BRANCH   1  18
HETATM   18  C   UNL     1      40.564  -7.834  19.405  1.00  0.00     0.059 A 
HETATM   19  C   UNL     1      40.875  -6.701  20.168  1.00  0.00    -0.032 A 
HETATM   20  C   UNL     1      41.860  -5.641  19.769  1.00  0.00     0.050 C 
HETATM   21  C   UNL     1      40.196  -6.515  21.387  1.00  0.00     0.028 A 
HETATM   22  C   UNL     1      39.209  -7.409  21.769  1.00  0.00     0.117 A 
HETATM   23  N   UNL     1      38.847  -8.472  21.028  1.00  0.00    -0.271 NA
HETATM   24  C   UNL     1      39.525  -8.651  19.872  1.00  0.00     0.146 A 
ENDBRANCH   1  18
TORSDOF 2
ENDMDL
MODEL 6
REMARK VINA RESULT:      -6.7      4.962      6.950
REMARK  2 active torsions:
REMARK  status: ('A' for Active; 'I' for Inactive)
REMARK    1  A    between atoms: C_3  and  N_4 
REMARK       I    between atoms: N_4  and  C_5 
REMARK       I    between atoms: C_5  and  N_6 
REMARK    2  A    between atoms: N_6  and  C_7 
ROOT
HETATM    1  N   UNL     1      43.400 -10.887   6.489  1.00  0.00    -0.307 N 
HETATM    2  C   UNL     1      43.159 -12.178   6.085  1.00  0.00     0.321 C 
HETATM    3  N   UNL     1      42.869 -12.211   4.731  1.00  0.00    -0.338 N 
HETATM    4  O   UNL     1      43.133 -13.188   6.775  1.00  0.00    -0.247 OA
HETATM    5  H   UNL     1      42.891 -10.204   5.944  1.00  0.00     0.170 HD
HETATM    6  H   UNL     1      43.286 -11.465   4.188  1.00  0.00     0.164 HD
ENDROOT
BRANCH   3   7
HETATM    7  C   UNL     1      42.507 -13.442   4.029  1.00  0.00     0.090 C 
HETATM    8  C   UNL     1      40.988 -13.684   4.051  1.00  0.00     0.058 C 
HETATM    9  C   UNL     1      40.484 -14.721   3.045  1.00  0.00     0.190 C 
HETATM   10  N   UNL     1      41.052 -14.362   1.694  1.00  0.00    -0.066 N 
HETATM   11  C   UNL     1      40.820 -16.176   3.395  1.00  0.00     0.033 C 
HETATM   12  H   UNL     1      40.878 -13.350   1.569  1.00  0.00     0.280 HD
HETATM   13  C   UNL     1      40.339 -14.996   0.529  1.00  0.00     0.270 C 
HETATM   14  C   UNL     1      42.552 -14.530   1.675  1.00  0.00     0.190 C 
HETATM   15  C   UNL     1      43.147 -13.493   2.629  1.00  0.00     0.058 C 
HETATM   16  C   UNL     1      42.929 -15.980   1.991  1.00  0.00     0.033 C 
HETATM   17  C   UNL     1      42.291 -16.548   3.253  1.00  0.00     0.004 C 
ENDBRANCH   3   7
BRANCH   1  18
HETATM   18  C   UNL     1      43.785 -10.457   7.782  1.00  0.00     0.059 A 
HETATM   19  C   UNL     1      43.015  -9.694   8.669  1.00  0.00    -0.032 A 
HETATM   20  C   UNL     1      41.602  -9.254   8.420  1.00  0.00     0.050 C 
HETATM   21  C   UNL     1      43.586  -9.336   9.905  1.00  0.00     0.028 A 
HETATM   22  C   UNL     1      44.853  -9.789  10.235  1.00  0.00     0.117 A 
HETATM   23  N   UNL     1      45.592 -10.572   9.429  1.00  0.00    -0.271 NA
HETATM   24  C   UNL     1      45.040 -10.887   8.235  1.00  0.00     0.146 A 
ENDBRANCH   1  18
TORSDOF 2
ENDMDL
MODEL 7
REMARK VINA RESULT:      -6.7      1.706      7.935
REMARK  2 active torsions:
REMARK  status: ('A' for Active; 'I' for Inactive)
REMARK    1  A    between atoms: C_3  and  N_4 
REMARK       I    between atoms: N_4  and  C_5 
REMARK       I    between atoms: C_5  and  N_6 
REMARK    2  A    between atoms: N_6  and  C_7 
ROOT
HETATM    1  N   UNL     1      39.707 -14.472   0.412  1.00  0.00    -0.307 N 
HETATM    2  C   UNL     1      40.512 -14.231   1.500  1.00  0.00     0.321 C 
HETATM    3  N   UNL     1      40.485 -15.312   2.365  1.00  0.00    -0.338 N 
HETATM    4  O   UNL     1      41.142 -13.214   1.757  1.00  0.00    -0.247 OA
HETATM    5  H   UNL     1      38.927 -15.078   0.627  1.00  0.00     0.170 HD
HETATM    6  H   UNL     1      40.298 -16.205   1.924  1.00  0.00     0.164 HD
ENDROOT
BRANCH   3   7
HETATM    7  C   UNL     1      41.196 -15.321   3.643  1.00  0.00     0.090 C 
HETATM    8  C   UNL     1      40.465 -16.172   4.695  1.00  0.00     0.058 C 
HETATM    9  C   UNL     1      41.301 -16.545   5.920  1.00  0.00     0.190 C 
HETATM   10  N   UNL     1      42.605 -17.122   5.427  1.00  0.00    -0.066 N 
HETATM   11  C   UNL     1      41.565 -15.390   6.895  1.00  0.00     0.033 C 
HETATM   12  H   UNL     1      42.354 -17.820   4.705  1.00  0.00     0.280 HD
HETATM   13  C   UNL     1      43.360 -17.925   6.454  1.00  0.00     0.270 C 
HETATM   14  C   UNL     1      43.430 -16.074   4.723  1.00  0.00     0.190 C 
HETATM   15  C   UNL     1      42.683 -15.672   3.450  1.00  0.00     0.058 C 
HETATM   16  C   UNL     1      43.742 -14.914   5.674  1.00  0.00     0.033 C 
HETATM   17  C   UNL     1      42.530 -14.326   6.386  1.00  0.00     0.004 C 
ENDBRANCH   3   7
BRANCH   1  18
HETATM   18  C   UNL     1      39.521 -13.631  -0.712  1.00  0.00     0.059 A 
HETATM   19  C   UNL     1      38.821 -12.418  -0.737  1.00  0.00    -0.032 A 
HETATM   20  C   UNL     1      38.198 -11.761   0.460  1.00  0.00     0.050 C 
HETATM   21  C   UNL     1      38.717 -11.736  -1.965  1.00  0.00     0.028 A 
HETATM   22  C   UNL     1      39.349 -12.243  -3.089  1.00  0.00     0.117 A 
HETATM   23  N   UNL     1      40.077 -13.373  -3.081  1.00  0.00    -0.271 NA
HETATM   24  C   UNL     1      40.147 -14.029  -1.901  1.00  0.00     0.146 A 
ENDBRANCH   1  18
TORSDOF 2
ENDMDL
MODEL 8
REMARK VINA RESULT:      -6.6      1.438      2.291
REMARK  2 active torsions:
REMARK  status: ('A' for Active; 'I' for Inactive)
REMARK    1  A    between atoms: C_3  and  N_4 
REMARK       I    between atoms: N_4  and  C_5 
REMARK       I    between atoms: C_5  and  N_6 
REMARK    2  A    between atoms: N_6  and  C_7 
ROOT
HETATM    1  N   UNL     1      42.454 -15.215   1.747  1.00  0.00    -0.307 N 
HETATM    2  C   UNL     1      41.296 -14.561   1.400  1.00  0.00     0.321 C 
HETATM    3  N   UNL     1      41.332 -14.201   0.063  1.00  0.00    -0.338 N 
HETATM    4  O   UNL     1      40.357 -14.261   2.125  1.00  0.00    -0.247 OA
HETATM    5  H   UNL     1      43.252 -14.914   1.205  1.00  0.00     0.170 HD
HETATM    6  H   UNL     1      41.900 -14.799  -0.524  1.00  0.00     0.164 HD
ENDROOT
BRANCH   3   7
HETATM    7  C   UNL     1      40.264 -13.436  -0.579  1.00  0.00     0.090 C 
HETATM    8  C   UNL     1      40.337 -11.942  -0.218  1.00  0.00     0.058 C 
HETATM    9  C   UNL     1      39.512 -11.018  -1.116  1.00  0.00     0.190 C 
HETATM   10  N   UNL     1      39.856 -11.345  -2.549  1.00  0.00    -0.066 N 
HETATM   11  C   UNL     1      37.996 -11.096  -0.902  1.00  0.00     0.033 C 
HETATM   12  H   UNL     1      40.890 -11.374  -2.596  1.00  0.00     0.280 HD
HETATM   13  C   UNL     1      39.481 -10.276  -3.540  1.00  0.00     0.270 C 
HETATM   14  C   UNL     1      39.387 -12.731  -2.916  1.00  0.00     0.190 C 
HETATM   15  C   UNL     1      40.197 -13.731  -2.089  1.00  0.00     0.058 C 
HETATM   16  C   UNL     1      37.869 -12.842  -2.744  1.00  0.00     0.033 C 
HETATM   17  C   UNL     1      37.342 -12.384  -1.390  1.00  0.00     0.004 C 
ENDBRANCH   3   7
BRANCH   1  18
HETATM   18  C   UNL     1      42.765 -15.785   3.006  1.00  0.00     0.059 A 
HETATM   19  C   UNL     1      42.974 -17.144   3.274  1.00  0.00    -0.032 A 
HETATM   20  C   UNL     1      42.970 -18.234   2.243  1.00  0.00     0.050 C 
HETATM   21  C   UNL     1      43.243 -17.525   4.603  1.00  0.00     0.028 A 
HETATM   22  C   UNL     1      43.351 -16.556   5.588  1.00  0.00     0.117 A 
HETATM   23  N   UNL     1      43.215 -15.240   5.348  1.00  0.00    -0.271 NA
HETATM   24  C   UNL     1      42.932 -14.892   4.072  1.00  0.00     0.146 A 
ENDBRANCH   1  18
TORSDOF 2
ENDMDL
MODEL 9
REMARK VINA RESULT:      -6.5      2.046      7.958
REMARK  2 active torsions:
REMARK  status: ('A' for Active; 'I' for Inactive)
REMARK    1  A    between atoms: C_3  and  N_4 
REMARK       I    between atoms: N_4  and  C_5 
REMARK       I    between atoms: C_5  and  N_6 
REMARK    2  A    between atoms: N_6  and  C_7 
ROOT
HETATM    1  N   UNL     1      40.393 -12.902  -1.647  1.00  0.00    -0.307 N 
HETATM    2  C   UNL     1      40.604 -12.964  -0.290  1.00  0.00     0.321 C 
HETATM    3  N   UNL     1      41.085 -14.213   0.064  1.00  0.00    -0.338 N 
HETATM    4  O   UNL     1      40.370 -12.101   0.546  1.00  0.00    -0.247 OA
HETATM    5  H   UNL     1      40.153 -13.798  -2.048  1.00  0.00     0.170 HD
HETATM    6  H   UNL     1      41.608 -14.689  -0.662  1.00  0.00     0.164 HD
ENDROOT
BRANCH   3   7
HETATM    7  C   UNL     1      41.345 -14.598   1.451  1.00  0.00     0.090 C 
HETATM    8  C   UNL     1      40.739 -15.972   1.783  1.00  0.00     0.058 C 
HETATM    9  C   UNL     1      41.265 -16.618   3.066  1.00  0.00     0.190 C 
HETATM   10  N   UNL     1      42.773 -16.582   3.012  1.00  0.00    -0.066 N 
HETATM   11  C   UNL     1      40.765 -15.973   4.365  1.00  0.00     0.033 C 
HETATM   12  H   UNL     1      43.034 -16.936   2.074  1.00  0.00     0.280 HD
HETATM   13  C   UNL     1      43.454 -17.535   3.958  1.00  0.00     0.270 C 
HETATM   14  C   UNL     1      43.285 -15.164   3.076  1.00  0.00     0.190 C 
HETATM   15  C   UNL     1      42.838 -14.451   1.799  1.00  0.00     0.058 C 
HETATM   16  C   UNL     1      42.831 -14.493   4.376  1.00  0.00     0.033 C 
HETATM   17  C   UNL     1      41.336 -14.591   4.659  1.00  0.00     0.004 C 
ENDBRANCH   3   7
BRANCH   1  18
HETATM   18  C   UNL     1      39.961 -11.777  -2.391  1.00  0.00     0.059 A 
HETATM   19  C   UNL     1      38.636 -11.443  -2.701  1.00  0.00    -0.032 A 
HETATM   20  C   UNL     1      37.427 -12.197  -2.231  1.00  0.00     0.050 C 
HETATM   21  C   UNL     1      38.407 -10.294  -3.483  1.00  0.00     0.028 A 
HETATM   22  C   UNL     1      39.475  -9.502  -3.872  1.00  0.00     0.117 A 
HETATM   23  N   UNL     1      40.751  -9.766  -3.539  1.00  0.00    -0.271 NA
HETATM   24  C   UNL     1      40.958 -10.885  -2.809  1.00  0.00     0.146 A 
ENDBRANCH   1  18
TORSDOF 2
ENDMDL
MODEL 10
REMARK VINA RESULT:      -6.4      2.319      8.047
REMARK  2 active torsions:
REMARK  status: ('A' for Active; 'I' for Inactive)
REMARK    1  A    between atoms: C_3  and  N_4 
REMARK       I    between atoms: N_4  and  C_5 
REMARK       I    between atoms: C_5  and  N_6 
REMARK    2  A    between atoms: N_6  and  C_7 
ROOT
HETATM    1  N   UNL     1      38.398 -12.310  -0.182  1.00  0.00    -0.307 N 
HETATM    2  C   UNL     1      39.489 -12.582   0.608  1.00  0.00     0.321 C 
HETATM    3  N   UNL     1      39.199 -13.610   1.489  1.00  0.00    -0.338 N 
HETATM    4  O   UNL     1      40.568 -12.005   0.623  1.00  0.00    -0.247 OA
HETATM    5  H   UNL     1      37.520 -12.504   0.281  1.00  0.00     0.170 HD
HETATM    6  H   UNL     1      38.497 -14.264   1.163  1.00  0.00     0.164 HD
ENDROOT
BRANCH   3   7
HETATM    7  C   UNL     1      40.147 -14.079   2.499  1.00  0.00     0.090 C 
HETATM    8  C   UNL     1      40.039 -13.268   3.801  1.00  0.00     0.058 C 
HETATM    9  C   UNL     1      40.709 -13.907   5.019  1.00  0.00     0.190 C 
HETATM   10  N   UNL     1      40.222 -15.332   5.114  1.00  0.00    -0.066 N 
HETATM   11  C   UNL     1      42.242 -13.868   5.006  1.00  0.00     0.033 C 
HETATM   12  H   UNL     1      39.192 -15.290   5.015  1.00  0.00     0.280 HD
HETATM   13  C   UNL     1      40.427 -15.974   6.461  1.00  0.00     0.270 C 
HETATM   14  C   UNL     1      40.716 -16.153   3.948  1.00  0.00     0.190 C 
HETATM   15  C   UNL     1      40.056 -15.605   2.682  1.00  0.00     0.058 C 
HETATM   16  C   UNL     1      42.248 -16.165   3.917  1.00  0.00     0.033 C 
HETATM   17  C   UNL     1      42.900 -14.789   3.986  1.00  0.00     0.004 C 
ENDBRANCH   3   7
BRANCH   1  18
HETATM   18  C   UNL     1      38.324 -11.368  -1.236  1.00  0.00     0.059 A 
HETATM   19  C   UNL     1      38.858 -11.516  -2.523  1.00  0.00    -0.032 A 
HETATM   20  C   UNL     1      39.552 -12.747  -3.029  1.00  0.00     0.050 C 
HETATM   21  C   UNL     1      38.710 -10.449  -3.430  1.00  0.00     0.028 A 
HETATM   22  C   UNL     1      37.999  -9.320  -3.055  1.00  0.00     0.117 A 
HETATM   23  N   UNL     1      37.425  -9.175  -1.848  1.00  0.00    -0.271 NA
HETATM   24  C   UNL     1      37.597 -10.197  -0.979  1.00  0.00     0.146 A 
ENDBRANCH   1  18
TORSDOF 2
ENDMDL
