MODEL 1
REMARK VINA RESULT:     -10.1      0.000      0.000
REMARK  6 active torsions:
REMARK  status: ('A' for Active; 'I' for Inactive)
REMARK    1  A    between atoms: C_5  and  N_6 
REMARK       I    between atoms: N_6  and  C_7 
REMARK    2  A    between atoms: C_7  and  C_8 
REMARK    3  A    between atoms: C_8  and  S_9 
REMARK    4  A    between atoms: S_9  and  C_10 
REMARK    5  A    between atoms: N_15  and  C_17 
REMARK    6  A    between atoms: C_17  and  C_18 
ROOT
HETATM    1  C   UNL     1      42.030 -12.255   4.744  1.00  0.00     0.169 A 
HETATM    2  N   UNL     1      43.217 -12.482   5.186  1.00  0.00    -0.228 NA
HETATM    3  C   UNL     1      43.678 -11.706   6.214  1.00  0.00     0.052 A 
HETATM    4  C   UNL     1      42.938 -10.763   6.816  1.00  0.00     0.060 A 
HETATM    5  C   UNL     1      43.386  -9.971   7.992  1.00  0.00     0.281 C 
HETATM    6  N   UNL     1      44.623 -10.581   8.643  1.00  0.00    -0.063 N 
HETATM    7  H   UNL     1      44.316 -11.471   9.055  1.00  0.00     0.280 HD
HETATM    8  C   UNL     1      45.662 -10.916   7.596  1.00  0.00     0.241 C 
HETATM    9  C   UNL     1      45.102 -11.974   6.640  1.00  0.00     0.088 C 
HETATM   10  C   UNL     1      41.577 -10.523   6.304  1.00  0.00     0.257 A 
HETATM   11  O   UNL     1      40.863  -9.668   6.810  1.00  0.00    -0.267 OA
HETATM   12  N   UNL     1      41.202 -11.306   5.256  1.00  0.00    -0.302 N 
HETATM   13  H   UNL     1      40.276 -11.187   4.869  1.00  0.00     0.171 HD
ENDROOT
BRANCH   1  14
HETATM   14  S   UNL     1      41.330 -13.137   3.426  1.00  0.00    -0.083 SA
BRANCH  14  15
HETATM   15  C   UNL     1      42.729 -14.218   2.961  1.00  0.00     0.185 C 
BRANCH  15  16
HETATM   16  C   UNL     1      42.379 -15.692   3.133  1.00  0.00     0.231 C 
HETATM   17  N   UNL     1      43.469 -16.524   2.928  1.00  0.00    -0.326 N 
HETATM   18  H   UNL     1      44.367 -16.054   2.983  1.00  0.00     0.169 HD
HETATM   19  O   UNL     1      41.240 -16.038   3.438  1.00  0.00    -0.272 OA
BRANCH  17  20
HETATM   20  C   UNL     1      43.509 -17.926   3.110  1.00  0.00     0.041 C 
HETATM   21  C   UNL     1      43.839 -18.598   4.306  1.00  0.00    -0.029 C 
HETATM   22  C   UNL     1      43.975 -20.011   4.282  1.00  0.00    -0.054 C 
HETATM   23  C   UNL     1      43.981 -17.884   5.627  1.00  0.00     0.051 C 
HETATM   24  C   UNL     1      44.386 -20.794   5.503  1.00  0.00     0.049 C 
HETATM   25  C   UNL     1      43.659 -20.727   3.117  1.00  0.00     0.007 C 
HETATM   26  C   UNL     1      43.233 -20.063   1.974  1.00  0.00     0.003 C 
HETATM   27  C   UNL     1      43.160 -18.674   1.972  1.00  0.00     0.030 C 
ENDBRANCH  17  20
ENDBRANCH  15  16
ENDBRANCH  14  15
ENDBRANCH   1  14
BRANCH   6  28
HETATM   28  C   UNL     1      45.165  -9.757   9.785  1.00  0.00     0.273 C 
BRANCH  28  29
HETATM   29  C   UNL     1      44.174  -9.624  10.913  1.00  0.00    -0.030 A 
HETATM   30  C   UNL     1      43.762  -8.351  11.347  1.00  0.00     0.048 A 
HETATM   31  C   UNL     1      42.938  -8.274  12.450  1.00  0.00     0.105 A 
HETATM   32  C   UNL     1      42.494  -9.394  13.104  1.00  0.00     0.105 A 
HETATM   33  O   UNL     1      42.494  -7.125  13.023  1.00  0.00    -0.323 OA
HETATM   34  O   UNL     1      41.708  -9.093  14.170  1.00  0.00    -0.323 OA
HETATM   35  C   UNL     1      42.843 -10.660  12.688  1.00  0.00     0.040 A 
HETATM   36  C   UNL     1      41.722  -7.651  14.126  1.00  0.00     0.352 A 
HETATM   37  C   UNL     1      43.695 -10.775  11.584  1.00  0.00     0.012 A 
ENDBRANCH  28  29
ENDBRANCH   6  28
TORSDOF 6
ENDMDL
MODEL 2
REMARK VINA RESULT:      -9.8      5.378      8.611
REMARK  6 active torsions:
REMARK  status: ('A' for Active; 'I' for Inactive)
REMARK    1  A    between atoms: C_5  and  N_6 
REMARK       I    between atoms: N_6  and  C_7 
REMARK    2  A    between atoms: C_7  and  C_8 
REMARK    3  A    between atoms: C_8  and  S_9 
REMARK    4  A    between atoms: S_9  and  C_10 
REMARK    5  A    between atoms: N_15  and  C_17 
REMARK    6  A    between atoms: C_17  and  C_18 
ROOT
HETATM    1  C   UNL     1      40.916 -14.375   5.015  1.00  0.00     0.169 A 
HETATM    2  N   UNL     1      41.135 -14.957   3.888  1.00  0.00    -0.228 NA
HETATM    3  C   UNL     1      40.631 -14.374   2.758  1.00  0.00     0.052 A 
HETATM    4  C   UNL     1      39.974 -13.205   2.759  1.00  0.00     0.060 A 
HETATM    5  C   UNL     1      39.498 -12.510   1.535  1.00  0.00     0.281 C 
HETATM    6  N   UNL     1      40.134 -13.088   0.276  1.00  0.00    -0.063 N 
HETATM    7  H   UNL     1      41.130 -12.839   0.322  1.00  0.00     0.280 HD
HETATM    8  C   UNL     1      40.058 -14.599   0.290  1.00  0.00     0.241 C 
HETATM    9  C   UNL     1      40.861 -15.141   1.476  1.00  0.00     0.088 C 
HETATM   10  C   UNL     1      39.741 -12.547   4.058  1.00  0.00     0.257 A 
HETATM   11  O   UNL     1      39.137 -11.485   4.119  1.00  0.00    -0.267 OA
HETATM   12  N   UNL     1      40.236 -13.205   5.142  1.00  0.00    -0.302 N 
HETATM   13  H   UNL     1      40.110 -12.795   6.057  1.00  0.00     0.171 HD
ENDROOT
BRANCH   1  14
HETATM   14  S   UNL     1      41.464 -15.017   6.529  1.00  0.00    -0.083 SA
BRANCH  14  15
HETATM   15  C   UNL     1      43.273 -14.836   6.339  1.00  0.00     0.185 C 
BRANCH  15  16
HETATM   16  C   UNL     1      43.940 -16.171   6.024  1.00  0.00     0.231 C 
HETATM   17  N   UNL     1      43.102 -17.032   5.329  1.00  0.00    -0.326 N 
HETATM   18  H   UNL     1      42.311 -16.576   4.888  1.00  0.00     0.169 HD
HETATM   19  O   UNL     1      45.100 -16.391   6.360  1.00  0.00    -0.272 OA
BRANCH  17  20
HETATM   20  C   UNL     1      43.444 -18.298   4.798  1.00  0.00     0.041 C 
HETATM   21  C   UNL     1      43.498 -18.635   3.430  1.00  0.00    -0.029 C 
HETATM   22  C   UNL     1      43.714 -19.992   3.067  1.00  0.00    -0.054 C 
HETATM   23  C   UNL     1      43.408 -17.604   2.334  1.00  0.00     0.051 C 
HETATM   24  C   UNL     1      43.723 -20.441   1.628  1.00  0.00     0.049 C 
HETATM   25  C   UNL     1      43.996 -20.945   4.057  1.00  0.00     0.007 C 
HETATM   26  C   UNL     1      44.044 -20.581   5.396  1.00  0.00     0.003 C 
HETATM   27  C   UNL     1      43.769 -19.267   5.762  1.00  0.00     0.030 C 
ENDBRANCH  17  20
ENDBRANCH  15  16
ENDBRANCH  14  15
ENDBRANCH   1  14
BRANCH   6  28
HETATM   28  C   UNL     1      39.609 -12.472  -0.998  1.00  0.00     0.273 C 
BRANCH  28  29
HETATM   29  C   UNL     1      40.064 -11.045  -1.170  1.00  0.00    -0.030 A 
HETATM   30  C   UNL     1      41.436 -10.735  -1.167  1.00  0.00     0.048 A 
HETATM   31  C   UNL     1      41.804  -9.407  -1.221  1.00  0.00     0.105 A 
HETATM   32  C   UNL     1      40.876  -8.400  -1.304  1.00  0.00     0.105 A 
HETATM   33  O   UNL     1      43.079  -8.940  -1.176  1.00  0.00    -0.323 OA
HETATM   34  O   UNL     1      41.451  -7.169  -1.330  1.00  0.00    -0.323 OA
HETATM   35  C   UNL     1      39.525  -8.663  -1.348  1.00  0.00     0.040 A 
HETATM   36  C   UNL     1      42.848  -7.513  -1.232  1.00  0.00     0.352 A 
HETATM   37  C   UNL     1      39.116 -10.000  -1.276  1.00  0.00     0.012 A 
ENDBRANCH  28  29
ENDBRANCH   6  28
TORSDOF 6
ENDMDL
MODEL 3
REMARK VINA RESULT:      -9.8      2.678     10.824
REMARK  6 active torsions:
REMARK  status: ('A' for Active; 'I' for Inactive)
REMARK    1  A    between atoms: C_5  and  N_6 
REMARK       I    between atoms: N_6  and  C_7 
REMARK    2  A    between atoms: C_7  and  C_8 
REMARK    3  A    between atoms: C_8  and  S_9 
REMARK    4  A    between atoms: S_9  and  C_10 
REMARK    5  A    between atoms: N_15  and  C_17 
REMARK    6  A    between atoms: C_17  and  C_18 
ROOT
HETATM    1  C   UNL     1      41.619 -10.537   5.778  1.00  0.00     0.169 A 
HETATM    2  N   UNL     1      40.813 -11.503   5.502  1.00  0.00    -0.228 NA
HETATM    3  C   UNL     1      41.232 -12.451   4.610  1.00  0.00     0.052 A 
HETATM    4  C   UNL     1      42.453 -12.455   4.055  1.00  0.00     0.060 A 
HETATM    5  C   UNL     1      42.961 -13.523   3.155  1.00  0.00     0.281 C 
HETATM    6  N   UNL     1      42.082 -14.768   3.208  1.00  0.00    -0.063 N 
HETATM    7  H   UNL     1      42.210 -15.165   4.147  1.00  0.00     0.280 HD
HETATM    8  C   UNL     1      40.622 -14.392   3.084  1.00  0.00     0.241 C 
HETATM    9  C   UNL     1      40.217 -13.518   4.275  1.00  0.00     0.088 C 
HETATM   10  C   UNL     1      43.366 -11.347   4.390  1.00  0.00     0.257 A 
HETATM   11  O   UNL     1      44.488 -11.296   3.904  1.00  0.00    -0.267 OA
HETATM   12  N   UNL     1      42.867 -10.421   5.253  1.00  0.00    -0.302 N 
HETATM   13  H   UNL     1      43.453  -9.643   5.522  1.00  0.00     0.171 HD
ENDROOT
BRANCH   1  14
HETATM   14  S   UNL     1      41.208  -9.249   6.863  1.00  0.00    -0.083 SA
BRANCH  14  15
HETATM   15  C   UNL     1      39.665  -9.900   7.595  1.00  0.00     0.185 C 
BRANCH  15  16
HETATM   16  C   UNL     1      39.529  -9.504   9.061  1.00  0.00     0.231 C 
HETATM   17  N   UNL     1      40.663  -9.808   9.801  1.00  0.00    -0.326 N 
HETATM   18  H   UNL     1      41.494  -9.969   9.241  1.00  0.00     0.169 HD
HETATM   19  O   UNL     1      38.508  -8.961   9.475  1.00  0.00    -0.272 OA
BRANCH  17  20
HETATM   20  C   UNL     1      40.901  -9.481  11.156  1.00  0.00     0.041 C 
HETATM   21  C   UNL     1      41.876  -8.579  11.632  1.00  0.00    -0.029 C 
HETATM   22  C   UNL     1      42.085  -8.473  13.033  1.00  0.00    -0.054 C 
HETATM   23  C   UNL     1      42.657  -7.669  10.718  1.00  0.00     0.051 C 
HETATM   24  C   UNL     1      43.150  -7.579  13.615  1.00  0.00     0.049 C 
HETATM   25  C   UNL     1      41.243  -9.160  13.921  1.00  0.00     0.007 C 
HETATM   26  C   UNL     1      40.217  -9.963  13.444  1.00  0.00     0.003 C 
HETATM   27  C   UNL     1      40.048 -10.122  12.071  1.00  0.00     0.030 C 
ENDBRANCH  17  20
ENDBRANCH  15  16
ENDBRANCH  14  15
ENDBRANCH   1  14
BRANCH   6  28
HETATM   28  C   UNL     1      42.510 -15.844   2.239  1.00  0.00     0.273 C 
BRANCH  28  29
HETATM   29  C   UNL     1      43.111 -17.035   2.940  1.00  0.00    -0.030 A 
HETATM   30  C   UNL     1      43.100 -18.299   2.323  1.00  0.00     0.048 A 
HETATM   31  C   UNL     1      43.564 -19.380   3.044  1.00  0.00     0.105 A 
HETATM   32  C   UNL     1      44.054 -19.247   4.317  1.00  0.00     0.105 A 
HETATM   33  O   UNL     1      43.574 -20.668   2.612  1.00  0.00    -0.323 OA
HETATM   34  O   UNL     1      44.442 -20.435   4.849  1.00  0.00    -0.323 OA
HETATM   35  C   UNL     1      44.117 -18.021   4.943  1.00  0.00     0.040 A 
HETATM   36  C   UNL     1      44.122 -21.339   3.771  1.00  0.00     0.352 A 
HETATM   37  C   UNL     1      43.637 -16.906   4.248  1.00  0.00     0.012 A 
ENDBRANCH  28  29
ENDBRANCH   6  28
TORSDOF 6
ENDMDL
MODEL 4
REMARK VINA RESULT:      -9.7      1.831      2.773
REMARK  6 active torsions:
REMARK  status: ('A' for Active; 'I' for Inactive)
REMARK    1  A    between atoms: C_5  and  N_6 
REMARK       I    between atoms: N_6  and  C_7 
REMARK    2  A    between atoms: C_7  and  C_8 
REMARK    3  A    between atoms: C_8  and  S_9 
REMARK    4  A    between atoms: S_9  and  C_10 
REMARK    5  A    between atoms: N_15  and  C_17 
REMARK    6  A    between atoms: C_17  and  C_18 
ROOT
HETATM    1  C   UNL     1      43.561 -12.771   6.850  1.00  0.00     0.169 A 
HETATM    2  N   UNL     1      44.418 -12.090   7.528  1.00  0.00    -0.228 NA
HETATM    3  C   UNL     1      44.134 -10.777   7.786  1.00  0.00     0.052 A 
HETATM    4  C   UNL     1      42.988 -10.183   7.419  1.00  0.00     0.060 A 
HETATM    5  C   UNL     1      42.620  -8.787   7.768  1.00  0.00     0.281 C 
HETATM    6  N   UNL     1      43.517  -8.225   8.865  1.00  0.00    -0.063 N 
HETATM    7  H   UNL     1      43.288  -8.753   9.716  1.00  0.00     0.280 HD
HETATM    8  C   UNL     1      44.971  -8.502   8.554  1.00  0.00     0.241 C 
HETATM    9  C   UNL     1      45.209 -10.015   8.524  1.00  0.00     0.088 C 
HETATM   10  C   UNL     1      42.013 -10.981   6.653  1.00  0.00     0.257 A 
HETATM   11  O   UNL     1      40.957 -10.486   6.284  1.00  0.00    -0.267 OA
HETATM   12  N   UNL     1      42.381 -12.266   6.400  1.00  0.00    -0.302 N 
HETATM   13  H   UNL     1      41.748 -12.859   5.883  1.00  0.00     0.171 HD
ENDROOT
BRANCH   1  14
HETATM   14  S   UNL     1      43.805 -14.432   6.420  1.00  0.00    -0.083 SA
BRANCH  14  15
HETATM   15  C   UNL     1      42.077 -14.977   6.179  1.00  0.00     0.185 C 
BRANCH  15  16
HETATM   16  C   UNL     1      42.008 -16.309   5.439  1.00  0.00     0.231 C 
HETATM   17  N   UNL     1      43.250 -16.916   5.321  1.00  0.00    -0.326 N 
HETATM   18  H   UNL     1      43.949 -16.562   5.965  1.00  0.00     0.169 HD
HETATM   19  O   UNL     1      40.936 -16.749   5.032  1.00  0.00    -0.272 OA
BRANCH  17  20
HETATM   20  C   UNL     1      43.516 -18.197   4.784  1.00  0.00     0.041 C 
HETATM   21  C   UNL     1      43.529 -18.535   3.414  1.00  0.00    -0.029 C 
HETATM   22  C   UNL     1      43.669 -19.900   3.048  1.00  0.00    -0.054 C 
HETATM   23  C   UNL     1      43.473 -17.499   2.320  1.00  0.00     0.051 C 
HETATM   24  C   UNL     1      43.630 -20.347   1.608  1.00  0.00     0.049 C 
HETATM   25  C   UNL     1      43.920 -20.869   4.032  1.00  0.00     0.007 C 
HETATM   26  C   UNL     1      44.010 -20.509   5.369  1.00  0.00     0.003 C 
HETATM   27  C   UNL     1      43.810 -19.183   5.741  1.00  0.00     0.030 C 
ENDBRANCH  17  20
ENDBRANCH  15  16
ENDBRANCH  14  15
ENDBRANCH   1  14
BRANCH   6  28
HETATM   28  C   UNL     1      43.237  -6.777   9.185  1.00  0.00     0.273 C 
BRANCH  28  29
HETATM   29  C   UNL     1      42.909  -6.569  10.642  1.00  0.00    -0.030 A 
HETATM   30  C   UNL     1      42.993  -7.642  11.547  1.00  0.00     0.048 A 
HETATM   31  C   UNL     1      42.582  -7.433  12.846  1.00  0.00     0.105 A 
HETATM   32  C   UNL     1      42.127  -6.212  13.276  1.00  0.00     0.105 A 
HETATM   33  O   UNL     1      42.554  -8.374  13.825  1.00  0.00    -0.323 OA
HETATM   34  O   UNL     1      41.759  -6.229  14.583  1.00  0.00    -0.323 OA
HETATM   35  C   UNL     1      42.064  -5.126  12.431  1.00  0.00     0.040 A 
HETATM   36  C   UNL     1      42.016  -7.607  14.926  1.00  0.00     0.352 A 
HETATM   37  C   UNL     1      42.455  -5.309  11.100  1.00  0.00     0.012 A 
ENDBRANCH  28  29
ENDBRANCH   6  28
TORSDOF 6
ENDMDL
MODEL 5
REMARK VINA RESULT:      -9.7      0.886      1.659
REMARK  6 active torsions:
REMARK  status: ('A' for Active; 'I' for Inactive)
REMARK    1  A    between atoms: C_5  and  N_6 
REMARK       I    between atoms: N_6  and  C_7 
REMARK    2  A    between atoms: C_7  and  C_8 
REMARK    3  A    between atoms: C_8  and  S_9 
REMARK    4  A    between atoms: S_9  and  C_10 
REMARK    5  A    between atoms: N_15  and  C_17 
REMARK    6  A    between atoms: C_17  and  C_18 
ROOT
HETATM    1  C   UNL     1      42.506 -11.800   4.458  1.00  0.00     0.169 A 
HETATM    2  N   UNL     1      43.674 -12.037   4.944  1.00  0.00    -0.228 NA
HETATM    3  C   UNL     1      44.059 -11.339   6.055  1.00  0.00     0.052 A 
HETATM    4  C   UNL     1      43.264 -10.467   6.692  1.00  0.00     0.060 A 
HETATM    5  C   UNL     1      43.629  -9.767   7.951  1.00  0.00     0.281 C 
HETATM    6  N   UNL     1      44.845 -10.401   8.616  1.00  0.00    -0.063 N 
HETATM    7  H   UNL     1      44.541 -11.329   8.937  1.00  0.00     0.280 HD
HETATM    8  C   UNL     1      45.946 -10.625   7.603  1.00  0.00     0.241 C 
HETATM    9  C   UNL     1      45.466 -11.611   6.535  1.00  0.00     0.088 C 
HETATM   10  C   UNL     1      41.926 -10.215   6.128  1.00  0.00     0.257 A 
HETATM   11  O   UNL     1      41.164  -9.421   6.663  1.00  0.00    -0.267 OA
HETATM   12  N   UNL     1      41.627 -10.916   5.000  1.00  0.00    -0.302 N 
HETATM   13  H   UNL     1      40.720 -10.786   4.574  1.00  0.00     0.171 HD
ENDROOT
BRANCH   1  14
HETATM   14  S   UNL     1      41.900 -12.584   3.035  1.00  0.00    -0.083 SA
BRANCH  14  15
HETATM   15  C   UNL     1      40.588 -13.631   3.758  1.00  0.00     0.185 C 
BRANCH  15  16
HETATM   16  C   UNL     1      40.959 -15.110   3.706  1.00  0.00     0.231 C 
HETATM   17  N   UNL     1      42.274 -15.341   4.081  1.00  0.00    -0.326 N 
HETATM   18  H   UNL     1      42.700 -14.577   4.596  1.00  0.00     0.169 HD
HETATM   19  O   UNL     1      40.131 -15.956   3.378  1.00  0.00    -0.272 OA
BRANCH  17  20
HETATM   20  C   UNL     1      42.899 -16.600   4.239  1.00  0.00     0.041 C 
HETATM   21  C   UNL     1      43.229 -17.496   3.201  1.00  0.00    -0.029 C 
HETATM   22  C   UNL     1      43.721 -18.785   3.541  1.00  0.00    -0.054 C 
HETATM   23  C   UNL     1      43.151 -17.118   1.743  1.00  0.00     0.051 C 
HETATM   24  C   UNL     1      44.037 -19.820   2.491  1.00  0.00     0.049 C 
HETATM   25  C   UNL     1      43.991 -19.102   4.881  1.00  0.00     0.007 C 
HETATM   26  C   UNL     1      43.761 -18.173   5.886  1.00  0.00     0.003 C 
HETATM   27  C   UNL     1      43.219 -16.932   5.566  1.00  0.00     0.030 C 
ENDBRANCH  17  20
ENDBRANCH  15  16
ENDBRANCH  14  15
ENDBRANCH   1  14
BRANCH   6  28
HETATM   28  C   UNL     1      45.305  -9.663   9.850  1.00  0.00     0.273 C 
BRANCH  28  29
HETATM   29  C   UNL     1      44.234  -9.600  10.909  1.00  0.00    -0.030 A 
HETATM   30  C   UNL     1      43.719  -8.358  11.322  1.00  0.00     0.048 A 
HETATM   31  C   UNL     1      42.819  -8.341  12.366  1.00  0.00     0.105 A 
HETATM   32  C   UNL     1      42.399  -9.492  12.982  1.00  0.00     0.105 A 
HETATM   33  O   UNL     1      42.269  -7.226  12.914  1.00  0.00    -0.323 OA
HETATM   34  O   UNL     1      41.526  -9.249  13.994  1.00  0.00    -0.323 OA
HETATM   35  C   UNL     1      42.851 -10.731  12.583  1.00  0.00     0.040 A 
HETATM   36  C   UNL     1      41.457  -7.808  13.960  1.00  0.00     0.352 A 
HETATM   37  C   UNL     1      43.780 -10.784  11.539  1.00  0.00     0.012 A 
ENDBRANCH  28  29
ENDBRANCH   6  28
TORSDOF 6
ENDMDL
MODEL 6
REMARK VINA RESULT:      -9.5      2.591     10.131
REMARK  6 active torsions:
REMARK  status: ('A' for Active; 'I' for Inactive)
REMARK    1  A    between atoms: C_5  and  N_6 
REMARK       I    between atoms: N_6  and  C_7 
REMARK    2  A    between atoms: C_7  and  C_8 
REMARK    3  A    between atoms: C_8  and  S_9 
REMARK    4  A    between atoms: S_9  and  C_10 
REMARK    5  A    between atoms: N_15  and  C_17 
REMARK    6  A    between atoms: C_17  and  C_18 
ROOT
HETATM    1  C   UNL     1      41.083 -10.327   3.874  1.00  0.00     0.169 A 
HETATM    2  N   UNL     1      40.405 -11.313   3.398  1.00  0.00    -0.228 NA
HETATM    3  C   UNL     1      41.095 -12.384   2.901  1.00  0.00     0.052 A 
HETATM    4  C   UNL     1      42.432 -12.483   2.937  1.00  0.00     0.060 A 
HETATM    5  C   UNL     1      43.196 -13.675   2.487  1.00  0.00     0.281 C 
HETATM    6  N   UNL     1      42.291 -14.890   2.308  1.00  0.00    -0.063 N 
HETATM    7  H   UNL     1      41.975 -15.149   3.251  1.00  0.00     0.280 HD
HETATM    8  C   UNL     1      41.056 -14.518   1.518  1.00  0.00     0.241 C 
HETATM    9  C   UNL     1      40.245 -13.477   2.295  1.00  0.00     0.088 C 
HETATM   10  C   UNL     1      43.192 -11.350   3.494  1.00  0.00     0.257 A 
HETATM   11  O   UNL     1      44.414 -11.382   3.541  1.00  0.00    -0.267 OA
HETATM   12  N   UNL     1      42.440 -10.303   3.933  1.00  0.00    -0.302 N 
HETATM   13  H   UNL     1      42.910  -9.501   4.329  1.00  0.00     0.171 HD
ENDROOT
BRANCH   1  14
HETATM   14  S   UNL     1      40.343  -8.892   4.503  1.00  0.00    -0.083 SA
BRANCH  14  15
HETATM   15  C   UNL     1      39.962  -9.426   6.209  1.00  0.00     0.185 C 
BRANCH  15  16
HETATM   16  C   UNL     1      40.969  -8.868   7.209  1.00  0.00     0.231 C 
HETATM   17  N   UNL     1      41.542  -9.858   7.994  1.00  0.00    -0.326 N 
HETATM   18  H   UNL     1      41.444 -10.795   7.619  1.00  0.00     0.169 HD
HETATM   19  O   UNL     1      41.214  -7.665   7.252  1.00  0.00    -0.272 OA
BRANCH  17  20
HETATM   20  C   UNL     1      42.580  -9.691   8.941  1.00  0.00     0.041 C 
HETATM   21  C   UNL     1      42.423  -9.257  10.274  1.00  0.00    -0.029 C 
HETATM   22  C   UNL     1      43.584  -9.001  11.051  1.00  0.00    -0.054 C 
HETATM   23  C   UNL     1      41.073  -9.126  10.933  1.00  0.00     0.051 C 
HETATM   24  C   UNL     1      43.499  -8.477  12.462  1.00  0.00     0.049 C 
HETATM   25  C   UNL     1      44.854  -9.299  10.535  1.00  0.00     0.007 C 
HETATM   26  C   UNL     1      44.991  -9.825   9.258  1.00  0.00     0.003 C 
HETATM   27  C   UNL     1      43.862 -10.018   8.468  1.00  0.00     0.030 C 
ENDBRANCH  17  20
ENDBRANCH  15  16
ENDBRANCH  14  15
ENDBRANCH   1  14
BRANCH   6  28
HETATM   28  C   UNL     1      43.012 -16.098   1.763  1.00  0.00     0.273 C 
BRANCH  28  29
HETATM   29  C   UNL     1      43.366 -17.086   2.846  1.00  0.00    -0.030 A 
HETATM   30  C   UNL     1      43.538 -18.447   2.534  1.00  0.00     0.048 A 
HETATM   31  C   UNL     1      43.756 -19.330   3.570  1.00  0.00     0.105 A 
HETATM   32  C   UNL     1      43.836 -18.914   4.874  1.00  0.00     0.105 A 
HETATM   33  O   UNL     1      43.892 -20.676   3.442  1.00  0.00    -0.323 OA
HETATM   34  O   UNL     1      44.040 -19.945   5.734  1.00  0.00    -0.323 OA
HETATM   35  C   UNL     1      43.711 -17.586   5.218  1.00  0.00     0.040 A 
HETATM   36  C   UNL     1      44.058 -21.066   4.825  1.00  0.00     0.352 A 
HETATM   37  C   UNL     1      43.469 -16.665   4.193  1.00  0.00     0.012 A 
ENDBRANCH  28  29
ENDBRANCH   6  28
TORSDOF 6
ENDMDL
MODEL 7
REMARK VINA RESULT:      -9.4      5.067      8.829
REMARK  6 active torsions:
REMARK  status: ('A' for Active; 'I' for Inactive)
REMARK    1  A    between atoms: C_5  and  N_6 
REMARK       I    between atoms: N_6  and  C_7 
REMARK    2  A    between atoms: C_7  and  C_8 
REMARK    3  A    between atoms: C_8  and  S_9 
REMARK    4  A    between atoms: S_9  and  C_10 
REMARK    5  A    between atoms: N_15  and  C_17 
REMARK    6  A    between atoms: C_17  and  C_18 
ROOT
HETATM    1  C   UNL     1      39.609  -9.988   3.916  1.00  0.00     0.169 A 
HETATM    2  N   UNL     1      40.833 -10.223   3.594  1.00  0.00    -0.228 NA
HETATM    3  C   UNL     1      41.443 -11.316   4.145  1.00  0.00     0.052 A 
HETATM    4  C   UNL     1      40.815 -12.182   4.955  1.00  0.00     0.060 A 
HETATM    5  C   UNL     1      41.430 -13.423   5.492  1.00  0.00     0.281 C 
HETATM    6  N   UNL     1      42.716 -13.779   4.753  1.00  0.00    -0.063 N 
HETATM    7  H   UNL     1      42.432 -14.044   3.802  1.00  0.00     0.280 HD
HETATM    8  C   UNL     1      43.607 -12.564   4.624  1.00  0.00     0.241 C 
HETATM    9  C   UNL     1      42.898 -11.497   3.783  1.00  0.00     0.088 C 
HETATM   10  C   UNL     1      39.410 -11.904   5.306  1.00  0.00     0.257 A 
HETATM   11  O   UNL     1      38.794 -12.654   6.049  1.00  0.00    -0.267 OA
HETATM   12  N   UNL     1      38.883 -10.778   4.751  1.00  0.00    -0.302 N 
HETATM   13  H   UNL     1      37.922 -10.542   4.954  1.00  0.00     0.171 HD
ENDROOT
BRANCH   1  14
HETATM   14  S   UNL     1      38.724  -8.622   3.322  1.00  0.00    -0.083 SA
BRANCH  14  15
HETATM   15  C   UNL     1      38.933  -8.839   1.520  1.00  0.00     0.185 C 
BRANCH  15  16
HETATM   16  C   UNL     1      38.592 -10.260   1.084  1.00  0.00     0.231 C 
HETATM   17  N   UNL     1      39.695 -10.946   0.596  1.00  0.00    -0.326 N 
HETATM   18  H   UNL     1      40.587 -10.538   0.858  1.00  0.00     0.169 HD
HETATM   19  O   UNL     1      37.449 -10.696   1.194  1.00  0.00    -0.272 OA
BRANCH  17  20
HETATM   20  C   UNL     1      39.742 -12.305   0.209  1.00  0.00     0.041 C 
HETATM   21  C   UNL     1      39.350 -12.823  -1.044  1.00  0.00    -0.029 C 
HETATM   22  C   UNL     1      39.321 -14.232  -1.223  1.00  0.00    -0.054 C 
HETATM   23  C   UNL     1      39.031 -11.941  -2.225  1.00  0.00     0.051 C 
HETATM   24  C   UNL     1      38.855 -14.863  -2.510  1.00  0.00     0.049 C 
HETATM   25  C   UNL     1      39.799 -15.077  -0.210  1.00  0.00     0.007 C 
HETATM   26  C   UNL     1      40.282 -14.551   0.980  1.00  0.00     0.003 C 
HETATM   27  C   UNL     1      40.253 -13.175   1.187  1.00  0.00     0.030 C 
ENDBRANCH  17  20
ENDBRANCH  15  16
ENDBRANCH  14  15
ENDBRANCH   1  14
BRANCH   6  28
HETATM   28  C   UNL     1      43.423 -14.983   5.327  1.00  0.00     0.273 C 
BRANCH  28  29
HETATM   29  C   UNL     1      43.325 -16.186   4.423  1.00  0.00    -0.030 A 
HETATM   30  C   UNL     1      43.654 -17.464   4.908  1.00  0.00     0.048 A 
HETATM   31  C   UNL     1      43.653 -18.518   4.018  1.00  0.00     0.105 A 
HETATM   32  C   UNL     1      43.315 -18.355   2.699  1.00  0.00     0.105 A 
HETATM   33  O   UNL     1      43.994 -19.800   4.315  1.00  0.00    -0.323 OA
HETATM   34  O   UNL     1      43.394 -19.515   1.998  1.00  0.00    -0.323 OA
HETATM   35  C   UNL     1      42.950 -17.127   2.194  1.00  0.00     0.040 A 
HETATM   36  C   UNL     1      43.841 -20.429   3.022  1.00  0.00     0.352 A 
HETATM   37  C   UNL     1      42.959 -16.031   3.064  1.00  0.00     0.012 A 
ENDBRANCH  28  29
ENDBRANCH   6  28
TORSDOF 6
ENDMDL
MODEL 8
REMARK VINA RESULT:      -9.4      5.377      9.326
REMARK  6 active torsions:
REMARK  status: ('A' for Active; 'I' for Inactive)
REMARK    1  A    between atoms: C_5  and  N_6 
REMARK       I    between atoms: N_6  and  C_7 
REMARK    2  A    between atoms: C_7  and  C_8 
REMARK    3  A    between atoms: C_8  and  S_9 
REMARK    4  A    between atoms: S_9  and  C_10 
REMARK    5  A    between atoms: N_15  and  C_17 
REMARK    6  A    between atoms: C_17  and  C_18 
ROOT
HETATM    1  C   UNL     1      42.894 -13.514   4.515  1.00  0.00     0.169 A 
HETATM    2  N   UNL     1      42.192 -14.514   4.111  1.00  0.00    -0.228 NA
HETATM    3  C   UNL     1      41.500 -14.380   2.940  1.00  0.00     0.052 A 
HETATM    4  C   UNL     1      41.561 -13.285   2.167  1.00  0.00     0.060 A 
HETATM    5  C   UNL     1      40.890 -13.153   0.847  1.00  0.00     0.281 C 
HETATM    6  N   UNL     1      40.420 -14.503   0.317  1.00  0.00    -0.063 N 
HETATM    7  H   UNL     1      41.273 -15.035   0.101  1.00  0.00     0.280 HD
HETATM    8  C   UNL     1      39.686 -15.269   1.394  1.00  0.00     0.241 C 
HETATM    9  C   UNL     1      40.641 -15.562   2.556  1.00  0.00     0.088 C 
HETATM   10  C   UNL     1      42.377 -12.152   2.640  1.00  0.00     0.257 A 
HETATM   11  O   UNL     1      42.459 -11.126   1.980  1.00  0.00    -0.267 OA
HETATM   12  N   UNL     1      43.005 -12.344   3.832  1.00  0.00    -0.302 N 
HETATM   13  H   UNL     1      43.582 -11.601   4.200  1.00  0.00     0.171 HD
ENDROOT
BRANCH   1  14
HETATM   14  S   UNL     1      43.793 -13.530   5.997  1.00  0.00    -0.083 SA
BRANCH  14  15
HETATM   15  C   UNL     1      43.112 -15.029   6.790  1.00  0.00     0.185 C 
BRANCH  15  16
HETATM   16  C   UNL     1      43.851 -16.286   6.340  1.00  0.00     0.231 C 
HETATM   17  N   UNL     1      43.018 -17.190   5.697  1.00  0.00    -0.326 N 
HETATM   18  H   UNL     1      42.147 -16.789   5.365  1.00  0.00     0.169 HD
HETATM   19  O   UNL     1      45.056 -16.414   6.541  1.00  0.00    -0.272 OA
BRANCH  17  20
HETATM   20  C   UNL     1      43.405 -18.398   5.071  1.00  0.00     0.041 C 
HETATM   21  C   UNL     1      43.535 -18.607   3.682  1.00  0.00    -0.029 C 
HETATM   22  C   UNL     1      43.790 -19.922   3.209  1.00  0.00    -0.054 C 
HETATM   23  C   UNL     1      43.488 -17.479   2.682  1.00  0.00     0.051 C 
HETATM   24  C   UNL     1      43.880 -20.236   1.738  1.00  0.00     0.049 C 
HETATM   25  C   UNL     1      44.034 -20.960   4.121  1.00  0.00     0.007 C 
HETATM   26  C   UNL     1      44.007 -20.721   5.488  1.00  0.00     0.003 C 
HETATM   27  C   UNL     1      43.694 -19.449   5.958  1.00  0.00     0.030 C 
ENDBRANCH  17  20
ENDBRANCH  15  16
ENDBRANCH  14  15
ENDBRANCH   1  14
BRANCH   6  28
HETATM   28  C   UNL     1      39.652 -14.403  -0.978  1.00  0.00     0.273 C 
BRANCH  28  29
HETATM   29  C   UNL     1      39.781 -13.042  -1.613  1.00  0.00    -0.030 A 
HETATM   30  C   UNL     1      38.777 -12.075  -1.424  1.00  0.00     0.048 A 
HETATM   31  C   UNL     1      38.883 -10.883  -2.109  1.00  0.00     0.105 A 
HETATM   32  C   UNL     1      39.944 -10.612  -2.935  1.00  0.00     0.105 A 
HETATM   33  O   UNL     1      37.977  -9.871  -2.075  1.00  0.00    -0.323 OA
HETATM   34  O   UNL     1      39.845  -9.391  -3.522  1.00  0.00    -0.323 OA
HETATM   35  C   UNL     1      40.967 -11.517  -3.118  1.00  0.00     0.040 A 
HETATM   36  C   UNL     1      38.587  -8.929  -2.987  1.00  0.00     0.352 A 
HETATM   37  C   UNL     1      40.881 -12.745  -2.453  1.00  0.00     0.012 A 
ENDBRANCH  28  29
ENDBRANCH   6  28
TORSDOF 6
ENDMDL
MODEL 9
REMARK VINA RESULT:      -9.2      5.603      9.755
REMARK  6 active torsions:
REMARK  status: ('A' for Active; 'I' for Inactive)
REMARK    1  A    between atoms: C_5  and  N_6 
REMARK       I    between atoms: N_6  and  C_7 
REMARK    2  A    between atoms: C_7  and  C_8 
REMARK    3  A    between atoms: C_8  and  S_9 
REMARK    4  A    between atoms: S_9  and  C_10 
REMARK    5  A    between atoms: N_15  and  C_17 
REMARK    6  A    between atoms: C_17  and  C_18 
ROOT
HETATM    1  C   UNL     1      40.692 -13.347   3.809  1.00  0.00     0.169 A 
HETATM    2  N   UNL     1      40.364 -14.258   2.960  1.00  0.00    -0.228 NA
HETATM    3  C   UNL     1      40.368 -13.928   1.633  1.00  0.00     0.052 A 
HETATM    4  C   UNL     1      40.748 -12.728   1.171  1.00  0.00     0.060 A 
HETATM    5  C   UNL     1      40.846 -12.378  -0.270  1.00  0.00     0.281 C 
HETATM    6  N   UNL     1      40.804 -13.619  -1.155  1.00  0.00    -0.063 N 
HETATM    7  H   UNL     1      41.678 -14.128  -0.971  1.00  0.00     0.280 HD
HETATM    8  C   UNL     1      39.670 -14.529  -0.738  1.00  0.00     0.241 C 
HETATM    9  C   UNL     1      39.907 -15.018   0.694  1.00  0.00     0.088 C 
HETATM   10  C   UNL     1      41.130 -11.700   2.156  1.00  0.00     0.257 A 
HETATM   11  O   UNL     1      41.475 -10.584   1.790  1.00  0.00    -0.267 OA
HETATM   12  N   UNL     1      41.064 -12.087   3.458  1.00  0.00    -0.302 N 
HETATM   13  H   UNL     1      41.321 -11.423   4.175  1.00  0.00     0.171 HD
ENDROOT
BRANCH   1  14
HETATM   14  S   UNL     1      40.698 -13.612   5.522  1.00  0.00    -0.083 SA
BRANCH  14  15
HETATM   15  C   UNL     1      42.274 -14.517   5.719  1.00  0.00     0.185 C 
BRANCH  15  16
HETATM   16  C   UNL     1      42.136 -15.979   5.307  1.00  0.00     0.231 C 
HETATM   17  N   UNL     1      43.328 -16.515   4.843  1.00  0.00    -0.326 N 
HETATM   18  H   UNL     1      44.152 -15.984   5.105  1.00  0.00     0.169 HD
HETATM   19  O   UNL     1      41.062 -16.566   5.416  1.00  0.00    -0.272 OA
BRANCH  17  20
HETATM   20  C   UNL     1      43.566 -17.862   4.482  1.00  0.00     0.041 C 
HETATM   21  C   UNL     1      43.517 -18.390   3.175  1.00  0.00    -0.029 C 
HETATM   22  C   UNL     1      43.636 -19.794   2.999  1.00  0.00    -0.054 C 
HETATM   23  C   UNL     1      43.419 -17.517   1.949  1.00  0.00     0.051 C 
HETATM   24  C   UNL     1      43.533 -20.440   1.641  1.00  0.00     0.049 C 
HETATM   25  C   UNL     1      43.925 -20.617   4.099  1.00  0.00     0.007 C 
HETATM   26  C   UNL     1      44.075 -20.073   5.367  1.00  0.00     0.003 C 
HETATM   27  C   UNL     1      43.896 -18.706   5.556  1.00  0.00     0.030 C 
ENDBRANCH  17  20
ENDBRANCH  15  16
ENDBRANCH  14  15
ENDBRANCH   1  14
BRANCH   6  28
HETATM   28  C   UNL     1      40.809 -13.303  -2.631  1.00  0.00     0.273 C 
BRANCH  28  29
HETATM   29  C   UNL     1      40.113 -12.001  -2.936  1.00  0.00    -0.030 A 
HETATM   30  C   UNL     1      40.862 -10.865  -3.292  1.00  0.00     0.048 A 
HETATM   31  C   UNL     1      40.194  -9.670  -3.458  1.00  0.00     0.105 A 
HETATM   32  C   UNL     1      38.834  -9.573  -3.315  1.00  0.00     0.105 A 
HETATM   33  O   UNL     1      40.775  -8.477  -3.751  1.00  0.00    -0.323 OA
HETATM   34  O   UNL     1      38.383  -8.306  -3.507  1.00  0.00    -0.323 OA
HETATM   35  C   UNL     1      38.060 -10.669  -3.005  1.00  0.00     0.040 A 
HETATM   36  C   UNL     1      39.618  -7.608  -3.767  1.00  0.00     0.352 A 
HETATM   37  C   UNL     1      38.707 -11.894  -2.810  1.00  0.00     0.012 A 
ENDBRANCH  28  29
ENDBRANCH   6  28
TORSDOF 6
ENDMDL
MODEL 10
REMARK VINA RESULT:      -9.1      4.153      7.412
REMARK  6 active torsions:
REMARK  status: ('A' for Active; 'I' for Inactive)
REMARK    1  A    between atoms: C_5  and  N_6 
REMARK       I    between atoms: N_6  and  C_7 
REMARK    2  A    between atoms: C_7  and  C_8 
REMARK    3  A    between atoms: C_8  and  S_9 
REMARK    4  A    between atoms: S_9  and  C_10 
REMARK    5  A    between atoms: N_15  and  C_17 
REMARK    6  A    between atoms: C_17  and  C_18 
ROOT
HETATM    1  C   UNL     1      43.591  -9.584  11.499  1.00  0.00     0.169 A 
HETATM    2  N   UNL     1      43.841  -8.550  12.224  1.00  0.00    -0.228 NA
HETATM    3  C   UNL     1      42.899  -8.163  13.137  1.00  0.00     0.052 A 
HETATM    4  C   UNL     1      41.760  -8.838  13.353  1.00  0.00     0.060 A 
HETATM    5  C   UNL     1      40.766  -8.489  14.401  1.00  0.00     0.281 C 
HETATM    6  N   UNL     1      41.340  -7.506  15.416  1.00  0.00    -0.063 N 
HETATM    7  H   UNL     1      42.063  -8.022  15.933  1.00  0.00     0.280 HD
HETATM    8  C   UNL     1      42.036  -6.363  14.712  1.00  0.00     0.241 C 
HETATM    9  C   UNL     1      43.220  -6.903  13.905  1.00  0.00     0.088 C 
HETATM   10  C   UNL     1      41.494 -10.026  12.522  1.00  0.00     0.257 A 
HETATM   11  O   UNL     1      40.466 -10.672  12.670  1.00  0.00    -0.267 OA
HETATM   12  N   UNL     1      42.457 -10.326  11.609  1.00  0.00    -0.302 N 
HETATM   13  H   UNL     1      42.329 -11.134  11.017  1.00  0.00     0.171 HD
ENDROOT
BRANCH   1  14
HETATM   14  S   UNL     1      44.677 -10.166  10.280  1.00  0.00    -0.083 SA
BRANCH  14  15
HETATM   15  C   UNL     1      43.549 -10.275   8.846  1.00  0.00     0.185 C 
BRANCH  15  16
HETATM   16  C   UNL     1      43.992 -11.356   7.866  1.00  0.00     0.231 C 
HETATM   17  N   UNL     1      42.922 -11.964   7.226  1.00  0.00    -0.326 N 
HETATM   18  H   UNL     1      42.057 -11.435   7.270  1.00  0.00     0.169 HD
HETATM   19  O   UNL     1      45.183 -11.602   7.694  1.00  0.00    -0.272 OA
BRANCH  17  20
HETATM   20  C   UNL     1      42.991 -12.926   6.192  1.00  0.00     0.041 C 
HETATM   21  C   UNL     1      43.011 -12.654   4.807  1.00  0.00    -0.029 C 
HETATM   22  C   UNL     1      42.933 -13.740   3.896  1.00  0.00    -0.054 C 
HETATM   23  C   UNL     1      43.186 -11.262   4.254  1.00  0.00     0.051 C 
HETATM   24  C   UNL     1      42.887 -13.528   2.404  1.00  0.00     0.049 C 
HETATM   25  C   UNL     1      42.967 -15.060   4.372  1.00  0.00     0.007 C 
HETATM   26  C   UNL     1      43.053 -15.317   5.733  1.00  0.00     0.003 C 
HETATM   27  C   UNL     1      43.064 -14.257   6.635  1.00  0.00     0.030 C 
ENDBRANCH  17  20
ENDBRANCH  15  16
ENDBRANCH  14  15
ENDBRANCH   1  14
BRANCH   6  28
HETATM   28  C   UNL     1      40.334  -7.054  16.446  1.00  0.00     0.273 C 
BRANCH  28  29
HETATM   29  C   UNL     1      40.682  -7.535  17.832  1.00  0.00    -0.030 A 
HETATM   30  C   UNL     1      39.688  -8.086  18.661  1.00  0.00     0.048 A 
HETATM   31  C   UNL     1      40.028  -8.414  19.956  1.00  0.00     0.105 A 
HETATM   32  C   UNL     1      41.301  -8.244  20.438  1.00  0.00     0.105 A 
HETATM   33  O   UNL     1      39.176  -8.907  20.893  1.00  0.00    -0.323 OA
HETATM   34  O   UNL     1      41.415  -8.615  21.740  1.00  0.00    -0.323 OA
HETATM   35  C   UNL     1      42.312  -7.743  19.648  1.00  0.00     0.040 A 
HETATM   36  C   UNL     1      40.061  -9.020  22.032  1.00  0.00     0.352 A 
HETATM   37  C   UNL     1      41.997  -7.382  18.333  1.00  0.00     0.012 A 
ENDBRANCH  28  29
ENDBRANCH   6  28
TORSDOF 6
ENDMDL
