MODEL 1
REMARK VINA RESULT:      -7.1      0.000      0.000
REMARK  8 active torsions:
REMARK  status: ('A' for Active; 'I' for Inactive)
REMARK    1  A    between atoms: C_4  and  C_5 
REMARK    2  A    between atoms: C_5  and  N_6 
REMARK    3  A    between atoms: N_6  and  C_9 
REMARK    4  A    between atoms: C_9  and  C_10 
REMARK    5  A    between atoms: C_10  and  C_11 
REMARK    6  A    between atoms: C_11  and  N_12 
REMARK       I    between atoms: N_12  and  C_13 
REMARK    7  A    between atoms: C_13  and  C_14 
REMARK    8  A    between atoms: C_16  and  O_17 
ROOT
HETATM    1  C   UNL     1      42.242 -14.630   6.621  1.00  0.00     0.047 C 
ENDROOT
BRANCH   1   2
HETATM    2  C   UNL     1      41.910 -13.404   5.782  1.00  0.00     0.235 C 
BRANCH   2   3
HETATM    3  N   UNL     1      43.091 -12.977   4.971  1.00  0.00    -0.067 N 
HETATM    4  H   UNL     1      42.920 -13.220   3.982  1.00  0.00     0.277 HD
HETATM    5  H   UNL     1      43.937 -13.510   5.216  1.00  0.00     0.277 HD
BRANCH   3   6
HETATM    6  C   UNL     1      43.437 -11.511   5.020  1.00  0.00     0.223 C 
HETATM    7  C   UNL     1      42.160 -10.672   4.981  1.00  0.00     0.046 C 
BRANCH   6   8
HETATM    8  C   UNL     1      44.255 -11.177   6.228  1.00  0.00     0.032 A 
HETATM    9  S   UNL     1      43.576 -10.442   7.628  1.00  0.00    -0.076 SA
HETATM   10  C   UNL     1      45.133 -10.400   8.357  1.00  0.00     0.071 A 
HETATM   11  C   UNL     1      45.329  -9.818   9.715  1.00  0.00     0.078 C 
HETATM   12  N   UNL     1      46.100 -10.913   7.629  1.00  0.00    -0.257 NA
HETATM   13  C   UNL     1      45.612 -11.344   6.417  1.00  0.00     0.134 A 
ENDBRANCH   6   8
ENDBRANCH   3   6
ENDBRANCH   2   3
ENDBRANCH   1   2
BRANCH   1  14
HETATM   14  C   UNL     1      43.651 -15.163   6.355  1.00  0.00     0.124 C 
BRANCH  14  15
HETATM   15  N   UNL     1      43.636 -16.481   5.768  1.00  0.00    -0.357 N 
HETATM   16  C   UNL     1      43.593 -16.652   4.398  1.00  0.00     0.251 C 
HETATM   17  O   UNL     1      43.488 -15.707   3.622  1.00  0.00    -0.268 OA
HETATM   18  H   UNL     1      43.585 -17.296   6.370  1.00  0.00     0.162 HD
BRANCH  16  19
HETATM   19  C   UNL     1      43.626 -18.058   3.917  1.00  0.00     0.034 A 
HETATM   20  C   UNL     1      44.042 -19.062   4.798  1.00  0.00     0.053 A 
HETATM   21  C   UNL     1      44.099 -20.377   4.347  1.00  0.00     0.066 A 
HETATM   22  C   UNL     1      43.736 -20.705   3.044  1.00  0.00     0.036 A 
HETATM   23  C   UNL     1      43.298 -19.709   2.173  1.00  0.00     0.004 A 
HETATM   24  C   UNL     1      43.240 -18.384   2.607  1.00  0.00     0.017 A 
BRANCH  21  25
HETATM   25  O   UNL     1      44.516 -21.393   5.155  1.00  0.00    -0.361 OA
HETATM   26  H   UNL     1      44.983 -22.060   4.625  1.00  0.00     0.217 HD
ENDBRANCH  21  25
ENDBRANCH  16  19
ENDBRANCH  14  15
ENDBRANCH   1  14
TORSDOF 8
ENDMDL
MODEL 2
REMARK VINA RESULT:      -7.1      2.183      3.080
REMARK  8 active torsions:
REMARK  status: ('A' for Active; 'I' for Inactive)
REMARK    1  A    between atoms: C_4  and  C_5 
REMARK    2  A    between atoms: C_5  and  N_6 
REMARK    3  A    between atoms: N_6  and  C_9 
REMARK    4  A    between atoms: C_9  and  C_10 
REMARK    5  A    between atoms: C_10  and  C_11 
REMARK    6  A    between atoms: C_11  and  N_12 
REMARK       I    between atoms: N_12  and  C_13 
REMARK    7  A    between atoms: C_13  and  C_14 
REMARK    8  A    between atoms: C_16  and  O_17 
ROOT
HETATM    1  C   UNL     1      41.772 -14.302   1.315  1.00  0.00     0.047 C 
ENDROOT
BRANCH   1   2
HETATM    2  C   UNL     1      40.852 -13.456   2.183  1.00  0.00     0.235 C 
BRANCH   2   3
HETATM    3  N   UNL     1      40.825 -13.967   3.588  1.00  0.00    -0.067 N 
HETATM    4  H   UNL     1      41.649 -14.570   3.738  1.00  0.00     0.277 HD
HETATM    5  H   UNL     1      40.025 -14.593   3.752  1.00  0.00     0.277 HD
BRANCH   3   6
HETATM    6  C   UNL     1      40.827 -12.924   4.675  1.00  0.00     0.223 C 
HETATM    7  C   UNL     1      40.243 -13.509   5.961  1.00  0.00     0.046 C 
BRANCH   6   8
HETATM    8  C   UNL     1      42.199 -12.379   4.916  1.00  0.00     0.032 A 
HETATM    9  S   UNL     1      43.107 -12.752   6.329  1.00  0.00    -0.076 SA
HETATM   10  C   UNL     1      44.374 -11.725   5.785  1.00  0.00     0.071 A 
HETATM   11  C   UNL     1      45.606 -11.527   6.599  1.00  0.00     0.078 C 
HETATM   12  N   UNL     1      44.160 -11.151   4.621  1.00  0.00    -0.257 NA
HETATM   13  C   UNL     1      42.926 -11.508   4.129  1.00  0.00     0.134 A 
ENDBRANCH   6   8
ENDBRANCH   3   6
ENDBRANCH   2   3
ENDBRANCH   1   2
BRANCH   1  14
HETATM   14  C   UNL     1      43.133 -14.552   1.965  1.00  0.00     0.124 C 
BRANCH  14  15
HETATM   15  N   UNL     1      43.393 -15.956   2.172  1.00  0.00    -0.357 N 
HETATM   16  C   UNL     1      43.278 -16.527   3.424  1.00  0.00     0.251 C 
HETATM   17  O   UNL     1      43.029 -15.865   4.426  1.00  0.00    -0.268 OA
HETATM   18  H   UNL     1      43.733 -16.519   1.400  1.00  0.00     0.162 HD
BRANCH  16  19
HETATM   19  C   UNL     1      43.529 -17.990   3.496  1.00  0.00     0.034 A 
HETATM   20  C   UNL     1      43.315 -18.769   2.354  1.00  0.00     0.053 A 
HETATM   21  C   UNL     1      43.525 -20.143   2.422  1.00  0.00     0.066 A 
HETATM   22  C   UNL     1      43.957 -20.745   3.599  1.00  0.00     0.036 A 
HETATM   23  C   UNL     1      44.194 -19.967   4.731  1.00  0.00     0.004 A 
HETATM   24  C   UNL     1      43.983 -18.588   4.683  1.00  0.00     0.017 A 
BRANCH  21  25
HETATM   25  O   UNL     1      43.313 -20.952   1.345  1.00  0.00    -0.361 OA
HETATM   26  H   UNL     1      44.155 -21.350   1.067  1.00  0.00     0.217 HD
ENDBRANCH  21  25
ENDBRANCH  16  19
ENDBRANCH  14  15
ENDBRANCH   1  14
TORSDOF 8
ENDMDL
MODEL 3
REMARK VINA RESULT:      -7.0      4.388      6.163
REMARK  8 active torsions:
REMARK  status: ('A' for Active; 'I' for Inactive)
REMARK    1  A    between atoms: C_4  and  C_5 
REMARK    2  A    between atoms: C_5  and  N_6 
REMARK    3  A    between atoms: N_6  and  C_9 
REMARK    4  A    between atoms: C_9  and  C_10 
REMARK    5  A    between atoms: C_10  and  C_11 
REMARK    6  A    between atoms: C_11  and  N_12 
REMARK       I    between atoms: N_12  and  C_13 
REMARK    7  A    between atoms: C_13  and  C_14 
REMARK    8  A    between atoms: C_16  and  O_17 
ROOT
HETATM    1  C   UNL     1      40.937 -14.338   5.127  1.00  0.00     0.047 C 
ENDROOT
BRANCH   1   2
HETATM    2  C   UNL     1      40.276 -13.351   4.176  1.00  0.00     0.235 C 
BRANCH   2   3
HETATM    3  N   UNL     1      39.490 -14.068   3.125  1.00  0.00    -0.067 N 
HETATM    4  H   UNL     1      38.691 -13.477   2.847  1.00  0.00     0.277 HD
HETATM    5  H   UNL     1      39.053 -14.923   3.491  1.00  0.00     0.277 HD
BRANCH   3   6
HETATM    6  C   UNL     1      40.238 -14.432   1.868  1.00  0.00     0.223 C 
HETATM    7  C   UNL     1      40.049 -15.918   1.561  1.00  0.00     0.046 C 
BRANCH   6   8
HETATM    8  C   UNL     1      39.810 -13.592   0.707  1.00  0.00     0.032 A 
HETATM    9  S   UNL     1      39.797 -14.186  -0.909  1.00  0.00    -0.076 SA
HETATM   10  C   UNL     1      39.278 -12.645  -1.468  1.00  0.00     0.071 A 
HETATM   11  C   UNL     1      39.056 -12.390  -2.920  1.00  0.00     0.078 C 
HETATM   12  N   UNL     1      39.102 -11.744  -0.527  1.00  0.00    -0.257 NA
HETATM   13  C   UNL     1      39.412 -12.270   0.706  1.00  0.00     0.134 A 
ENDBRANCH   6   8
ENDBRANCH   3   6
ENDBRANCH   2   3
ENDBRANCH   1   2
BRANCH   1  14
HETATM   14  C   UNL     1      42.392 -14.629   4.759  1.00  0.00     0.124 C 
BRANCH  14  15
HETATM   15  N   UNL     1      42.653 -16.043   4.634  1.00  0.00    -0.357 N 
HETATM   16  C   UNL     1      43.231 -16.565   3.493  1.00  0.00     0.251 C 
HETATM   17  O   UNL     1      43.479 -15.875   2.509  1.00  0.00    -0.268 OA
HETATM   18  H   UNL     1      42.344 -16.674   5.366  1.00  0.00     0.162 HD
BRANCH  16  19
HETATM   19  C   UNL     1      43.489 -18.029   3.507  1.00  0.00     0.034 A 
HETATM   20  C   UNL     1      43.277 -18.761   2.334  1.00  0.00     0.053 A 
HETATM   21  C   UNL     1      43.493 -20.136   2.346  1.00  0.00     0.066 A 
HETATM   22  C   UNL     1      43.928 -20.784   3.498  1.00  0.00     0.036 A 
HETATM   23  C   UNL     1      44.163 -20.051   4.660  1.00  0.00     0.004 A 
HETATM   24  C   UNL     1      43.946 -18.672   4.667  1.00  0.00     0.017 A 
BRANCH  21  25
HETATM   25  O   UNL     1      43.284 -20.902   1.238  1.00  0.00    -0.361 OA
HETATM   26  H   UNL     1      43.275 -20.336   0.448  1.00  0.00     0.217 HD
ENDBRANCH  21  25
ENDBRANCH  16  19
ENDBRANCH  14  15
ENDBRANCH   1  14
TORSDOF 8
ENDMDL
MODEL 4
REMARK VINA RESULT:      -6.9      3.644      5.447
REMARK  8 active torsions:
REMARK  status: ('A' for Active; 'I' for Inactive)
REMARK    1  A    between atoms: C_4  and  C_5 
REMARK    2  A    between atoms: C_5  and  N_6 
REMARK    3  A    between atoms: N_6  and  C_9 
REMARK    4  A    between atoms: C_9  and  C_10 
REMARK    5  A    between atoms: C_10  and  C_11 
REMARK    6  A    between atoms: C_11  and  N_12 
REMARK       I    between atoms: N_12  and  C_13 
REMARK    7  A    between atoms: C_13  and  C_14 
REMARK    8  A    between atoms: C_16  and  O_17 
ROOT
HETATM    1  C   UNL     1      41.369 -14.471   5.801  1.00  0.00     0.047 C 
ENDROOT
BRANCH   1   2
HETATM    2  C   UNL     1      40.635 -13.751   4.678  1.00  0.00     0.235 C 
BRANCH   2   3
HETATM    3  N   UNL     1      41.577 -13.384   3.576  1.00  0.00    -0.067 N 
HETATM    4  H   UNL     1      41.886 -14.247   3.102  1.00  0.00     0.277 HD
HETATM    5  H   UNL     1      42.447 -12.972   3.937  1.00  0.00     0.277 HD
BRANCH   3   6
HETATM    6  C   UNL     1      41.032 -12.461   2.517  1.00  0.00     0.223 C 
HETATM    7  C   UNL     1      42.049 -11.359   2.211  1.00  0.00     0.046 C 
BRANCH   6   8
HETATM    8  C   UNL     1      40.666 -13.204   1.271  1.00  0.00     0.032 A 
HETATM    9  S   UNL     1      40.774 -12.495  -0.294  1.00  0.00    -0.076 SA
HETATM   10  C   UNL     1      40.150 -13.939  -0.989  1.00  0.00     0.071 A 
HETATM   11  C   UNL     1      39.933 -14.052  -2.458  1.00  0.00     0.078 C 
HETATM   12  N   UNL     1      39.893 -14.901  -0.130  1.00  0.00    -0.257 NA
HETATM   13  C   UNL     1      40.172 -14.487   1.152  1.00  0.00     0.134 A 
ENDBRANCH   6   8
ENDBRANCH   3   6
ENDBRANCH   2   3
ENDBRANCH   1   2
BRANCH   1  14
HETATM   14  C   UNL     1      42.811 -14.823   5.434  1.00  0.00     0.124 C 
BRANCH  14  15
HETATM   15  N   UNL     1      42.958 -16.207   5.055  1.00  0.00    -0.357 N 
HETATM   16  C   UNL     1      43.282 -16.563   3.760  1.00  0.00     0.251 C 
HETATM   17  O   UNL     1      43.384 -15.736   2.859  1.00  0.00    -0.268 OA
HETATM   18  H   UNL     1      42.752 -16.935   5.731  1.00  0.00     0.162 HD
BRANCH  16  19
HETATM   19  C   UNL     1      43.448 -18.018   3.508  1.00  0.00     0.034 A 
HETATM   20  C   UNL     1      43.988 -18.820   4.519  1.00  0.00     0.053 A 
HETATM   21  C   UNL     1      44.168 -20.179   4.280  1.00  0.00     0.066 A 
HETATM   22  C   UNL     1      43.807 -20.749   3.063  1.00  0.00     0.036 A 
HETATM   23  C   UNL     1      43.246 -19.955   2.064  1.00  0.00     0.004 A 
HETATM   24  C   UNL     1      43.063 -18.588   2.284  1.00  0.00     0.017 A 
BRANCH  21  25
HETATM   25  O   UNL     1      44.708 -21.004   5.222  1.00  0.00    -0.361 OA
HETATM   26  H   UNL     1      44.004 -21.343   5.800  1.00  0.00     0.217 HD
ENDBRANCH  21  25
ENDBRANCH  16  19
ENDBRANCH  14  15
ENDBRANCH   1  14
TORSDOF 8
ENDMDL
MODEL 5
REMARK VINA RESULT:      -6.9      3.436      4.120
REMARK  8 active torsions:
REMARK  status: ('A' for Active; 'I' for Inactive)
REMARK    1  A    between atoms: C_4  and  C_5 
REMARK    2  A    between atoms: C_5  and  N_6 
REMARK    3  A    between atoms: N_6  and  C_9 
REMARK    4  A    between atoms: C_9  and  C_10 
REMARK    5  A    between atoms: C_10  and  C_11 
REMARK    6  A    between atoms: C_11  and  N_12 
REMARK       I    between atoms: N_12  and  C_13 
REMARK    7  A    between atoms: C_13  and  C_14 
REMARK    8  A    between atoms: C_16  and  O_17 
ROOT
HETATM    1  C   UNL     1      40.913 -13.846   2.318  1.00  0.00     0.047 C 
ENDROOT
BRANCH   1   2
HETATM    2  C   UNL     1      39.608 -13.173   2.719  1.00  0.00     0.235 C 
BRANCH   2   3
HETATM    3  N   UNL     1      39.321 -13.388   4.171  1.00  0.00    -0.067 N 
HETATM    4  H   UNL     1      39.208 -14.400   4.340  1.00  0.00     0.277 HD
HETATM    5  H   UNL     1      38.415 -12.986   4.446  1.00  0.00     0.277 HD
BRANCH   3   6
HETATM    6  C   UNL     1      40.363 -12.885   5.136  1.00  0.00     0.223 C 
HETATM    7  C   UNL     1      39.753 -11.826   6.057  1.00  0.00     0.046 C 
BRANCH   6   8
HETATM    8  C   UNL     1      40.961 -13.999   5.935  1.00  0.00     0.032 A 
HETATM    9  S   UNL     1      42.604 -13.990   6.449  1.00  0.00    -0.076 SA
HETATM   10  C   UNL     1      42.388 -15.542   7.158  1.00  0.00     0.071 A 
HETATM   11  C   UNL     1      43.516 -16.238   7.839  1.00  0.00     0.078 C 
HETATM   12  N   UNL     1      41.175 -16.038   7.047  1.00  0.00    -0.257 NA
HETATM   13  C   UNL     1      40.366 -15.175   6.346  1.00  0.00     0.134 A 
ENDBRANCH   6   8
ENDBRANCH   3   6
ENDBRANCH   2   3
ENDBRANCH   1   2
BRANCH   1  14
HETATM   14  C   UNL     1      40.694 -15.197   1.635  1.00  0.00     0.124 C 
BRANCH  14  15
HETATM   15  N   UNL     1      41.326 -16.280   2.348  1.00  0.00    -0.357 N 
HETATM   16  C   UNL     1      42.639 -16.631   2.098  1.00  0.00     0.251 C 
HETATM   17  O   UNL     1      43.303 -16.098   1.215  1.00  0.00    -0.268 OA
HETATM   18  H   UNL     1      40.779 -16.840   2.993  1.00  0.00     0.162 HD
BRANCH  16  19
HETATM   19  C   UNL     1      43.187 -17.734   2.929  1.00  0.00     0.034 A 
HETATM   20  C   UNL     1      43.326 -19.003   2.358  1.00  0.00     0.053 A 
HETATM   21  C   UNL     1      43.816 -20.047   3.138  1.00  0.00     0.066 A 
HETATM   22  C   UNL     1      44.180 -19.841   4.465  1.00  0.00     0.036 A 
HETATM   23  C   UNL     1      44.064 -18.571   5.028  1.00  0.00     0.004 A 
HETATM   24  C   UNL     1      43.569 -17.514   4.262  1.00  0.00     0.017 A 
BRANCH  21  25
HETATM   25  O   UNL     1      43.955 -21.308   2.639  1.00  0.00    -0.361 OA
HETATM   26  H   UNL     1      44.219 -21.912   3.352  1.00  0.00     0.217 HD
ENDBRANCH  21  25
ENDBRANCH  16  19
ENDBRANCH  14  15
ENDBRANCH   1  14
TORSDOF 8
ENDMDL
MODEL 6
REMARK VINA RESULT:      -6.8      5.192      6.711
REMARK  8 active torsions:
REMARK  status: ('A' for Active; 'I' for Inactive)
REMARK    1  A    between atoms: C_4  and  C_5 
REMARK    2  A    between atoms: C_5  and  N_6 
REMARK    3  A    between atoms: N_6  and  C_9 
REMARK    4  A    between atoms: C_9  and  C_10 
REMARK    5  A    between atoms: C_10  and  C_11 
REMARK    6  A    between atoms: C_11  and  N_12 
REMARK       I    between atoms: N_12  and  C_13 
REMARK    7  A    between atoms: C_13  and  C_14 
REMARK    8  A    between atoms: C_16  and  O_17 
ROOT
HETATM    1  C   UNL     1      41.429 -14.278   2.091  1.00  0.00     0.047 C 
ENDROOT
BRANCH   1   2
HETATM    2  C   UNL     1      40.630 -15.178   1.160  1.00  0.00     0.235 C 
BRANCH   2   3
HETATM    3  N   UNL     1      39.681 -14.376   0.328  1.00  0.00    -0.067 N 
HETATM    4  H   UNL     1      39.588 -13.435   0.743  1.00  0.00     0.277 HD
HETATM    5  H   UNL     1      38.726 -14.758   0.361  1.00  0.00     0.277 HD
BRANCH   3   6
HETATM    6  C   UNL     1      40.056 -14.193  -1.120  1.00  0.00     0.223 C 
HETATM    7  C   UNL     1      38.928 -14.700  -2.020  1.00  0.00     0.046 C 
BRANCH   6   8
HETATM    8  C   UNL     1      40.381 -12.766  -1.431  1.00  0.00     0.032 A 
HETATM    9  S   UNL     1      40.149 -12.085  -2.994  1.00  0.00    -0.076 SA
HETATM   10  C   UNL     1      40.795 -10.592  -2.437  1.00  0.00     0.071 A 
HETATM   11  C   UNL     1      40.930  -9.424  -3.353  1.00  0.00     0.078 C 
HETATM   12  N   UNL     1      41.145 -10.578  -1.169  1.00  0.00    -0.257 NA
HETATM   13  C   UNL     1      40.923 -11.809  -0.597  1.00  0.00     0.134 A 
ENDBRANCH   6   8
ENDBRANCH   3   6
ENDBRANCH   2   3
ENDBRANCH   1   2
BRANCH   1  14
HETATM   14  C   UNL     1      42.924 -14.599   2.084  1.00  0.00     0.124 C 
BRANCH  14  15
HETATM   15  N   UNL     1      43.183 -16.009   2.248  1.00  0.00    -0.357 N 
HETATM   16  C   UNL     1      43.346 -16.564   3.502  1.00  0.00     0.251 C 
HETATM   17  O   UNL     1      43.357 -15.885   4.524  1.00  0.00    -0.268 OA
HETATM   18  H   UNL     1      43.317 -16.591   1.428  1.00  0.00     0.162 HD
BRANCH  16  19
HETATM   19  C   UNL     1      43.563 -18.034   3.539  1.00  0.00     0.034 A 
HETATM   20  C   UNL     1      43.344 -18.778   2.375  1.00  0.00     0.053 A 
HETATM   21  C   UNL     1      43.522 -20.158   2.409  1.00  0.00     0.066 A 
HETATM   22  C   UNL     1      43.927 -20.800   3.575  1.00  0.00     0.036 A 
HETATM   23  C   UNL     1      44.168 -20.057   4.729  1.00  0.00     0.004 A 
HETATM   24  C   UNL     1      43.989 -18.673   4.714  1.00  0.00     0.017 A 
BRANCH  21  25
HETATM   25  O   UNL     1      43.304 -20.933   1.310  1.00  0.00    -0.361 OA
HETATM   26  H   UNL     1      43.909 -20.667   0.598  1.00  0.00     0.217 HD
ENDBRANCH  21  25
ENDBRANCH  16  19
ENDBRANCH  14  15
ENDBRANCH   1  14
TORSDOF 8
ENDMDL
MODEL 7
REMARK VINA RESULT:      -6.8      3.406      5.285
REMARK  8 active torsions:
REMARK  status: ('A' for Active; 'I' for Inactive)
REMARK    1  A    between atoms: C_4  and  C_5 
REMARK    2  A    between atoms: C_5  and  N_6 
REMARK    3  A    between atoms: N_6  and  C_9 
REMARK    4  A    between atoms: C_9  and  C_10 
REMARK    5  A    between atoms: C_10  and  C_11 
REMARK    6  A    between atoms: C_11  and  N_12 
REMARK       I    between atoms: N_12  and  C_13 
REMARK    7  A    between atoms: C_13  and  C_14 
REMARK    8  A    between atoms: C_16  and  O_17 
ROOT
HETATM    1  C   UNL     1      42.343 -14.368   6.552  1.00  0.00     0.047 C 
ENDROOT
BRANCH   1   2
HETATM    2  C   UNL     1      42.076 -13.213   5.596  1.00  0.00     0.235 C 
BRANCH   2   3
HETATM    3  N   UNL     1      41.307 -13.678   4.401  1.00  0.00    -0.067 N 
HETATM    4  H   UNL     1      40.310 -13.445   4.536  1.00  0.00     0.277 HD
HETATM    5  H   UNL     1      41.314 -14.703   4.316  1.00  0.00     0.277 HD
BRANCH   3   6
HETATM    6  C   UNL     1      41.728 -13.101   3.074  1.00  0.00     0.223 C 
HETATM    7  C   UNL     1      43.248 -13.176   2.931  1.00  0.00     0.046 C 
BRANCH   6   8
HETATM    8  C   UNL     1      41.053 -13.793   1.931  1.00  0.00     0.032 A 
HETATM    9  S   UNL     1      40.672 -12.988   0.459  1.00  0.00    -0.076 SA
HETATM   10  C   UNL     1      39.943 -14.427  -0.136  1.00  0.00     0.071 A 
HETATM   11  C   UNL     1      39.317 -14.469  -1.488  1.00  0.00     0.078 C 
HETATM   12  N   UNL     1      39.991 -15.453   0.685  1.00  0.00    -0.257 NA
HETATM   13  C   UNL     1      40.609 -15.098   1.862  1.00  0.00     0.134 A 
ENDBRANCH   6   8
ENDBRANCH   3   6
ENDBRANCH   2   3
ENDBRANCH   1   2
BRANCH   1  14
HETATM   14  C   UNL     1      43.722 -14.997   6.347  1.00  0.00     0.124 C 
BRANCH  14  15
HETATM   15  N   UNL     1      43.719 -15.995   5.306  1.00  0.00    -0.357 N 
HETATM   16  C   UNL     1      43.545 -17.333   5.599  1.00  0.00     0.251 C 
HETATM   17  O   UNL     1      43.461 -17.746   6.751  1.00  0.00    -0.268 OA
HETATM   18  H   UNL     1      43.920 -15.720   4.350  1.00  0.00     0.162 HD
BRANCH  16  19
HETATM   19  C   UNL     1      43.518 -18.256   4.434  1.00  0.00     0.034 A 
HETATM   20  C   UNL     1      43.894 -19.590   4.622  1.00  0.00     0.053 A 
HETATM   21  C   UNL     1      43.894 -20.454   3.531  1.00  0.00     0.066 A 
HETATM   22  C   UNL     1      43.514 -20.013   2.267  1.00  0.00     0.036 A 
HETATM   23  C   UNL     1      43.117 -18.689   2.084  1.00  0.00     0.004 A 
HETATM   24  C   UNL     1      43.115 -17.809   3.166  1.00  0.00     0.017 A 
BRANCH  21  25
HETATM   25  O   UNL     1      44.270 -21.759   3.652  1.00  0.00    -0.361 OA
HETATM   26  H   UNL     1      45.239 -21.820   3.643  1.00  0.00     0.217 HD
ENDBRANCH  21  25
ENDBRANCH  16  19
ENDBRANCH  14  15
ENDBRANCH   1  14
TORSDOF 8
ENDMDL
MODEL 8
REMARK VINA RESULT:      -6.7      1.536      2.212
REMARK  8 active torsions:
REMARK  status: ('A' for Active; 'I' for Inactive)
REMARK    1  A    between atoms: C_4  and  C_5 
REMARK    2  A    between atoms: C_5  and  N_6 
REMARK    3  A    between atoms: N_6  and  C_9 
REMARK    4  A    between atoms: C_9  and  C_10 
REMARK    5  A    between atoms: C_10  and  C_11 
REMARK    6  A    between atoms: C_11  and  N_12 
REMARK       I    between atoms: N_12  and  C_13 
REMARK    7  A    between atoms: C_13  and  C_14 
REMARK    8  A    between atoms: C_16  and  O_17 
ROOT
HETATM    1  C   UNL     1      40.556 -13.844   4.385  1.00  0.00     0.047 C 
ENDROOT
BRANCH   1   2
HETATM    2  C   UNL     1      41.230 -12.522   4.720  1.00  0.00     0.235 C 
BRANCH   2   3
HETATM    3  N   UNL     1      42.692 -12.716   4.966  1.00  0.00    -0.067 N 
HETATM    4  H   UNL     1      43.198 -11.875   4.645  1.00  0.00     0.277 HD
HETATM    5  H   UNL     1      43.080 -13.475   4.391  1.00  0.00     0.277 HD
BRANCH   3   6
HETATM    6  C   UNL     1      43.098 -12.965   6.396  1.00  0.00     0.223 C 
HETATM    7  C   UNL     1      43.660 -14.380   6.540  1.00  0.00     0.046 C 
BRANCH   6   8
HETATM    8  C   UNL     1      44.088 -11.950   6.875  1.00  0.00     0.032 A 
HETATM    9  S   UNL     1      43.676 -10.717   8.003  1.00  0.00    -0.076 SA
HETATM   10  C   UNL     1      45.271 -10.085   7.890  1.00  0.00     0.071 A 
HETATM   11  C   UNL     1      45.673  -8.875   8.662  1.00  0.00     0.078 C 
HETATM   12  N   UNL     1      46.074 -10.747   7.087  1.00  0.00    -0.257 NA
HETATM   13  C   UNL     1      45.408 -11.798   6.501  1.00  0.00     0.134 A 
ENDBRANCH   6   8
ENDBRANCH   3   6
ENDBRANCH   2   3
ENDBRANCH   1   2
BRANCH   1  14
HETATM   14  C   UNL     1      41.137 -14.504   3.134  1.00  0.00     0.124 C 
BRANCH  14  15
HETATM   15  N   UNL     1      41.644 -15.828   3.397  1.00  0.00    -0.357 N 
HETATM   16  C   UNL     1      42.868 -16.237   2.904  1.00  0.00     0.251 C 
HETATM   17  O   UNL     1      43.544 -15.532   2.162  1.00  0.00    -0.268 OA
HETATM   18  H   UNL     1      41.063 -16.496   3.894  1.00  0.00     0.162 HD
BRANCH  16  19
HETATM   19  C   UNL     1      43.296 -17.609   3.283  1.00  0.00     0.034 A 
HETATM   20  C   UNL     1      43.276 -18.614   2.310  1.00  0.00     0.053 A 
HETATM   21  C   UNL     1      43.653 -19.906   2.665  1.00  0.00     0.066 A 
HETATM   22  C   UNL     1      44.061 -20.205   3.961  1.00  0.00     0.036 A 
HETATM   23  C   UNL     1      44.105 -19.198   4.924  1.00  0.00     0.004 A 
HETATM   24  C   UNL     1      43.725 -17.898   4.588  1.00  0.00     0.017 A 
BRANCH  21  25
HETATM   25  O   UNL     1      43.633 -20.929   1.763  1.00  0.00    -0.361 OA
HETATM   26  H   UNL     1      43.625 -21.778   2.235  1.00  0.00     0.217 HD
ENDBRANCH  21  25
ENDBRANCH  16  19
ENDBRANCH  14  15
ENDBRANCH   1  14
TORSDOF 8
ENDMDL
MODEL 9
REMARK VINA RESULT:      -6.5      2.319      2.929
REMARK  8 active torsions:
REMARK  status: ('A' for Active; 'I' for Inactive)
REMARK    1  A    between atoms: C_4  and  C_5 
REMARK    2  A    between atoms: C_5  and  N_6 
REMARK    3  A    between atoms: N_6  and  C_9 
REMARK    4  A    between atoms: C_9  and  C_10 
REMARK    5  A    between atoms: C_10  and  C_11 
REMARK    6  A    between atoms: C_11  and  N_12 
REMARK       I    between atoms: N_12  and  C_13 
REMARK    7  A    between atoms: C_13  and  C_14 
REMARK    8  A    between atoms: C_16  and  O_17 
ROOT
HETATM    1  C   UNL     1      43.125 -13.158   6.183  1.00  0.00     0.047 C 
ENDROOT
BRANCH   1   2
HETATM    2  C   UNL     1      44.159 -12.219   6.788  1.00  0.00     0.235 C 
BRANCH   2   3
HETATM    3  N   UNL     1      43.709 -11.722   8.125  1.00  0.00    -0.067 N 
HETATM    4  H   UNL     1      44.241 -12.215   8.859  1.00  0.00     0.277 HD
HETATM    5  H   UNL     1      42.730 -11.971   8.316  1.00  0.00     0.277 HD
BRANCH   3   6
HETATM    6  C   UNL     1      43.867 -10.243   8.371  1.00  0.00     0.223 C 
HETATM    7  C   UNL     1      42.922  -9.458   7.461  1.00  0.00     0.046 C 
BRANCH   6   8
HETATM    8  C   UNL     1      43.631  -9.894   9.807  1.00  0.00     0.032 A 
HETATM    9  S   UNL     1      43.365  -8.278  10.334  1.00  0.00    -0.076 SA
HETATM   10  C   UNL     1      43.273  -8.825  11.961  1.00  0.00     0.071 A 
HETATM   11  C   UNL     1      43.054  -7.868  13.082  1.00  0.00     0.078 C 
HETATM   12  N   UNL     1      43.408 -10.124  12.117  1.00  0.00    -0.257 NA
HETATM   13  C   UNL     1      43.622 -10.734  10.903  1.00  0.00     0.134 A 
ENDBRANCH   6   8
ENDBRANCH   3   6
ENDBRANCH   2   3
ENDBRANCH   1   2
BRANCH   1  14
HETATM   14  C   UNL     1      43.231 -14.583   6.728  1.00  0.00     0.124 C 
BRANCH  14  15
HETATM   15  N   UNL     1      43.285 -15.570   5.678  1.00  0.00    -0.357 N 
HETATM   16  C   UNL     1      43.707 -16.860   5.930  1.00  0.00     0.251 C 
HETATM   17  O   UNL     1      44.127 -17.209   7.029  1.00  0.00    -0.268 OA
HETATM   18  H   UNL     1      43.077 -15.295   4.723  1.00  0.00     0.162 HD
BRANCH  16  19
HETATM   19  C   UNL     1      43.676 -17.793   4.773  1.00  0.00     0.034 A 
HETATM   20  C   UNL     1      43.943 -19.148   4.993  1.00  0.00     0.053 A 
HETATM   21  C   UNL     1      43.938 -20.023   3.910  1.00  0.00     0.066 A 
HETATM   22  C   UNL     1      43.659 -19.572   2.624  1.00  0.00     0.036 A 
HETATM   23  C   UNL     1      43.368 -18.225   2.408  1.00  0.00     0.004 A 
HETATM   24  C   UNL     1      43.374 -17.333   3.482  1.00  0.00     0.017 A 
BRANCH  21  25
HETATM   25  O   UNL     1      44.211 -21.350   4.062  1.00  0.00    -0.361 OA
HETATM   26  H   UNL     1      44.372 -21.543   5.001  1.00  0.00     0.217 HD
ENDBRANCH  21  25
ENDBRANCH  16  19
ENDBRANCH  14  15
ENDBRANCH   1  14
TORSDOF 8
ENDMDL
MODEL 10
REMARK VINA RESULT:      -6.5      5.445      8.225
REMARK  8 active torsions:
REMARK  status: ('A' for Active; 'I' for Inactive)
REMARK    1  A    between atoms: C_4  and  C_5 
REMARK    2  A    between atoms: C_5  and  N_6 
REMARK    3  A    between atoms: N_6  and  C_9 
REMARK    4  A    between atoms: C_9  and  C_10 
REMARK    5  A    between atoms: C_10  and  C_11 
REMARK    6  A    between atoms: C_11  and  N_12 
REMARK       I    between atoms: N_12  and  C_13 
REMARK    7  A    between atoms: C_13  and  C_14 
REMARK    8  A    between atoms: C_16  and  O_17 
ROOT
HETATM    1  C   UNL     1      40.622 -14.621   3.653  1.00  0.00     0.047 C 
ENDROOT
BRANCH   1   2
HETATM    2  C   UNL     1      41.887 -14.285   4.429  1.00  0.00     0.235 C 
BRANCH   2   3
HETATM    3  N   UNL     1      43.044 -15.097   3.940  1.00  0.00    -0.067 N 
HETATM    4  H   UNL     1      43.417 -15.652   4.727  1.00  0.00     0.277 HD
HETATM    5  H   UNL     1      43.835 -14.503   3.657  1.00  0.00     0.277 HD
BRANCH   3   6
HETATM    6  C   UNL     1      42.756 -16.053   2.812  1.00  0.00     0.223 C 
HETATM    7  C   UNL     1      43.462 -15.586   1.538  1.00  0.00     0.046 C 
BRANCH   6   8
HETATM    8  C   UNL     1      43.157 -17.452   3.157  1.00  0.00     0.032 A 
HETATM    9  S   UNL     1      43.666 -17.905   4.738  1.00  0.00    -0.076 SA
HETATM   10  C   UNL     1      43.945 -19.509   4.186  1.00  0.00     0.071 A 
HETATM   11  C   UNL     1      44.467 -20.558   5.107  1.00  0.00     0.078 C 
HETATM   12  N   UNL     1      43.664 -19.716   2.918  1.00  0.00    -0.257 NA
HETATM   13  C   UNL     1      43.228 -18.553   2.327  1.00  0.00     0.134 A 
ENDBRANCH   6   8
ENDBRANCH   3   6
ENDBRANCH   2   3
ENDBRANCH   1   2
BRANCH   1  14
HETATM   14  C   UNL     1      39.907 -13.377   3.122  1.00  0.00     0.124 C 
BRANCH  14  15
HETATM   15  N   UNL     1      39.374 -13.575   1.797  1.00  0.00    -0.357 N 
HETATM   16  C   UNL     1      40.070 -13.162   0.677  1.00  0.00     0.251 C 
HETATM   17  O   UNL     1      41.127 -12.544   0.754  1.00  0.00    -0.268 OA
HETATM   18  H   UNL     1      38.442 -13.959   1.686  1.00  0.00     0.162 HD
BRANCH  16  19
HETATM   19  C   UNL     1      39.433 -13.463  -0.632  1.00  0.00     0.034 A 
HETATM   20  C   UNL     1      38.758 -12.439  -1.304  1.00  0.00     0.053 A 
HETATM   21  C   UNL     1      38.139 -12.720  -2.519  1.00  0.00     0.066 A 
HETATM   22  C   UNL     1      38.196 -13.994  -3.075  1.00  0.00     0.036 A 
HETATM   23  C   UNL     1      38.890 -15.009  -2.417  1.00  0.00     0.004 A 
HETATM   24  C   UNL     1      39.511 -14.746  -1.196  1.00  0.00     0.017 A 
BRANCH  21  25
HETATM   25  O   UNL     1      37.451 -11.766  -3.208  1.00  0.00    -0.361 OA
HETATM   26  H   UNL     1      36.938 -11.223  -2.586  1.00  0.00     0.217 HD
ENDBRANCH  21  25
ENDBRANCH  16  19
ENDBRANCH  14  15
ENDBRANCH   1  14
TORSDOF 8
ENDMDL
