MODEL 1
REMARK VINA RESULT:      -7.4      0.000      0.000
REMARK  7 active torsions:
REMARK  status: ('A' for Active; 'I' for Inactive)
REMARK    1  A    between atoms: C_2  and  O_3 
REMARK    2  A    between atoms: O_3  and  C_4 
REMARK       I    between atoms: C_4  and  N_5 
REMARK    3  A    between atoms: N_5  and  C_6 
REMARK    4  A    between atoms: C_7  and  N_8 
REMARK    5  A    between atoms: C_11  and  N_12 
REMARK    6  A    between atoms: N_12  and  C_13 
REMARK    7  A    between atoms: C_13  and  C_14 
ROOT
HETATM    1  C   UNL     1      43.466 -13.021   6.561  1.00  0.00     0.080 A 
HETATM    2  C   UNL     1      43.261 -12.654   5.208  1.00  0.00     0.127 A 
HETATM    3  N   UNL     1      42.816 -13.595   4.367  1.00  0.00    -0.332 N 
HETATM    4  H   UNL     1      42.620 -13.342   3.405  1.00  0.00     0.168 HD
HETATM    5  C   UNL     1      42.569 -14.866   4.690  1.00  0.00     0.081 A 
HETATM    6  C   UNL     1      42.760 -15.275   6.001  1.00  0.00     0.044 A 
HETATM    7  C   UNL     1      43.192 -14.341   6.941  1.00  0.00     0.037 A 
ENDROOT
BRANCH   5   8
HETATM    8  N   UNL     1      42.154 -15.677   3.646  1.00  0.00    -0.275 NA
HETATM    9  H   UNL     1      41.516 -15.150   3.042  1.00  0.00     0.129 HD
BRANCH   8  10
HETATM   10  C   UNL     1      43.240 -16.155   2.776  1.00  0.00     0.132 C 
BRANCH  10  11
HETATM   11  C   UNL     1      43.435 -17.631   3.021  1.00  0.00    -0.045 A 
HETATM   12  C   UNL     1      44.065 -18.087   4.193  1.00  0.00     0.011 A 
HETATM   13  C   UNL     1      44.258 -19.454   4.404  1.00  0.00     0.043 A 
HETATM   14  C   UNL     1      43.825 -20.365   3.448  1.00  0.00     0.116 A 
HETATM   15  F   UNL     1      44.011 -21.674   3.651  1.00  0.00    -0.206 F 
HETATM   16  C   UNL     1      43.201 -19.935   2.283  1.00  0.00     0.043 A 
HETATM   17  C   UNL     1      43.010 -18.570   2.067  1.00  0.00     0.011 A 
ENDBRANCH  10  11
ENDBRANCH   8  10
ENDBRANCH   5   8
BRANCH   2  18
HETATM   18  N   UNL     1      43.311 -11.364   4.720  1.00  0.00    -0.384 N 
HETATM   19  H   UNL     1      42.384 -10.928   4.618  1.00  0.00     0.157 HD
HETATM   20  H   UNL     1      43.986 -10.695   5.067  1.00  0.00     0.157 HD
ENDBRANCH   2  18
BRANCH   1  21
HETATM   21  N   UNL     1      43.936 -12.179   7.593  1.00  0.00    -0.299 N 
HETATM   22  C   UNL     1      45.068 -11.415   7.623  1.00  0.00     0.365 C 
HETATM   23  O   UNL     1      45.911 -11.335   6.743  1.00  0.00    -0.238 OA
HETATM   24  H   UNL     1      43.478 -12.209   8.497  1.00  0.00     0.171 HD
BRANCH  22  25
HETATM   25  O   UNL     1      45.134 -10.800   8.828  1.00  0.00    -0.304 OA
BRANCH  25  26
HETATM   26  C   UNL     1      45.612  -9.444   8.826  1.00  0.00     0.176 C 
HETATM   27  C   UNL     1      44.461  -8.491   8.560  1.00  0.00     0.034 C 
ENDBRANCH  25  26
ENDBRANCH  22  25
ENDBRANCH   1  21
TORSDOF 7
ENDMDL
MODEL 2
REMARK VINA RESULT:      -7.2      4.734      6.770
REMARK  7 active torsions:
REMARK  status: ('A' for Active; 'I' for Inactive)
REMARK    1  A    between atoms: C_2  and  O_3 
REMARK    2  A    between atoms: O_3  and  C_4 
REMARK       I    between atoms: C_4  and  N_5 
REMARK    3  A    between atoms: N_5  and  C_6 
REMARK    4  A    between atoms: C_7  and  N_8 
REMARK    5  A    between atoms: C_11  and  N_12 
REMARK    6  A    between atoms: N_12  and  C_13 
REMARK    7  A    between atoms: C_13  and  C_14 
ROOT
HETATM    1  C   UNL     1      39.973 -14.045   1.124  1.00  0.00     0.080 A 
HETATM    2  C   UNL     1      40.674 -13.339   2.134  1.00  0.00     0.127 A 
HETATM    3  N   UNL     1      41.259 -14.053   3.103  1.00  0.00    -0.332 N 
HETATM    4  H   UNL     1      41.802 -13.571   3.809  1.00  0.00     0.168 HD
HETATM    5  C   UNL     1      41.219 -15.383   3.215  1.00  0.00     0.081 A 
HETATM    6  C   UNL     1      40.541 -16.117   2.253  1.00  0.00     0.044 A 
HETATM    7  C   UNL     1      39.934 -15.443   1.195  1.00  0.00     0.037 A 
ENDROOT
BRANCH   5   8
HETATM    8  N   UNL     1      41.862 -15.907   4.324  1.00  0.00    -0.275 NA
HETATM    9  H   UNL     1      41.461 -16.824   4.543  1.00  0.00     0.129 HD
BRANCH   8  10
HETATM   10  C   UNL     1      43.307 -16.123   4.148  1.00  0.00     0.132 C 
BRANCH  10  11
HETATM   11  C   UNL     1      43.551 -17.599   3.956  1.00  0.00    -0.045 A 
HETATM   12  C   UNL     1      43.430 -18.188   2.684  1.00  0.00     0.011 A 
HETATM   13  C   UNL     1      43.639 -19.558   2.518  1.00  0.00     0.043 A 
HETATM   14  C   UNL     1      43.969 -20.341   3.618  1.00  0.00     0.116 A 
HETATM   15  F   UNL     1      44.169 -21.654   3.458  1.00  0.00    -0.206 F 
HETATM   16  C   UNL     1      44.092 -19.780   4.883  1.00  0.00     0.043 A 
HETATM   17  C   UNL     1      43.880 -18.411   5.054  1.00  0.00     0.011 A 
ENDBRANCH  10  11
ENDBRANCH   8  10
ENDBRANCH   5   8
BRANCH   2  18
HETATM   18  N   UNL     1      40.955 -11.988   2.107  1.00  0.00    -0.384 N 
HETATM   19  H   UNL     1      40.160 -11.399   2.392  1.00  0.00     0.157 HD
HETATM   20  H   UNL     1      41.823 -11.622   2.473  1.00  0.00     0.157 HD
ENDBRANCH   2  18
BRANCH   1  21
HETATM   21  N   UNL     1      39.287 -13.475   0.029  1.00  0.00    -0.299 N 
HETATM   22  C   UNL     1      39.790 -12.727  -0.999  1.00  0.00     0.365 C 
HETATM   23  O   UNL     1      40.956 -12.393  -1.148  1.00  0.00    -0.238 OA
HETATM   24  H   UNL     1      38.274 -13.485   0.026  1.00  0.00     0.171 HD
BRANCH  22  25
HETATM   25  O   UNL     1      38.763 -12.362  -1.802  1.00  0.00    -0.304 OA
BRANCH  25  26
HETATM   26  C   UNL     1      37.798 -13.384  -2.107  1.00  0.00     0.176 C 
HETATM   27  C   UNL     1      38.280 -14.214  -3.283  1.00  0.00     0.034 C 
ENDBRANCH  25  26
ENDBRANCH  22  25
ENDBRANCH   1  21
TORSDOF 7
ENDMDL
MODEL 3
REMARK VINA RESULT:      -7.2      0.988      1.882
REMARK  7 active torsions:
REMARK  status: ('A' for Active; 'I' for Inactive)
REMARK    1  A    between atoms: C_2  and  O_3 
REMARK    2  A    between atoms: O_3  and  C_4 
REMARK       I    between atoms: C_4  and  N_5 
REMARK    3  A    between atoms: N_5  and  C_6 
REMARK    4  A    between atoms: C_7  and  N_8 
REMARK    5  A    between atoms: C_11  and  N_12 
REMARK    6  A    between atoms: N_12  and  C_13 
REMARK    7  A    between atoms: C_13  and  C_14 
ROOT
HETATM    1  C   UNL     1      43.010 -13.188   6.415  1.00  0.00     0.080 A 
HETATM    2  C   UNL     1      42.705 -14.552   6.656  1.00  0.00     0.127 A 
HETATM    3  N   UNL     1      42.458 -15.332   5.597  1.00  0.00    -0.332 N 
HETATM    4  H   UNL     1      42.283 -16.320   5.744  1.00  0.00     0.168 HD
HETATM    5  C   UNL     1      42.449 -14.929   4.324  1.00  0.00     0.081 A 
HETATM    6  C   UNL     1      42.734 -13.603   4.039  1.00  0.00     0.044 A 
HETATM    7  C   UNL     1      43.035 -12.737   5.089  1.00  0.00     0.037 A 
ENDROOT
BRANCH   5   8
HETATM    8  N   UNL     1      42.125 -15.902   3.393  1.00  0.00    -0.275 NA
HETATM    9  H   UNL     1      41.458 -15.515   2.719  1.00  0.00     0.129 HD
BRANCH   8  10
HETATM   10  C   UNL     1      43.264 -16.396   2.604  1.00  0.00     0.132 C 
BRANCH  10  11
HETATM   11  C   UNL     1      43.479 -17.852   2.934  1.00  0.00    -0.045 A 
HETATM   12  C   UNL     1      43.069 -18.859   2.042  1.00  0.00     0.011 A 
HETATM   13  C   UNL     1      43.255 -20.205   2.364  1.00  0.00     0.043 A 
HETATM   14  C   UNL     1      43.850 -20.547   3.572  1.00  0.00     0.116 A 
HETATM   15  F   UNL     1      44.027 -21.838   3.879  1.00  0.00    -0.206 F 
HETATM   16  C   UNL     1      44.263 -19.568   4.467  1.00  0.00     0.043 A 
HETATM   17  C   UNL     1      44.075 -18.222   4.152  1.00  0.00     0.011 A 
ENDBRANCH  10  11
ENDBRANCH   8  10
ENDBRANCH   5   8
BRANCH   2  18
HETATM   18  N   UNL     1      42.817 -15.184   7.877  1.00  0.00    -0.384 N 
HETATM   19  H   UNL     1      43.609 -15.841   7.927  1.00  0.00     0.157 HD
HETATM   20  H   UNL     1      42.716 -14.677   8.746  1.00  0.00     0.157 HD
ENDBRANCH   2  18
BRANCH   1  21
HETATM   21  N   UNL     1      43.290 -12.209   7.393  1.00  0.00    -0.299 N 
HETATM   22  C   UNL     1      44.462 -11.546   7.625  1.00  0.00     0.365 C 
HETATM   23  O   UNL     1      45.513 -11.699   7.022  1.00  0.00    -0.238 OA
HETATM   24  H   UNL     1      42.607 -12.034   8.121  1.00  0.00     0.171 HD
BRANCH  22  25
HETATM   25  O   UNL     1      44.282 -10.725   8.687  1.00  0.00    -0.304 OA
BRANCH  25  26
HETATM   26  C   UNL     1      44.014  -9.344   8.386  1.00  0.00     0.176 C 
HETATM   27  C   UNL     1      45.284  -8.527   8.535  1.00  0.00     0.034 C 
ENDBRANCH  25  26
ENDBRANCH  22  25
ENDBRANCH   1  21
TORSDOF 7
ENDMDL
MODEL 4
REMARK VINA RESULT:      -7.1      5.429      7.712
REMARK  7 active torsions:
REMARK  status: ('A' for Active; 'I' for Inactive)
REMARK    1  A    between atoms: C_2  and  O_3 
REMARK    2  A    between atoms: O_3  and  C_4 
REMARK       I    between atoms: C_4  and  N_5 
REMARK    3  A    between atoms: N_5  and  C_6 
REMARK    4  A    between atoms: C_7  and  N_8 
REMARK    5  A    between atoms: C_11  and  N_12 
REMARK    6  A    between atoms: N_12  and  C_13 
REMARK    7  A    between atoms: C_13  and  C_14 
ROOT
HETATM    1  C   UNL     1      41.848 -16.451   3.423  1.00  0.00     0.080 A 
HETATM    2  C   UNL     1      40.655 -15.950   4.001  1.00  0.00     0.127 A 
HETATM    3  N   UNL     1      39.911 -15.112   3.269  1.00  0.00    -0.332 N 
HETATM    4  H   UNL     1      39.031 -14.779   3.646  1.00  0.00     0.168 HD
HETATM    5  C   UNL     1      40.209 -14.686   2.040  1.00  0.00     0.081 A 
HETATM    6  C   UNL     1      41.370 -15.143   1.435  1.00  0.00     0.044 A 
HETATM    7  C   UNL     1      42.180 -16.044   2.124  1.00  0.00     0.037 A 
ENDROOT
BRANCH   5   8
HETATM    8  N   UNL     1      39.313 -13.786   1.487  1.00  0.00    -0.275 NA
HETATM    9  H   UNL     1      39.000 -13.133   2.212  1.00  0.00     0.129 HD
BRANCH   8  10
HETATM   10  C   UNL     1      39.869 -12.959   0.404  1.00  0.00     0.132 C 
BRANCH  10  11
HETATM   11  C   UNL     1      39.221 -13.373  -0.894  1.00  0.00    -0.045 A 
HETATM   12  C   UNL     1      38.126 -12.659  -1.411  1.00  0.00     0.011 A 
HETATM   13  C   UNL     1      37.520 -13.061  -2.603  1.00  0.00     0.043 A 
HETATM   14  C   UNL     1      38.007 -14.172  -3.281  1.00  0.00     0.116 A 
HETATM   15  F   UNL     1      37.426 -14.556  -4.423  1.00  0.00    -0.206 F 
HETATM   16  C   UNL     1      39.088 -14.892  -2.788  1.00  0.00     0.043 A 
HETATM   17  C   UNL     1      39.693 -14.497  -1.594  1.00  0.00     0.011 A 
ENDBRANCH  10  11
ENDBRANCH   8  10
ENDBRANCH   5   8
BRANCH   2  18
HETATM   18  N   UNL     1      40.103 -16.391   5.187  1.00  0.00    -0.384 N 
HETATM   19  H   UNL     1      40.790 -16.819   5.824  1.00  0.00     0.157 HD
HETATM   20  H   UNL     1      39.438 -15.830   5.701  1.00  0.00     0.157 HD
ENDBRANCH   2  18
BRANCH   1  21
HETATM   21  N   UNL     1      42.767 -17.333   4.034  1.00  0.00    -0.299 N 
HETATM   22  C   UNL     1      43.689 -17.067   5.006  1.00  0.00     0.365 C 
HETATM   23  O   UNL     1      43.902 -15.981   5.524  1.00  0.00    -0.238 OA
HETATM   24  H   UNL     1      42.884 -18.263   3.648  1.00  0.00     0.171 HD
BRANCH  22  25
HETATM   25  O   UNL     1      44.377 -18.204   5.262  1.00  0.00    -0.304 OA
BRANCH  25  26
HETATM   26  C   UNL     1      43.644 -19.262   5.903  1.00  0.00     0.176 C 
HETATM   27  C   UNL     1      44.045 -20.601   5.311  1.00  0.00     0.034 C 
ENDBRANCH  25  26
ENDBRANCH  22  25
ENDBRANCH   1  21
TORSDOF 7
ENDMDL
MODEL 5
REMARK VINA RESULT:      -7.0      5.530      7.388
REMARK  7 active torsions:
REMARK  status: ('A' for Active; 'I' for Inactive)
REMARK    1  A    between atoms: C_2  and  O_3 
REMARK    2  A    between atoms: O_3  and  C_4 
REMARK       I    between atoms: C_4  and  N_5 
REMARK    3  A    between atoms: N_5  and  C_6 
REMARK    4  A    between atoms: C_7  and  N_8 
REMARK    5  A    between atoms: C_11  and  N_12 
REMARK    6  A    between atoms: N_12  and  C_13 
REMARK    7  A    between atoms: C_13  and  C_14 
ROOT
HETATM    1  C   UNL     1      39.984 -14.146  -0.052  1.00  0.00     0.080 A 
HETATM    2  C   UNL     1      41.106 -13.326   0.229  1.00  0.00     0.127 A 
HETATM    3  N   UNL     1      42.015 -13.788   1.096  1.00  0.00    -0.332 N 
HETATM    4  H   UNL     1      42.846 -13.238   1.276  1.00  0.00     0.168 HD
HETATM    5  C   UNL     1      41.944 -14.954   1.743  1.00  0.00     0.081 A 
HETATM    6  C   UNL     1      40.862 -15.788   1.506  1.00  0.00     0.044 A 
HETATM    7  C   UNL     1      39.891 -15.388   0.590  1.00  0.00     0.037 A 
ENDROOT
BRANCH   5   8
HETATM    8  N   UNL     1      42.979 -15.209   2.627  1.00  0.00    -0.275 NA
HETATM    9  H   UNL     1      43.557 -14.368   2.721  1.00  0.00     0.129 HD
BRANCH   8  10
HETATM   10  C   UNL     1      42.545 -15.561   3.989  1.00  0.00     0.132 C 
BRANCH  10  11
HETATM   11  C   UNL     1      43.085 -16.929   4.324  1.00  0.00    -0.045 A 
HETATM   12  C   UNL     1      43.128 -17.378   5.656  1.00  0.00     0.011 A 
HETATM   13  C   UNL     1      43.647 -18.639   5.959  1.00  0.00     0.043 A 
HETATM   14  C   UNL     1      44.121 -19.450   4.936  1.00  0.00     0.116 A 
HETATM   15  F   UNL     1      44.618 -20.658   5.229  1.00  0.00    -0.206 F 
HETATM   16  C   UNL     1      44.089 -19.026   3.614  1.00  0.00     0.043 A 
HETATM   17  C   UNL     1      43.575 -17.765   3.307  1.00  0.00     0.011 A 
ENDBRANCH  10  11
ENDBRANCH   8  10
ENDBRANCH   5   8
BRANCH   2  18
HETATM   18  N   UNL     1      41.432 -12.170  -0.450  1.00  0.00    -0.384 N 
HETATM   19  H   UNL     1      40.985 -12.099  -1.376  1.00  0.00     0.157 HD
HETATM   20  H   UNL     1      41.443 -11.271   0.013  1.00  0.00     0.157 HD
ENDBRANCH   2  18
BRANCH   1  21
HETATM   21  N   UNL     1      38.920 -13.835  -0.927  1.00  0.00    -0.299 N 
HETATM   22  C   UNL     1      38.878 -13.931  -2.289  1.00  0.00     0.365 C 
HETATM   23  O   UNL     1      39.788 -14.297  -3.017  1.00  0.00    -0.238 OA
HETATM   24  H   UNL     1      38.106 -13.356  -0.558  1.00  0.00     0.171 HD
BRANCH  22  25
HETATM   25  O   UNL     1      37.668 -13.491  -2.709  1.00  0.00    -0.304 OA
BRANCH  25  26
HETATM   26  C   UNL     1      37.278 -12.180  -2.266  1.00  0.00     0.176 C 
HETATM   27  C   UNL     1      38.152 -11.130  -2.928  1.00  0.00     0.034 C 
ENDBRANCH  25  26
ENDBRANCH  22  25
ENDBRANCH   1  21
TORSDOF 7
ENDMDL
MODEL 6
REMARK VINA RESULT:      -7.0      5.728      7.931
REMARK  7 active torsions:
REMARK  status: ('A' for Active; 'I' for Inactive)
REMARK    1  A    between atoms: C_2  and  O_3 
REMARK    2  A    between atoms: O_3  and  C_4 
REMARK       I    between atoms: C_4  and  N_5 
REMARK    3  A    between atoms: N_5  and  C_6 
REMARK    4  A    between atoms: C_7  and  N_8 
REMARK    5  A    between atoms: C_11  and  N_12 
REMARK    6  A    between atoms: N_12  and  C_13 
REMARK    7  A    between atoms: C_13  and  C_14 
ROOT
HETATM    1  C   UNL     1      42.346 -16.409   3.133  1.00  0.00     0.080 A 
HETATM    2  C   UNL     1      42.511 -15.614   1.971  1.00  0.00     0.127 A 
HETATM    3  N   UNL     1      41.471 -14.874   1.568  1.00  0.00    -0.332 N 
HETATM    4  H   UNL     1      41.583 -14.265   0.766  1.00  0.00     0.168 HD
HETATM    5  C   UNL     1      40.274 -14.838   2.157  1.00  0.00     0.081 A 
HETATM    6  C   UNL     1      40.062 -15.604   3.293  1.00  0.00     0.044 A 
HETATM    7  C   UNL     1      41.110 -16.375   3.791  1.00  0.00     0.037 A 
ENDROOT
BRANCH   5   8
HETATM    8  N   UNL     1      39.331 -14.032   1.541  1.00  0.00    -0.275 NA
HETATM    9  H   UNL     1      38.907 -13.414   2.240  1.00  0.00     0.129 HD
BRANCH   8  10
HETATM   10  C   UNL     1      39.870 -13.152   0.492  1.00  0.00     0.132 C 
BRANCH  10  11
HETATM   11  C   UNL     1      39.231 -13.527  -0.822  1.00  0.00    -0.045 A 
HETATM   12  C   UNL     1      38.271 -12.690  -1.418  1.00  0.00     0.011 A 
HETATM   13  C   UNL     1      37.670 -13.053  -2.625  1.00  0.00     0.043 A 
HETATM   14  C   UNL     1      38.026 -14.249  -3.237  1.00  0.00     0.116 A 
HETATM   15  F   UNL     1      37.449 -14.596  -4.394  1.00  0.00    -0.206 F 
HETATM   16  C   UNL     1      38.972 -15.090  -2.665  1.00  0.00     0.043 A 
HETATM   17  C   UNL     1      39.571 -14.733  -1.457  1.00  0.00     0.011 A 
ENDBRANCH  10  11
ENDBRANCH   8  10
ENDBRANCH   5   8
BRANCH   2  18
HETATM   18  N   UNL     1      43.710 -15.401   1.321  1.00  0.00    -0.384 N 
HETATM   19  H   UNL     1      43.722 -14.538   0.758  1.00  0.00     0.157 HD
HETATM   20  H   UNL     1      44.595 -15.537   1.789  1.00  0.00     0.157 HD
ENDBRANCH   2  18
BRANCH   1  21
HETATM   21  N   UNL     1      43.316 -17.259   3.709  1.00  0.00    -0.299 N 
HETATM   22  C   UNL     1      43.746 -18.481   3.275  1.00  0.00     0.365 C 
HETATM   23  O   UNL     1      43.343 -19.083   2.292  1.00  0.00    -0.238 OA
HETATM   24  H   UNL     1      43.676 -17.038   4.630  1.00  0.00     0.171 HD
BRANCH  22  25
HETATM   25  O   UNL     1      44.660 -18.948   4.158  1.00  0.00    -0.304 OA
BRANCH  25  26
HETATM   26  C   UNL     1      44.356 -20.206   4.784  1.00  0.00     0.176 C 
HETATM   27  C   UNL     1      43.568 -19.971   6.060  1.00  0.00     0.034 C 
ENDBRANCH  25  26
ENDBRANCH  22  25
ENDBRANCH   1  21
TORSDOF 7
ENDMDL
MODEL 7
REMARK VINA RESULT:      -6.8      5.727      7.365
REMARK  7 active torsions:
REMARK  status: ('A' for Active; 'I' for Inactive)
REMARK    1  A    between atoms: C_2  and  O_3 
REMARK    2  A    between atoms: O_3  and  C_4 
REMARK       I    between atoms: C_4  and  N_5 
REMARK    3  A    between atoms: N_5  and  C_6 
REMARK    4  A    between atoms: C_7  and  N_8 
REMARK    5  A    between atoms: C_11  and  N_12 
REMARK    6  A    between atoms: N_12  and  C_13 
REMARK    7  A    between atoms: C_13  and  C_14 
ROOT
HETATM    1  C   UNL     1      40.368 -12.865  -0.587  1.00  0.00     0.080 A 
HETATM    2  C   UNL     1      39.623 -14.072  -0.576  1.00  0.00     0.127 A 
HETATM    3  N   UNL     1      39.667 -14.821   0.533  1.00  0.00    -0.332 N 
HETATM    4  H   UNL     1      39.106 -15.664   0.578  1.00  0.00     0.168 HD
HETATM    5  C   UNL     1      40.375 -14.540   1.628  1.00  0.00     0.081 A 
HETATM    6  C   UNL     1      41.124 -13.374   1.662  1.00  0.00     0.044 A 
HETATM    7  C   UNL     1      41.102 -12.526   0.556  1.00  0.00     0.037 A 
ENDROOT
BRANCH   5   8
HETATM    8  N   UNL     1      40.304 -15.481   2.642  1.00  0.00    -0.275 NA
HETATM    9  H   UNL     1      40.399 -16.418   2.239  1.00  0.00     0.129 HD
BRANCH   8  10
HETATM   10  C   UNL     1      41.360 -15.364   3.660  1.00  0.00     0.132 C 
BRANCH  10  11
HETATM   11  C   UNL     1      42.234 -16.590   3.586  1.00  0.00    -0.045 A 
HETATM   12  C   UNL     1      42.268 -17.380   2.422  1.00  0.00     0.011 A 
HETATM   13  C   UNL     1      43.066 -18.525   2.369  1.00  0.00     0.043 A 
HETATM   14  C   UNL     1      43.830 -18.881   3.474  1.00  0.00     0.116 A 
HETATM   15  F   UNL     1      44.594 -19.979   3.421  1.00  0.00    -0.206 F 
HETATM   16  C   UNL     1      43.811 -18.116   4.633  1.00  0.00     0.043 A 
HETATM   17  C   UNL     1      43.011 -16.974   4.692  1.00  0.00     0.011 A 
ENDBRANCH  10  11
ENDBRANCH   8  10
ENDBRANCH   5   8
BRANCH   2  18
HETATM   18  N   UNL     1      38.716 -14.452  -1.544  1.00  0.00    -0.384 N 
HETATM   19  H   UNL     1      38.900 -14.030  -2.465  1.00  0.00     0.157 HD
HETATM   20  H   UNL     1      38.421 -15.414  -1.642  1.00  0.00     0.157 HD
ENDBRANCH   2  18
BRANCH   1  21
HETATM   21  N   UNL     1      40.456 -11.948  -1.658  1.00  0.00    -0.299 N 
HETATM   22  C   UNL     1      40.816 -12.182  -2.955  1.00  0.00     0.365 C 
HETATM   23  O   UNL     1      41.154 -13.256  -3.430  1.00  0.00    -0.238 OA
HETATM   24  H   UNL     1      40.376 -10.957  -1.462  1.00  0.00     0.171 HD
BRANCH  22  25
HETATM   25  O   UNL     1      40.796 -11.003  -3.621  1.00  0.00    -0.304 OA
BRANCH  25  26
HETATM   26  C   UNL     1      40.923  -9.816  -2.819  1.00  0.00     0.176 C 
HETATM   27  C   UNL     1      41.235  -8.625  -3.707  1.00  0.00     0.034 C 
ENDBRANCH  25  26
ENDBRANCH  22  25
ENDBRANCH   1  21
TORSDOF 7
ENDMDL
MODEL 8
REMARK VINA RESULT:      -6.8      2.965      3.566
REMARK  7 active torsions:
REMARK  status: ('A' for Active; 'I' for Inactive)
REMARK    1  A    between atoms: C_2  and  O_3 
REMARK    2  A    between atoms: O_3  and  C_4 
REMARK       I    between atoms: C_4  and  N_5 
REMARK    3  A    between atoms: N_5  and  C_6 
REMARK    4  A    between atoms: C_7  and  N_8 
REMARK    5  A    between atoms: C_11  and  N_12 
REMARK    6  A    between atoms: N_12  and  C_13 
REMARK    7  A    between atoms: C_13  and  C_14 
ROOT
HETATM    1  C   UNL     1      41.193 -13.688   6.330  1.00  0.00     0.080 A 
HETATM    2  C   UNL     1      42.593 -13.901   6.398  1.00  0.00     0.127 A 
HETATM    3  N   UNL     1      43.031 -15.166   6.427  1.00  0.00    -0.332 N 
HETATM    4  H   UNL     1      44.030 -15.339   6.429  1.00  0.00     0.168 HD
HETATM    5  C   UNL     1      42.257 -16.253   6.421  1.00  0.00     0.081 A 
HETATM    6  C   UNL     1      40.880 -16.095   6.362  1.00  0.00     0.044 A 
HETATM    7  C   UNL     1      40.351 -14.808   6.297  1.00  0.00     0.037 A 
ENDROOT
BRANCH   5   8
HETATM    8  N   UNL     1      42.927 -17.462   6.499  1.00  0.00    -0.275 NA
HETATM    9  H   UNL     1      42.322 -18.206   6.140  1.00  0.00     0.129 HD
BRANCH   8  10
HETATM   10  C   UNL     1      44.167 -17.525   5.709  1.00  0.00     0.132 C 
BRANCH  10  11
HETATM   11  C   UNL     1      43.924 -18.404   4.507  1.00  0.00    -0.045 A 
HETATM   12  C   UNL     1      43.469 -17.854   3.295  1.00  0.00     0.011 A 
HETATM   13  C   UNL     1      43.229 -18.677   2.193  1.00  0.00     0.043 A 
HETATM   14  C   UNL     1      43.444 -20.046   2.298  1.00  0.00     0.116 A 
HETATM   15  F   UNL     1      43.213 -20.833   1.240  1.00  0.00    -0.206 F 
HETATM   16  C   UNL     1      43.892 -20.610   3.485  1.00  0.00     0.043 A 
HETATM   17  C   UNL     1      44.129 -19.791   4.591  1.00  0.00     0.011 A 
ENDBRANCH  10  11
ENDBRANCH   8  10
ENDBRANCH   5   8
BRANCH   2  18
HETATM   18  N   UNL     1      43.551 -12.918   6.257  1.00  0.00    -0.384 N 
HETATM   19  H   UNL     1      43.251 -12.137   5.657  1.00  0.00     0.157 HD
HETATM   20  H   UNL     1      44.080 -12.579   7.050  1.00  0.00     0.157 HD
ENDBRANCH   2  18
BRANCH   1  21
HETATM   21  N   UNL     1      40.538 -12.437   6.300  1.00  0.00    -0.299 N 
HETATM   22  C   UNL     1      40.306 -11.621   5.229  1.00  0.00     0.365 C 
HETATM   23  O   UNL     1      40.649 -11.826   4.074  1.00  0.00    -0.238 OA
HETATM   24  H   UNL     1      40.305 -11.984   7.176  1.00  0.00     0.171 HD
BRANCH  22  25
HETATM   25  O   UNL     1      39.678 -10.507   5.672  1.00  0.00    -0.304 OA
BRANCH  25  26
HETATM   26  C   UNL     1      39.238 -10.525   7.041  1.00  0.00     0.176 C 
HETATM   27  C   UNL     1      39.563  -9.199   7.705  1.00  0.00     0.034 C 
ENDBRANCH  25  26
ENDBRANCH  22  25
ENDBRANCH   1  21
TORSDOF 7
ENDMDL
MODEL 9
REMARK VINA RESULT:      -6.8      1.850      2.350
REMARK  7 active torsions:
REMARK  status: ('A' for Active; 'I' for Inactive)
REMARK    1  A    between atoms: C_2  and  O_3 
REMARK    2  A    between atoms: O_3  and  C_4 
REMARK       I    between atoms: C_4  and  N_5 
REMARK    3  A    between atoms: N_5  and  C_6 
REMARK    4  A    between atoms: C_7  and  N_8 
REMARK    5  A    between atoms: C_11  and  N_12 
REMARK    6  A    between atoms: N_12  and  C_13 
REMARK    7  A    between atoms: C_13  and  C_14 
ROOT
HETATM    1  C   UNL     1      42.590 -11.686   5.450  1.00  0.00     0.080 A 
HETATM    2  C   UNL     1      41.291 -12.250   5.512  1.00  0.00     0.127 A 
HETATM    3  N   UNL     1      40.932 -13.097   4.540  1.00  0.00    -0.332 N 
HETATM    4  H   UNL     1      40.025 -13.546   4.590  1.00  0.00     0.168 HD
HETATM    5  C   UNL     1      41.689 -13.443   3.497  1.00  0.00     0.081 A 
HETATM    6  C   UNL     1      42.966 -12.913   3.390  1.00  0.00     0.044 A 
HETATM    7  C   UNL     1      43.422 -12.047   4.382  1.00  0.00     0.037 A 
ENDROOT
BRANCH   5   8
HETATM    8  N   UNL     1      41.097 -14.305   2.589  1.00  0.00    -0.275 NA
HETATM    9  H   UNL     1      41.790 -14.589   1.891  1.00  0.00     0.129 HD
BRANCH   8  10
HETATM   10  C   UNL     1      40.577 -15.549   3.179  1.00  0.00     0.132 C 
BRANCH  10  11
HETATM   11  C   UNL     1      41.739 -16.469   3.459  1.00  0.00    -0.045 A 
HETATM   12  C   UNL     1      42.231 -16.628   4.766  1.00  0.00     0.011 A 
HETATM   13  C   UNL     1      43.320 -17.467   5.014  1.00  0.00     0.043 A 
HETATM   14  C   UNL     1      43.917 -18.147   3.959  1.00  0.00     0.116 A 
HETATM   15  F   UNL     1      44.960 -18.950   4.198  1.00  0.00    -0.206 F 
HETATM   16  C   UNL     1      43.447 -18.004   2.659  1.00  0.00     0.043 A 
HETATM   17  C   UNL     1      42.362 -17.163   2.407  1.00  0.00     0.011 A 
ENDBRANCH  10  11
ENDBRANCH   8  10
ENDBRANCH   5   8
BRANCH   2  18
HETATM   18  N   UNL     1      40.429 -12.136   6.583  1.00  0.00    -0.384 N 
HETATM   19  H   UNL     1      39.436 -12.208   6.319  1.00  0.00     0.157 HD
HETATM   20  H   UNL     1      40.604 -12.617   7.455  1.00  0.00     0.157 HD
ENDBRANCH   2  18
BRANCH   1  21
HETATM   21  N   UNL     1      43.149 -10.771   6.369  1.00  0.00    -0.299 N 
HETATM   22  C   UNL     1      43.872 -11.030   7.499  1.00  0.00     0.365 C 
HETATM   23  O   UNL     1      44.158 -12.133   7.939  1.00  0.00    -0.238 OA
HETATM   24  H   UNL     1      42.902  -9.791   6.296  1.00  0.00     0.171 HD
BRANCH  22  25
HETATM   25  O   UNL     1      44.172  -9.849   8.092  1.00  0.00    -0.304 OA
BRANCH  25  26
HETATM   26  C   UNL     1      43.963  -9.778   9.512  1.00  0.00     0.176 C 
HETATM   27  C   UNL     1      45.300  -9.693  10.227  1.00  0.00     0.034 C 
ENDBRANCH  25  26
ENDBRANCH  22  25
ENDBRANCH   1  21
TORSDOF 7
ENDMDL
MODEL 10
REMARK VINA RESULT:      -6.7      1.623      2.221
REMARK  7 active torsions:
REMARK  status: ('A' for Active; 'I' for Inactive)
REMARK    1  A    between atoms: C_2  and  O_3 
REMARK    2  A    between atoms: O_3  and  C_4 
REMARK       I    between atoms: C_4  and  N_5 
REMARK    3  A    between atoms: N_5  and  C_6 
REMARK    4  A    between atoms: C_7  and  N_8 
REMARK    5  A    between atoms: C_11  and  N_12 
REMARK    6  A    between atoms: N_12  and  C_13 
REMARK    7  A    between atoms: C_13  and  C_14 
ROOT
HETATM    1  C   UNL     1      43.153 -12.974   6.541  1.00  0.00     0.080 A 
HETATM    2  C   UNL     1      41.873 -13.556   6.360  1.00  0.00     0.127 A 
HETATM    3  N   UNL     1      41.804 -14.888   6.243  1.00  0.00    -0.332 N 
HETATM    4  H   UNL     1      40.895 -15.327   6.159  1.00  0.00     0.168 HD
HETATM    5  C   UNL     1      42.847 -15.721   6.260  1.00  0.00     0.081 A 
HETATM    6  C   UNL     1      44.120 -15.198   6.428  1.00  0.00     0.044 A 
HETATM    7  C   UNL     1      44.268 -13.822   6.589  1.00  0.00     0.037 A 
ENDROOT
BRANCH   5   8
HETATM    8  N   UNL     1      42.543 -17.060   6.080  1.00  0.00    -0.275 NA
HETATM    9  H   UNL     1      42.055 -17.178   5.188  1.00  0.00     0.129 HD
BRANCH   8  10
HETATM   10  C   UNL     1      43.714 -17.950   6.027  1.00  0.00     0.132 C 
BRANCH  10  11
HETATM   11  C   UNL     1      43.690 -18.694   4.715  1.00  0.00    -0.045 A 
HETATM   12  C   UNL     1      43.413 -18.021   3.512  1.00  0.00     0.011 A 
HETATM   13  C   UNL     1      43.375 -18.721   2.304  1.00  0.00     0.043 A 
HETATM   14  C   UNL     1      43.613 -20.090   2.296  1.00  0.00     0.116 A 
HETATM   15  F   UNL     1      43.575 -20.760   1.138  1.00  0.00    -0.206 F 
HETATM   16  C   UNL     1      43.888 -20.775   3.473  1.00  0.00     0.043 A 
HETATM   17  C   UNL     1      43.923 -20.079   4.683  1.00  0.00     0.011 A 
ENDBRANCH  10  11
ENDBRANCH   8  10
ENDBRANCH   5   8
BRANCH   2  18
HETATM   18  N   UNL     1      40.674 -12.882   6.471  1.00  0.00    -0.384 N 
HETATM   19  H   UNL     1      39.857 -13.457   6.223  1.00  0.00     0.157 HD
HETATM   20  H   UNL     1      40.471 -12.294   7.267  1.00  0.00     0.157 HD
ENDBRANCH   2  18
BRANCH   1  21
HETATM   21  N   UNL     1      43.434 -11.597   6.674  1.00  0.00    -0.299 N 
HETATM   22  C   UNL     1      43.894 -10.921   7.769  1.00  0.00     0.365 C 
HETATM   23  O   UNL     1      44.135 -11.400   8.866  1.00  0.00    -0.238 OA
HETATM   24  H   UNL     1      43.154 -10.965   5.932  1.00  0.00     0.171 HD
BRANCH  22  25
HETATM   25  O   UNL     1      43.983  -9.608   7.452  1.00  0.00    -0.304 OA
BRANCH  25  26
HETATM   26  C   UNL     1      43.677  -8.676   8.503  1.00  0.00     0.176 C 
HETATM   27  C   UNL     1      42.221  -8.257   8.415  1.00  0.00     0.034 C 
ENDBRANCH  25  26
ENDBRANCH  22  25
ENDBRANCH   1  21
TORSDOF 7
ENDMDL
