MODEL 1
REMARK VINA RESULT:      -8.6      0.000      0.000
REMARK  5 active torsions:
REMARK  status: ('A' for Active; 'I' for Inactive)
REMARK    1  A    between atoms: C_2  and  C_3 
REMARK    2  A    between atoms: C_2  and  C_19 
REMARK       I    between atoms: C_3  and  N_4 
REMARK    3  A    between atoms: N_4  and  C_5 
REMARK    4  A    between atoms: C_8  and  O_9 
REMARK    5  A    between atoms: O_9  and  C_10 
ROOT
HETATM    1  C   UNL     1      42.089 -14.734   4.202  1.00  0.00     0.234 C 
HETATM    2  N   UNL     1      43.156 -13.859   4.341  1.00  0.00    -0.325 N 
HETATM    3  O   UNL     1      41.088 -14.728   4.913  1.00  0.00    -0.272 OA
HETATM    4  H   UNL     1      43.912 -13.943   3.671  1.00  0.00     0.169 HD
ENDROOT
BRANCH   2   5
HETATM    5  C   UNL     1      43.335 -12.909   5.367  1.00  0.00     0.052 A 
HETATM    6  C   UNL     1      43.946 -13.153   6.595  1.00  0.00     0.149 A 
HETATM    7  N   UNL     1      44.158 -12.205   7.546  1.00  0.00    -0.235 NA
HETATM    8  C   UNL     1      43.770 -10.948   7.253  1.00  0.00     0.169 A 
HETATM    9  C   UNL     1      43.113 -10.610   6.080  1.00  0.00     0.060 A 
HETATM   10  C   UNL     1      42.890 -11.606   5.129  1.00  0.00     0.035 A 
BRANCH   8  11
HETATM   11  O   UNL     1      43.964  -9.916   8.161  1.00  0.00    -0.291 OA
BRANCH  11  12
HETATM   12  C   UNL     1      43.395  -9.978   9.407  1.00  0.00     0.095 A 
HETATM   13  C   UNL     1      42.115  -9.451   9.530  1.00  0.00     0.153 A 
HETATM   14  N   UNL     1      41.422  -9.375  10.693  1.00  0.00    -0.270 NA
HETATM   15  C   UNL     1      42.042  -9.854  11.792  1.00  0.00     0.116 A 
HETATM   16  C   UNL     1      43.322 -10.383  11.782  1.00  0.00     0.022 A 
HETATM   17  C   UNL     1      44.013 -10.429  10.571  1.00  0.00     0.040 A 
ENDBRANCH  11  12
ENDBRANCH   8  11
ENDBRANCH   2   5
BRANCH   1  18
HETATM   18  C   UNL     1      42.269 -15.775   3.056  1.00  0.00     0.061 C 
HETATM   19  C   UNL     1      40.877 -16.028   2.429  1.00  0.00     0.030 C 
HETATM   20  C   UNL     1      43.149 -15.161   1.942  1.00  0.00     0.030 C 
BRANCH  18  21
HETATM   21  C   UNL     1      42.970 -17.040   3.582  1.00  0.00    -0.041 A 
HETATM   22  C   UNL     1      43.311 -18.069   2.677  1.00  0.00     0.011 A 
HETATM   23  C   UNL     1      43.916 -19.248   3.116  1.00  0.00     0.043 A 
HETATM   24  C   UNL     1      44.189 -19.414   4.465  1.00  0.00     0.116 A 
HETATM   25  F   UNL     1      44.764 -20.547   4.890  1.00  0.00    -0.206 F 
HETATM   26  C   UNL     1      43.870 -18.421   5.380  1.00  0.00     0.043 A 
HETATM   27  C   UNL     1      43.261 -17.241   4.944  1.00  0.00     0.011 A 
ENDBRANCH  18  21
ENDBRANCH   1  18
TORSDOF 5
ENDMDL
MODEL 2
REMARK VINA RESULT:      -8.2      2.475      2.872
REMARK  5 active torsions:
REMARK  status: ('A' for Active; 'I' for Inactive)
REMARK    1  A    between atoms: C_2  and  C_3 
REMARK    2  A    between atoms: C_2  and  C_19 
REMARK       I    between atoms: C_3  and  N_4 
REMARK    3  A    between atoms: N_4  and  C_5 
REMARK    4  A    between atoms: C_8  and  O_9 
REMARK    5  A    between atoms: O_9  and  C_10 
ROOT
HETATM    1  C   UNL     1      42.161 -14.778   3.572  1.00  0.00     0.234 C 
HETATM    2  N   UNL     1      40.828 -14.658   3.938  1.00  0.00    -0.325 N 
HETATM    3  O   UNL     1      43.059 -14.037   3.963  1.00  0.00    -0.272 OA
HETATM    4  H   UNL     1      40.185 -15.352   3.573  1.00  0.00     0.169 HD
ENDROOT
BRANCH   2   5
HETATM    5  C   UNL     1      40.259 -13.625   4.711  1.00  0.00     0.052 A 
HETATM    6  C   UNL     1      40.071 -13.659   6.090  1.00  0.00     0.149 A 
HETATM    7  N   UNL     1      39.574 -12.627   6.821  1.00  0.00    -0.235 NA
HETATM    8  C   UNL     1      39.274 -11.495   6.154  1.00  0.00     0.169 A 
HETATM    9  C   UNL     1      39.381 -11.374   4.777  1.00  0.00     0.060 A 
HETATM   10  C   UNL     1      39.876 -12.456   4.048  1.00  0.00     0.035 A 
BRANCH   8  11
HETATM   11  O   UNL     1      38.775 -10.387   6.825  1.00  0.00    -0.291 OA
BRANCH  11  12
HETATM   12  C   UNL     1      39.406  -9.919   7.949  1.00  0.00     0.095 A 
HETATM   13  C   UNL     1      40.664  -9.358   7.763  1.00  0.00     0.153 A 
HETATM   14  N   UNL     1      41.456  -8.896   8.763  1.00  0.00    -0.270 NA
HETATM   15  C   UNL     1      40.963  -9.000  10.014  1.00  0.00     0.116 A 
HETATM   16  C   UNL     1      39.730  -9.559  10.309  1.00  0.00     0.022 A 
HETATM   17  C   UNL     1      38.949 -10.040   9.259  1.00  0.00     0.040 A 
ENDBRANCH  11  12
ENDBRANCH   8  11
ENDBRANCH   2   5
BRANCH   1  18
HETATM   18  C   UNL     1      42.440 -15.942   2.575  1.00  0.00     0.061 C 
HETATM   19  C   UNL     1      41.112 -16.272   1.852  1.00  0.00     0.030 C 
HETATM   20  C   UNL     1      43.425 -15.456   1.486  1.00  0.00     0.030 C 
BRANCH  18  21
HETATM   21  C   UNL     1      43.081 -17.136   3.306  1.00  0.00    -0.041 A 
HETATM   22  C   UNL     1      43.383 -18.310   2.581  1.00  0.00     0.011 A 
HETATM   23  C   UNL     1      43.932 -19.429   3.210  1.00  0.00     0.043 A 
HETATM   24  C   UNL     1      44.187 -19.389   4.572  1.00  0.00     0.116 A 
HETATM   25  F   UNL     1      44.707 -20.463   5.180  1.00  0.00    -0.206 F 
HETATM   26  C   UNL     1      43.904 -18.251   5.313  1.00  0.00     0.043 A 
HETATM   27  C   UNL     1      43.352 -17.130   4.686  1.00  0.00     0.011 A 
ENDBRANCH  18  21
ENDBRANCH   1  18
TORSDOF 5
ENDMDL
MODEL 3
REMARK VINA RESULT:      -7.5      4.338      6.710
REMARK  5 active torsions:
REMARK  status: ('A' for Active; 'I' for Inactive)
REMARK    1  A    between atoms: C_2  and  C_3 
REMARK    2  A    between atoms: C_2  and  C_19 
REMARK       I    between atoms: C_3  and  N_4 
REMARK    3  A    between atoms: N_4  and  C_5 
REMARK    4  A    between atoms: C_8  and  O_9 
REMARK    5  A    between atoms: O_9  and  C_10 
ROOT
HETATM    1  C   UNL     1      41.673 -14.640   4.173  1.00  0.00     0.234 C 
HETATM    2  N   UNL     1      42.438 -13.888   3.294  1.00  0.00    -0.325 N 
HETATM    3  O   UNL     1      40.452 -14.557   4.278  1.00  0.00    -0.272 OA
HETATM    4  H   UNL     1      43.435 -14.070   3.278  1.00  0.00     0.169 HD
ENDROOT
BRANCH   2   5
HETATM    5  C   UNL     1      41.982 -12.840   2.468  1.00  0.00     0.052 A 
HETATM    6  C   UNL     1      42.117 -11.481   2.740  1.00  0.00     0.149 A 
HETATM    7  N   UNL     1      41.720 -10.489   1.901  1.00  0.00    -0.235 NA
HETATM    8  C   UNL     1      41.188 -10.864   0.721  1.00  0.00     0.169 A 
HETATM    9  C   UNL     1      40.968 -12.187   0.373  1.00  0.00     0.060 A 
HETATM   10  C   UNL     1      41.367 -13.186   1.262  1.00  0.00     0.035 A 
BRANCH   8  11
HETATM   11  O   UNL     1      40.771  -9.915  -0.203  1.00  0.00    -0.291 OA
BRANCH  11  12
HETATM   12  C   UNL     1      41.559  -8.827  -0.479  1.00  0.00     0.095 A 
HETATM   13  C   UNL     1      41.166  -7.620   0.086  1.00  0.00     0.153 A 
HETATM   14  N   UNL     1      41.789  -6.433  -0.123  1.00  0.00    -0.270 NA
HETATM   15  C   UNL     1      42.864  -6.457  -0.939  1.00  0.00     0.116 A 
HETATM   16  C   UNL     1      43.326  -7.602  -1.566  1.00  0.00     0.022 A 
HETATM   17  C   UNL     1      42.651  -8.802  -1.344  1.00  0.00     0.040 A 
ENDBRANCH  11  12
ENDBRANCH   8  11
ENDBRANCH   2   5
BRANCH   1  18
HETATM   18  C   UNL     1      42.504 -15.610   5.065  1.00  0.00     0.061 C 
HETATM   19  C   UNL     1      43.660 -14.795   5.695  1.00  0.00     0.030 C 
HETATM   20  C   UNL     1      41.625 -16.104   6.238  1.00  0.00     0.030 C 
BRANCH  18  21
HETATM   21  C   UNL     1      42.958 -16.835   4.253  1.00  0.00    -0.041 A 
HETATM   22  C   UNL     1      43.980 -17.665   4.764  1.00  0.00     0.011 A 
HETATM   23  C   UNL     1      44.447 -18.766   4.044  1.00  0.00     0.043 A 
HETATM   24  C   UNL     1      43.897 -19.054   2.805  1.00  0.00     0.116 A 
HETATM   25  F   UNL     1      44.348 -20.106   2.109  1.00  0.00    -0.206 F 
HETATM   26  C   UNL     1      42.889 -18.262   2.275  1.00  0.00     0.043 A 
HETATM   27  C   UNL     1      42.423 -17.156   2.992  1.00  0.00     0.011 A 
ENDBRANCH  18  21
ENDBRANCH   1  18
TORSDOF 5
ENDMDL
MODEL 4
REMARK VINA RESULT:      -7.4      2.598      3.678
REMARK  5 active torsions:
REMARK  status: ('A' for Active; 'I' for Inactive)
REMARK    1  A    between atoms: C_2  and  C_3 
REMARK    2  A    between atoms: C_2  and  C_19 
REMARK       I    between atoms: C_3  and  N_4 
REMARK    3  A    between atoms: N_4  and  C_5 
REMARK    4  A    between atoms: C_8  and  O_9 
REMARK    5  A    between atoms: O_9  and  C_10 
ROOT
HETATM    1  C   UNL     1      41.658 -13.992   5.128  1.00  0.00     0.234 C 
HETATM    2  N   UNL     1      42.873 -13.344   5.295  1.00  0.00    -0.325 N 
HETATM    3  O   UNL     1      40.589 -13.592   5.581  1.00  0.00    -0.272 OA
HETATM    4  H   UNL     1      43.682 -13.756   4.845  1.00  0.00     0.169 HD
ENDROOT
BRANCH   2   5
HETATM    5  C   UNL     1      43.114 -12.204   6.090  1.00  0.00     0.052 A 
HETATM    6  C   UNL     1      42.546 -10.948   5.893  1.00  0.00     0.149 A 
HETATM    7  N   UNL     1      42.750  -9.880   6.707  1.00  0.00    -0.235 NA
HETATM    8  C   UNL     1      43.533 -10.075   7.786  1.00  0.00     0.169 A 
HETATM    9  C   UNL     1      44.182 -11.272   8.047  1.00  0.00     0.060 A 
HETATM   10  C   UNL     1      43.971 -12.347   7.184  1.00  0.00     0.035 A 
BRANCH   8  11
HETATM   11  O   UNL     1      43.781  -9.041   8.679  1.00  0.00    -0.291 OA
BRANCH  11  12
HETATM   12  C   UNL     1      43.237  -9.071   9.938  1.00  0.00     0.095 A 
HETATM   13  C   UNL     1      41.855  -9.195  10.011  1.00  0.00     0.153 A 
HETATM   14  N   UNL     1      41.141  -9.186  11.165  1.00  0.00    -0.270 NA
HETATM   15  C   UNL     1      41.848  -9.047  12.305  1.00  0.00     0.116 A 
HETATM   16  C   UNL     1      43.225  -8.898  12.341  1.00  0.00     0.022 A 
HETATM   17  C   UNL     1      43.926  -8.894  11.136  1.00  0.00     0.040 A 
ENDBRANCH  11  12
ENDBRANCH   8  11
ENDBRANCH   2   5
BRANCH   1  18
HETATM   18  C   UNL     1      41.756 -15.320   4.319  1.00  0.00     0.061 C 
HETATM   19  C   UNL     1      43.217 -15.822   4.414  1.00  0.00     0.030 C 
HETATM   20  C   UNL     1      40.876 -16.397   4.998  1.00  0.00     0.030 C 
BRANCH  18  21
HETATM   21  C   UNL     1      41.244 -15.116   2.882  1.00  0.00    -0.041 A 
HETATM   22  C   UNL     1      41.670 -13.986   2.150  1.00  0.00     0.011 A 
HETATM   23  C   UNL     1      41.204 -13.743   0.857  1.00  0.00     0.043 A 
HETATM   24  C   UNL     1      40.307 -14.627   0.277  1.00  0.00     0.116 A 
HETATM   25  F   UNL     1      39.853 -14.393  -0.961  1.00  0.00    -0.206 F 
HETATM   26  C   UNL     1      39.871 -15.749   0.967  1.00  0.00     0.043 A 
HETATM   27  C   UNL     1      40.333 -15.992   2.264  1.00  0.00     0.011 A 
ENDBRANCH  18  21
ENDBRANCH   1  18
TORSDOF 5
ENDMDL
MODEL 5
REMARK VINA RESULT:      -7.3      3.523      9.070
REMARK  5 active torsions:
REMARK  status: ('A' for Active; 'I' for Inactive)
REMARK    1  A    between atoms: C_2  and  C_3 
REMARK    2  A    between atoms: C_2  and  C_19 
REMARK       I    between atoms: C_3  and  N_4 
REMARK    3  A    between atoms: N_4  and  C_5 
REMARK    4  A    between atoms: C_8  and  O_9 
REMARK    5  A    between atoms: O_9  and  C_10 
ROOT
HETATM    1  C   UNL     1      43.254 -10.223   7.853  1.00  0.00     0.234 C 
HETATM    2  N   UNL     1      43.740 -11.520   7.786  1.00  0.00    -0.325 N 
HETATM    3  O   UNL     1      42.471  -9.731   7.043  1.00  0.00    -0.272 OA
HETATM    4  H   UNL     1      44.356 -11.821   8.532  1.00  0.00     0.169 HD
ENDROOT
BRANCH   2   5
HETATM    5  C   UNL     1      43.524 -12.446   6.744  1.00  0.00     0.052 A 
HETATM    6  C   UNL     1      43.371 -12.123   5.398  1.00  0.00     0.149 A 
HETATM    7  N   UNL     1      43.221 -13.038   4.404  1.00  0.00    -0.235 NA
HETATM    8  C   UNL     1      43.252 -14.337   4.760  1.00  0.00     0.169 A 
HETATM    9  C   UNL     1      43.352 -14.762   6.075  1.00  0.00     0.060 A 
HETATM   10  C   UNL     1      43.486 -13.801   7.078  1.00  0.00     0.035 A 
BRANCH   8  11
HETATM   11  O   UNL     1      43.122 -15.337   3.806  1.00  0.00    -0.291 OA
BRANCH  11  12
HETATM   12  C   UNL     1      42.022 -15.371   2.987  1.00  0.00     0.095 A 
HETATM   13  C   UNL     1      42.230 -15.024   1.658  1.00  0.00     0.153 A 
HETATM   14  N   UNL     1      41.253 -14.947   0.720  1.00  0.00    -0.270 NA
HETATM   15  C   UNL     1      40.002 -15.234   1.134  1.00  0.00     0.116 A 
HETATM   16  C   UNL     1      39.684 -15.574   2.439  1.00  0.00     0.022 A 
HETATM   17  C   UNL     1      40.710 -15.626   3.382  1.00  0.00     0.040 A 
ENDBRANCH  11  12
ENDBRANCH   8  11
ENDBRANCH   2   5
BRANCH   1  18
HETATM   18  C   UNL     1      43.810  -9.400   9.053  1.00  0.00     0.061 C 
HETATM   19  C   UNL     1      45.276  -9.838   9.284  1.00  0.00     0.030 C 
HETATM   20  C   UNL     1      43.853  -7.902   8.669  1.00  0.00     0.030 C 
BRANCH  18  21
HETATM   21  C   UNL     1      42.897  -9.555  10.283  1.00  0.00    -0.041 A 
HETATM   22  C   UNL     1      43.428 -10.097  11.474  1.00  0.00     0.011 A 
HETATM   23  C   UNL     1      42.628 -10.288  12.602  1.00  0.00     0.043 A 
HETATM   24  C   UNL     1      41.288  -9.940  12.555  1.00  0.00     0.116 A 
HETATM   25  F   UNL     1      40.516 -10.128  13.633  1.00  0.00    -0.206 F 
HETATM   26  C   UNL     1      40.735  -9.402  11.401  1.00  0.00     0.043 A 
HETATM   27  C   UNL     1      41.533  -9.213  10.269  1.00  0.00     0.011 A 
ENDBRANCH  18  21
ENDBRANCH   1  18
TORSDOF 5
ENDMDL
MODEL 6
REMARK VINA RESULT:      -7.3      6.516      9.481
REMARK  5 active torsions:
REMARK  status: ('A' for Active; 'I' for Inactive)
REMARK    1  A    between atoms: C_2  and  C_3 
REMARK    2  A    between atoms: C_2  and  C_19 
REMARK       I    between atoms: C_3  and  N_4 
REMARK    3  A    between atoms: N_4  and  C_5 
REMARK    4  A    between atoms: C_8  and  O_9 
REMARK    5  A    between atoms: O_9  and  C_10 
ROOT
HETATM    1  C   UNL     1      39.748 -12.721   0.539  1.00  0.00     0.234 C 
HETATM    2  N   UNL     1      40.504 -13.837   0.215  1.00  0.00    -0.325 N 
HETATM    3  O   UNL     1      39.705 -12.210   1.655  1.00  0.00    -0.272 OA
HETATM    4  H   UNL     1      40.481 -14.146  -0.750  1.00  0.00     0.169 HD
ENDROOT
BRANCH   2   5
HETATM    5  C   UNL     1      41.248 -14.636   1.109  1.00  0.00     0.052 A 
HETATM    6  C   UNL     1      42.575 -14.416   1.472  1.00  0.00     0.149 A 
HETATM    7  N   UNL     1      43.253 -15.166   2.380  1.00  0.00    -0.235 NA
HETATM    8  C   UNL     1      42.573 -16.165   2.977  1.00  0.00     0.169 A 
HETATM    9  C   UNL     1      41.266 -16.495   2.652  1.00  0.00     0.060 A 
HETATM   10  C   UNL     1      40.599 -15.720   1.703  1.00  0.00     0.035 A 
BRANCH   8  11
HETATM   11  O   UNL     1      43.185 -16.971   3.928  1.00  0.00    -0.291 OA
BRANCH  11  12
HETATM   12  C   UNL     1      43.406 -18.299   3.668  1.00  0.00     0.095 A 
HETATM   13  C   UNL     1      43.922 -19.056   4.714  1.00  0.00     0.153 A 
HETATM   14  N   UNL     1      44.255 -20.368   4.624  1.00  0.00    -0.270 NA
HETATM   15  C   UNL     1      44.060 -20.954   3.424  1.00  0.00     0.116 A 
HETATM   16  C   UNL     1      43.570 -20.286   2.314  1.00  0.00     0.022 A 
HETATM   17  C   UNL     1      43.254 -18.933   2.437  1.00  0.00     0.040 A 
ENDBRANCH  11  12
ENDBRANCH   8  11
ENDBRANCH   2   5
BRANCH   1  18
HETATM   18  C   UNL     1      38.909 -12.159  -0.648  1.00  0.00     0.061 C 
HETATM   19  C   UNL     1      38.407 -13.363  -1.480  1.00  0.00     0.030 C 
HETATM   20  C   UNL     1      37.650 -11.451  -0.093  1.00  0.00     0.030 C 
BRANCH  18  21
HETATM   21  C   UNL     1      39.727 -11.129  -1.447  1.00  0.00    -0.041 A 
HETATM   22  C   UNL     1      39.948  -9.846  -0.901  1.00  0.00     0.011 A 
HETATM   23  C   UNL     1      40.654  -8.869  -1.606  1.00  0.00     0.043 A 
HETATM   24  C   UNL     1      41.150  -9.164  -2.866  1.00  0.00     0.116 A 
HETATM   25  F   UNL     1      41.823  -8.227  -3.549  1.00  0.00    -0.206 F 
HETATM   26  C   UNL     1      40.954 -10.416  -3.431  1.00  0.00     0.043 A 
HETATM   27  C   UNL     1      40.244 -11.394  -2.728  1.00  0.00     0.011 A 
ENDBRANCH  18  21
ENDBRANCH   1  18
TORSDOF 5
ENDMDL
MODEL 7
REMARK VINA RESULT:      -7.2      2.266      3.373
REMARK  5 active torsions:
REMARK  status: ('A' for Active; 'I' for Inactive)
REMARK    1  A    between atoms: C_2  and  C_3 
REMARK    2  A    between atoms: C_2  and  C_19 
REMARK       I    between atoms: C_3  and  N_4 
REMARK    3  A    between atoms: N_4  and  C_5 
REMARK    4  A    between atoms: C_8  and  O_9 
REMARK    5  A    between atoms: O_9  and  C_10 
ROOT
HETATM    1  C   UNL     1      41.622 -11.682   5.291  1.00  0.00     0.234 C 
HETATM    2  N   UNL     1      42.778 -10.991   5.624  1.00  0.00    -0.325 N 
HETATM    3  O   UNL     1      40.766 -12.036   6.098  1.00  0.00    -0.272 OA
HETATM    4  H   UNL     1      43.393 -10.727   4.864  1.00  0.00     0.169 HD
ENDROOT
BRANCH   2   5
HETATM    5  C   UNL     1      43.225 -10.680   6.925  1.00  0.00     0.052 A 
HETATM    6  C   UNL     1      44.035 -11.492   7.715  1.00  0.00     0.149 A 
HETATM    7  N   UNL     1      44.500 -11.145   8.944  1.00  0.00    -0.235 NA
HETATM    8  C   UNL     1      44.168  -9.921   9.399  1.00  0.00     0.169 A 
HETATM    9  C   UNL     1      43.330  -9.057   8.713  1.00  0.00     0.060 A 
HETATM   10  C   UNL     1      42.850  -9.446   7.462  1.00  0.00     0.035 A 
BRANCH   8  11
HETATM   11  O   UNL     1      44.613  -9.481  10.638  1.00  0.00    -0.291 OA
BRANCH  11  12
HETATM   12  C   UNL     1      43.722  -9.283  11.662  1.00  0.00     0.095 A 
HETATM   13  C   UNL     1      42.854 -10.333  11.937  1.00  0.00     0.153 A 
HETATM   14  N   UNL     1      41.873 -10.297  12.872  1.00  0.00    -0.270 NA
HETATM   15  C   UNL     1      41.755  -9.149  13.571  1.00  0.00     0.116 A 
HETATM   16  C   UNL     1      42.556  -8.038  13.364  1.00  0.00     0.022 A 
HETATM   17  C   UNL     1      43.544  -8.104  12.381  1.00  0.00     0.040 A 
ENDBRANCH  11  12
ENDBRANCH   8  11
ENDBRANCH   2   5
BRANCH   1  18
HETATM   18  C   UNL     1      41.497 -12.011   3.773  1.00  0.00     0.061 C 
HETATM   19  C   UNL     1      40.187 -11.366   3.259  1.00  0.00     0.030 C 
HETATM   20  C   UNL     1      42.654 -11.329   3.006  1.00  0.00     0.030 C 
BRANCH  18  21
HETATM   21  C   UNL     1      41.594 -13.529   3.540  1.00  0.00    -0.041 A 
HETATM   22  C   UNL     1      42.863 -14.148   3.530  1.00  0.00     0.011 A 
HETATM   23  C   UNL     1      42.999 -15.516   3.287  1.00  0.00     0.043 A 
HETATM   24  C   UNL     1      41.869 -16.284   3.052  1.00  0.00     0.116 A 
HETATM   25  F   UNL     1      41.997 -17.596   2.812  1.00  0.00    -0.206 F 
HETATM   26  C   UNL     1      40.607 -15.708   3.058  1.00  0.00     0.043 A 
HETATM   27  C   UNL     1      40.468 -14.337   3.297  1.00  0.00     0.011 A 
ENDBRANCH  18  21
ENDBRANCH   1  18
TORSDOF 5
ENDMDL
MODEL 8
REMARK VINA RESULT:      -7.1     17.115     18.383
REMARK  5 active torsions:
REMARK  status: ('A' for Active; 'I' for Inactive)
REMARK    1  A    between atoms: C_2  and  C_3 
REMARK    2  A    between atoms: C_2  and  C_19 
REMARK       I    between atoms: C_3  and  N_4 
REMARK    3  A    between atoms: N_4  and  C_5 
REMARK    4  A    between atoms: C_8  and  O_9 
REMARK    5  A    between atoms: O_9  and  C_10 
ROOT
HETATM    1  C   UNL     1      46.014 -29.205  -0.025  1.00  0.00     0.234 C 
HETATM    2  N   UNL     1      45.060 -30.201   0.123  1.00  0.00    -0.325 N 
HETATM    3  O   UNL     1      46.235 -28.324   0.802  1.00  0.00    -0.272 OA
HETATM    4  H   UNL     1      44.994 -30.890  -0.616  1.00  0.00     0.169 HD
ENDROOT
BRANCH   2   5
HETATM    5  C   UNL     1      44.118 -30.312   1.166  1.00  0.00     0.052 A 
HETATM    6  C   UNL     1      44.277 -31.079   2.318  1.00  0.00     0.149 A 
HETATM    7  N   UNL     1      43.379 -31.125   3.337  1.00  0.00    -0.235 NA
HETATM    8  C   UNL     1      42.283 -30.350   3.220  1.00  0.00     0.169 A 
HETATM    9  C   UNL     1      42.008 -29.587   2.096  1.00  0.00     0.060 A 
HETATM   10  C   UNL     1      42.937 -29.573   1.056  1.00  0.00     0.035 A 
BRANCH   8  11
HETATM   11  O   UNL     1      41.322 -30.325   4.222  1.00  0.00    -0.291 OA
BRANCH  11  12
HETATM   12  C   UNL     1      40.383 -31.321   4.303  1.00  0.00     0.095 A 
HETATM   13  C   UNL     1      39.890 -31.604   5.571  1.00  0.00     0.153 A 
HETATM   14  N   UNL     1      39.001 -32.590   5.850  1.00  0.00    -0.270 NA
HETATM   15  C   UNL     1      38.582 -33.331   4.803  1.00  0.00     0.116 A 
HETATM   16  C   UNL     1      39.024 -33.144   3.503  1.00  0.00     0.022 A 
HETATM   17  C   UNL     1      39.952 -32.132   3.255  1.00  0.00     0.040 A 
ENDBRANCH  11  12
ENDBRANCH   8  11
ENDBRANCH   2   5
BRANCH   1  18
HETATM   18  C   UNL     1      46.793 -29.270  -1.374  1.00  0.00     0.061 C 
HETATM   19  C   UNL     1      47.552 -27.932  -1.543  1.00  0.00     0.030 C 
HETATM   20  C   UNL     1      47.867 -30.379  -1.289  1.00  0.00     0.030 C 
BRANCH  18  21
HETATM   21  C   UNL     1      45.838 -29.612  -2.532  1.00  0.00    -0.041 A 
HETATM   22  C   UNL     1      46.184 -30.645  -3.431  1.00  0.00     0.011 A 
HETATM   23  C   UNL     1      45.365 -30.964  -4.516  1.00  0.00     0.043 A 
HETATM   24  C   UNL     1      44.190 -30.257  -4.716  1.00  0.00     0.116 A 
HETATM   25  F   UNL     1      43.405 -30.556  -5.759  1.00  0.00    -0.206 F 
HETATM   26  C   UNL     1      43.819 -29.238  -3.849  1.00  0.00     0.043 A 
HETATM   27  C   UNL     1      44.639 -28.914  -2.764  1.00  0.00     0.011 A 
ENDBRANCH  18  21
ENDBRANCH   1  18
TORSDOF 5
ENDMDL
MODEL 9
REMARK VINA RESULT:      -7.0     16.657     19.294
REMARK  5 active torsions:
REMARK  status: ('A' for Active; 'I' for Inactive)
REMARK    1  A    between atoms: C_2  and  C_3 
REMARK    2  A    between atoms: C_2  and  C_19 
REMARK       I    between atoms: C_3  and  N_4 
REMARK    3  A    between atoms: N_4  and  C_5 
REMARK    4  A    between atoms: C_8  and  O_9 
REMARK    5  A    between atoms: O_9  and  C_10 
ROOT
HETATM    1  C   UNL     1      48.455 -30.007   1.896  1.00  0.00     0.234 C 
HETATM    2  N   UNL     1      48.092 -28.845   1.232  1.00  0.00    -0.325 N 
HETATM    3  O   UNL     1      48.209 -31.142   1.497  1.00  0.00    -0.272 OA
HETATM    4  H   UNL     1      48.381 -27.967   1.647  1.00  0.00     0.169 HD
ENDROOT
BRANCH   2   5
HETATM    5  C   UNL     1      47.296 -28.755   0.071  1.00  0.00     0.052 A 
HETATM    6  C   UNL     1      47.755 -28.907  -1.235  1.00  0.00     0.149 A 
HETATM    7  N   UNL     1      46.958 -28.874  -2.335  1.00  0.00    -0.235 NA
HETATM    8  C   UNL     1      45.637 -28.708  -2.127  1.00  0.00     0.169 A 
HETATM    9  C   UNL     1      45.086 -28.501  -0.872  1.00  0.00     0.060 A 
HETATM   10  C   UNL     1      45.930 -28.521   0.239  1.00  0.00     0.035 A 
BRANCH   8  11
HETATM   11  O   UNL     1      44.749 -28.677  -3.194  1.00  0.00    -0.291 OA
BRANCH  11  12
HETATM   12  C   UNL     1      44.505 -29.814  -3.922  1.00  0.00     0.095 A 
HETATM   13  C   UNL     1      44.327 -30.986  -3.196  1.00  0.00     0.153 A 
HETATM   14  N   UNL     1      44.133 -32.210  -3.747  1.00  0.00    -0.270 NA
HETATM   15  C   UNL     1      44.115 -32.264  -5.095  1.00  0.00     0.116 A 
HETATM   16  C   UNL     1      44.300 -31.159  -5.910  1.00  0.00     0.022 A 
HETATM   17  C   UNL     1      44.515 -29.918  -5.311  1.00  0.00     0.040 A 
ENDBRANCH  11  12
ENDBRANCH   8  11
ENDBRANCH   2   5
BRANCH   1  18
HETATM   18  C   UNL     1      49.199 -29.760   3.243  1.00  0.00     0.061 C 
HETATM   19  C   UNL     1      50.711 -29.979   2.992  1.00  0.00     0.030 C 
HETATM   20  C   UNL     1      49.031 -28.279   3.655  1.00  0.00     0.030 C 
BRANCH  18  21
HETATM   21  C   UNL     1      48.605 -30.641   4.357  1.00  0.00    -0.041 A 
HETATM   22  C   UNL     1      49.401 -31.652   4.938  1.00  0.00     0.011 A 
HETATM   23  C   UNL     1      48.891 -32.497   5.926  1.00  0.00     0.043 A 
HETATM   24  C   UNL     1      47.581 -32.340   6.348  1.00  0.00     0.116 A 
HETATM   25  F   UNL     1      47.087 -33.153   7.291  1.00  0.00    -0.206 F 
HETATM   26  C   UNL     1      46.773 -31.354   5.801  1.00  0.00     0.043 A 
HETATM   27  C   UNL     1      47.279 -30.510   4.809  1.00  0.00     0.011 A 
ENDBRANCH  18  21
ENDBRANCH   1  18
TORSDOF 5
ENDMDL
MODEL 10
REMARK VINA RESULT:      -6.9      4.805     10.545
REMARK  5 active torsions:
REMARK  status: ('A' for Active; 'I' for Inactive)
REMARK    1  A    between atoms: C_2  and  C_3 
REMARK    2  A    between atoms: C_2  and  C_19 
REMARK       I    between atoms: C_3  and  N_4 
REMARK    3  A    between atoms: N_4  and  C_5 
REMARK    4  A    between atoms: C_8  and  O_9 
REMARK    5  A    between atoms: O_9  and  C_10 
ROOT
HETATM    1  C   UNL     1      42.557  -9.035  12.455  1.00  0.00     0.234 C 
HETATM    2  N   UNL     1      43.525  -8.516  11.608  1.00  0.00    -0.325 N 
HETATM    3  O   UNL     1      42.113 -10.178  12.388  1.00  0.00    -0.272 OA
HETATM    4  H   UNL     1      43.833  -7.567  11.785  1.00  0.00     0.169 HD
ENDROOT
BRANCH   2   5
HETATM    5  C   UNL     1      44.075  -9.151  10.474  1.00  0.00     0.052 A 
HETATM    6  C   UNL     1      45.051 -10.144  10.500  1.00  0.00     0.149 A 
HETATM    7  N   UNL     1      45.523 -10.781   9.397  1.00  0.00    -0.235 NA
HETATM    8  C   UNL     1      44.982 -10.435   8.213  1.00  0.00     0.169 A 
HETATM    9  C   UNL     1      44.040  -9.428   8.074  1.00  0.00     0.060 A 
HETATM   10  C   UNL     1      43.585  -8.776   9.221  1.00  0.00     0.035 A 
BRANCH   8  11
HETATM   11  O   UNL     1      45.396 -11.047   7.037  1.00  0.00    -0.291 OA
BRANCH  11  12
HETATM   12  C   UNL     1      44.503 -11.762   6.280  1.00  0.00     0.095 A 
HETATM   13  C   UNL     1      44.074 -12.973   6.810  1.00  0.00     0.153 A 
HETATM   14  N   UNL     1      43.239 -13.837   6.180  1.00  0.00    -0.270 NA
HETATM   15  C   UNL     1      42.811 -13.469   4.955  1.00  0.00     0.116 A 
HETATM   16  C   UNL     1      43.193 -12.293   4.329  1.00  0.00     0.022 A 
HETATM   17  C   UNL     1      44.066 -11.436   4.998  1.00  0.00     0.040 A 
ENDBRANCH  11  12
ENDBRANCH   8  11
ENDBRANCH   2   5
BRANCH   1  18
HETATM   18  C   UNL     1      42.038  -8.020  13.518  1.00  0.00     0.061 C 
HETATM   19  C   UNL     1      41.704  -8.815  14.803  1.00  0.00     0.030 C 
HETATM   20  C   UNL     1      43.177  -7.041  13.888  1.00  0.00     0.030 C 
BRANCH  18  21
HETATM   21  C   UNL     1      40.863  -7.201  12.953  1.00  0.00    -0.041 A 
HETATM   22  C   UNL     1      39.557  -7.735  13.008  1.00  0.00     0.011 A 
HETATM   23  C   UNL     1      38.468  -7.042  12.476  1.00  0.00     0.043 A 
HETATM   24  C   UNL     1      38.670  -5.806  11.884  1.00  0.00     0.116 A 
HETATM   25  F   UNL     1      37.628  -5.141  11.366  1.00  0.00    -0.206 F 
HETATM   26  C   UNL     1      39.939  -5.250  11.815  1.00  0.00     0.043 A 
HETATM   27  C   UNL     1      41.032  -5.944  12.344  1.00  0.00     0.011 A 
ENDBRANCH  18  21
ENDBRANCH   1  18
TORSDOF 5
ENDMDL
