MODEL 1
REMARK VINA RESULT:      -9.3      0.000      0.000
REMARK  3 active torsions:
REMARK  status: ('A' for Active; 'I' for Inactive)
REMARK    1  A    between atoms: C_3  and  C_4 
REMARK       I    between atoms: C_4  and  N_5 
REMARK    2  A    between atoms: N_5  and  C_6 
REMARK    3  A    between atoms: C_13  and  C_14 
REMARK       I    between atoms: C_14  and  N_15 
ROOT
HETATM    1  C   UNL     1      40.707 -14.719   0.817  1.00  0.00     0.036 A 
HETATM    2  C   UNL     1      40.030 -14.997  -0.378  1.00  0.00     0.046 A 
HETATM    3  C   UNL     1      39.433 -13.941  -1.104  1.00  0.00     0.030 A 
HETATM    4  C   UNL     1      39.527 -12.648  -0.608  1.00  0.00     0.063 A 
HETATM    5  N   UNL     1      38.864 -11.863  -1.509  1.00  0.00    -0.277 N 
HETATM    6  H   UNL     1      38.731 -10.859  -1.467  1.00  0.00     0.189 HD
HETATM    7  N   UNL     1      38.346 -12.529  -2.552  1.00  0.00    -0.168 NA
HETATM    8  C   UNL     1      38.689 -13.817  -2.317  1.00  0.00     0.156 A 
HETATM    9  C   UNL     1      40.189 -12.334   0.580  1.00  0.00     0.034 A 
HETATM   10  C   UNL     1      40.775 -13.397   1.280  1.00  0.00     0.032 A 
ENDROOT
BRANCH   1  11
HETATM   11  N   UNL     1      41.336 -15.698   1.617  1.00  0.00    -0.322 N 
HETATM   12  C   UNL     1      42.684 -15.836   1.900  1.00  0.00     0.273 C 
HETATM   13  O   UNL     1      43.558 -15.072   1.508  1.00  0.00    -0.266 OA
HETATM   14  H   UNL     1      40.719 -16.352   2.074  1.00  0.00     0.169 HD
BRANCH  12  15
HETATM   15  C   UNL     1      42.993 -16.988   2.748  1.00  0.00     0.104 A 
HETATM   16  N   UNL     1      43.046 -16.950   4.135  1.00  0.00    -0.346 N 
HETATM   17  C   UNL     1      42.756 -15.774   4.936  1.00  0.00     0.156 C 
HETATM   18  C   UNL     1      43.396 -18.185   4.651  1.00  0.00     0.045 A 
HETATM   19  C   UNL     1      43.560 -19.046   3.567  1.00  0.00    -0.007 A 
HETATM   20  C   UNL     1      43.589 -18.623   5.972  1.00  0.00     0.030 A 
HETATM   21  C   UNL     1      43.313 -18.292   2.392  1.00  0.00     0.049 A 
HETATM   22  C   UNL     1      43.922 -20.388   3.800  1.00  0.00     0.014 A 
HETATM   23  C   UNL     1      44.111 -20.832   5.112  1.00  0.00     0.001 A 
HETATM   24  C   UNL     1      43.947 -19.960   6.182  1.00  0.00     0.002 A 
ENDBRANCH  12  15
ENDBRANCH   1  11
BRANCH   8  25
HETATM   25  C   UNL     1      38.303 -14.887  -3.248  1.00  0.00     0.270 C 
HETATM   26  N   UNL     1      38.219 -16.126  -2.672  1.00  0.00    -0.365 N 
HETATM   27  H   UNL     1      38.421 -16.215  -1.683  1.00  0.00     0.159 HD
HETATM   28  H   UNL     1      37.960 -16.920  -3.233  1.00  0.00     0.159 HD
HETATM   29  O   UNL     1      38.067 -14.726  -4.440  1.00  0.00    -0.266 OA
ENDBRANCH   8  25
TORSDOF 3
ENDMDL
MODEL 2
REMARK VINA RESULT:      -9.1      4.203      5.840
REMARK  3 active torsions:
REMARK  status: ('A' for Active; 'I' for Inactive)
REMARK    1  A    between atoms: C_3  and  C_4 
REMARK       I    between atoms: C_4  and  N_5 
REMARK    2  A    between atoms: N_5  and  C_6 
REMARK    3  A    between atoms: C_13  and  C_14 
REMARK       I    between atoms: C_14  and  N_15 
ROOT
HETATM    1  C   UNL     1      40.185 -13.258   3.964  1.00  0.00     0.036 A 
HETATM    2  C   UNL     1      40.028 -12.579   5.181  1.00  0.00     0.046 A 
HETATM    3  C   UNL     1      39.308 -11.363   5.214  1.00  0.00     0.030 A 
HETATM    4  C   UNL     1      38.777 -10.865   4.031  1.00  0.00     0.063 A 
HETATM    5  N   UNL     1      38.153  -9.700   4.375  1.00  0.00    -0.277 N 
HETATM    6  H   UNL     1      37.655  -9.065   3.760  1.00  0.00     0.189 HD
HETATM    7  N   UNL     1      38.227  -9.393   5.679  1.00  0.00    -0.168 NA
HETATM    8  C   UNL     1      38.939 -10.412   6.213  1.00  0.00     0.156 A 
HETATM    9  C   UNL     1      38.918 -11.510   2.802  1.00  0.00     0.034 A 
HETATM   10  C   UNL     1      39.632 -12.716   2.795  1.00  0.00     0.032 A 
ENDROOT
BRANCH   1  11
HETATM   11  N   UNL     1      40.885 -14.476   3.822  1.00  0.00    -0.322 N 
HETATM   12  C   UNL     1      42.204 -14.668   3.448  1.00  0.00     0.273 C 
HETATM   13  O   UNL     1      42.998 -13.765   3.212  1.00  0.00    -0.266 OA
HETATM   14  H   UNL     1      40.369 -15.308   4.067  1.00  0.00     0.169 HD
BRANCH  12  15
HETATM   15  C   UNL     1      42.597 -16.075   3.376  1.00  0.00     0.104 A 
HETATM   16  N   UNL     1      43.216 -16.771   4.406  1.00  0.00    -0.346 N 
HETATM   17  C   UNL     1      43.514 -16.212   5.712  1.00  0.00     0.156 C 
HETATM   18  C   UNL     1      43.495 -18.072   4.027  1.00  0.00     0.045 A 
HETATM   19  C   UNL     1      43.031 -18.222   2.720  1.00  0.00    -0.007 A 
HETATM   20  C   UNL     1      44.117 -19.131   4.710  1.00  0.00     0.030 A 
HETATM   21  C   UNL     1      42.482 -16.976   2.325  1.00  0.00     0.049 A 
HETATM   22  C   UNL     1      43.185 -19.464   2.072  1.00  0.00     0.014 A 
HETATM   23  C   UNL     1      43.799 -20.523   2.748  1.00  0.00     0.001 A 
HETATM   24  C   UNL     1      44.259 -20.356   4.049  1.00  0.00     0.002 A 
ENDBRANCH  12  15
ENDBRANCH   1  11
BRANCH   8  25
HETATM   25  C   UNL     1      39.245 -10.454   7.650  1.00  0.00     0.270 C 
HETATM   26  N   UNL     1      40.473  -9.944   7.975  1.00  0.00    -0.365 N 
HETATM   27  H   UNL     1      41.062  -9.588   7.231  1.00  0.00     0.159 HD
HETATM   28  H   UNL     1      40.768  -9.929   8.937  1.00  0.00     0.159 HD
HETATM   29  O   UNL     1      38.493 -10.895   8.512  1.00  0.00    -0.266 OA
ENDBRANCH   8  25
TORSDOF 3
ENDMDL
MODEL 3
REMARK VINA RESULT:      -8.9      4.912      7.543
REMARK  3 active torsions:
REMARK  status: ('A' for Active; 'I' for Inactive)
REMARK    1  A    between atoms: C_3  and  C_4 
REMARK       I    between atoms: C_4  and  N_5 
REMARK    2  A    between atoms: N_5  and  C_6 
REMARK    3  A    between atoms: C_13  and  C_14 
REMARK       I    between atoms: C_14  and  N_15 
ROOT
HETATM    1  C   UNL     1      42.749 -13.048   5.650  1.00  0.00     0.036 A 
HETATM    2  C   UNL     1      43.691 -12.383   6.447  1.00  0.00     0.046 A 
HETATM    3  C   UNL     1      43.410 -11.082   6.921  1.00  0.00     0.030 A 
HETATM    4  C   UNL     1      42.202 -10.489   6.577  1.00  0.00     0.063 A 
HETATM    5  N   UNL     1      42.221  -9.257   7.169  1.00  0.00    -0.277 N 
HETATM    6  H   UNL     1      41.498  -8.547   7.131  1.00  0.00     0.189 HD
HETATM    7  N   UNL     1      43.333  -8.993   7.871  1.00  0.00    -0.168 NA
HETATM    8  C   UNL     1      44.081 -10.113   7.727  1.00  0.00     0.156 A 
HETATM    9  C   UNL     1      41.243 -11.118   5.784  1.00  0.00     0.034 A 
HETATM   10  C   UNL     1      41.543 -12.409   5.329  1.00  0.00     0.032 A 
ENDROOT
BRANCH   1  11
HETATM   11  N   UNL     1      42.931 -14.347   5.126  1.00  0.00    -0.322 N 
HETATM   12  C   UNL     1      43.176 -14.715   3.815  1.00  0.00     0.273 C 
HETATM   13  O   UNL     1      43.313 -13.927   2.886  1.00  0.00    -0.266 OA
HETATM   14  H   UNL     1      42.924 -15.096   5.802  1.00  0.00     0.169 HD
BRANCH  12  15
HETATM   15  C   UNL     1      43.286 -16.160   3.619  1.00  0.00     0.104 A 
HETATM   16  N   UNL     1      43.819 -17.041   4.552  1.00  0.00    -0.346 N 
HETATM   17  C   UNL     1      44.297 -16.654   5.867  1.00  0.00     0.156 C 
HETATM   18  C   UNL     1      43.819 -18.337   4.066  1.00  0.00     0.045 A 
HETATM   19  C   UNL     1      43.258 -18.291   2.790  1.00  0.00    -0.007 A 
HETATM   20  C   UNL     1      44.265 -19.544   4.629  1.00  0.00     0.030 A 
HETATM   21  C   UNL     1      42.937 -16.937   2.521  1.00  0.00     0.049 A 
HETATM   22  C   UNL     1      43.131 -19.484   2.050  1.00  0.00     0.014 A 
HETATM   23  C   UNL     1      43.568 -20.690   2.606  1.00  0.00     0.001 A 
HETATM   24  C   UNL     1      44.128 -20.717   3.878  1.00  0.00     0.002 A 
ENDBRANCH  12  15
ENDBRANCH   1  11
BRANCH   8  25
HETATM   25  C   UNL     1      45.402 -10.229   8.359  1.00  0.00     0.270 C 
HETATM   26  N   UNL     1      46.419  -9.666   7.636  1.00  0.00    -0.365 N 
HETATM   27  H   UNL     1      46.198  -9.226   6.750  1.00  0.00     0.159 HD
HETATM   28  H   UNL     1      47.360  -9.696   7.992  1.00  0.00     0.159 HD
HETATM   29  O   UNL     1      45.617 -10.771   9.438  1.00  0.00    -0.266 OA
ENDBRANCH   8  25
TORSDOF 3
ENDMDL
MODEL 4
REMARK VINA RESULT:      -8.8      5.705      8.412
REMARK  3 active torsions:
REMARK  status: ('A' for Active; 'I' for Inactive)
REMARK    1  A    between atoms: C_3  and  C_4 
REMARK       I    between atoms: C_4  and  N_5 
REMARK    2  A    between atoms: N_5  and  C_6 
REMARK    3  A    between atoms: C_13  and  C_14 
REMARK       I    between atoms: C_14  and  N_15 
ROOT
HETATM    1  C   UNL     1      44.345 -11.958   6.784  1.00  0.00     0.036 A 
HETATM    2  C   UNL     1      43.282 -11.171   7.247  1.00  0.00     0.046 A 
HETATM    3  C   UNL     1      43.551  -9.941   7.887  1.00  0.00     0.030 A 
HETATM    4  C   UNL     1      44.873  -9.543   8.047  1.00  0.00     0.063 A 
HETATM    5  N   UNL     1      44.814  -8.338   8.690  1.00  0.00    -0.277 N 
HETATM    6  H   UNL     1      45.593  -7.754   8.971  1.00  0.00     0.189 HD
HETATM    7  N   UNL     1      43.571  -7.912   8.962  1.00  0.00    -0.168 NA
HETATM    8  C   UNL     1      42.777  -8.893   8.472  1.00  0.00     0.156 A 
HETATM    9  C   UNL     1      45.956 -10.301   7.603  1.00  0.00     0.034 A 
HETATM   10  C   UNL     1      45.663 -11.516   6.969  1.00  0.00     0.032 A 
ENDROOT
BRANCH   1  11
HETATM   11  N   UNL     1      44.185 -13.202   6.133  1.00  0.00    -0.322 N 
HETATM   12  C   UNL     1      43.582 -14.350   6.617  1.00  0.00     0.273 C 
HETATM   13  O   UNL     1      43.046 -14.444   7.714  1.00  0.00    -0.266 OA
HETATM   14  H   UNL     1      44.512 -13.242   5.180  1.00  0.00     0.169 HD
BRANCH  12  15
HETATM   15  C   UNL     1      43.616 -15.473   5.679  1.00  0.00     0.104 A 
HETATM   16  N   UNL     1      42.859 -15.547   4.517  1.00  0.00    -0.346 N 
HETATM   17  C   UNL     1      41.967 -14.503   4.049  1.00  0.00     0.156 C 
HETATM   18  C   UNL     1      43.082 -16.744   3.858  1.00  0.00     0.045 A 
HETATM   19  C   UNL     1      44.018 -17.453   4.609  1.00  0.00    -0.007 A 
HETATM   20  C   UNL     1      42.542 -17.270   2.672  1.00  0.00     0.030 A 
HETATM   21  C   UNL     1      44.338 -16.658   5.739  1.00  0.00     0.049 A 
HETATM   22  C   UNL     1      44.436 -18.725   4.168  1.00  0.00     0.014 A 
HETATM   23  C   UNL     1      43.907 -19.252   2.987  1.00  0.00     0.001 A 
HETATM   24  C   UNL     1      42.972 -18.533   2.251  1.00  0.00     0.002 A 
ENDBRANCH  12  15
ENDBRANCH   1  11
BRANCH   8  25
HETATM   25  C   UNL     1      41.314  -8.804   8.571  1.00  0.00     0.270 C 
HETATM   26  N   UNL     1      40.763  -9.662   9.486  1.00  0.00    -0.365 N 
HETATM   27  H   UNL     1      41.379 -10.272  10.009  1.00  0.00     0.159 HD
HETATM   28  H   UNL     1      39.766  -9.671   9.623  1.00  0.00     0.159 HD
HETATM   29  O   UNL     1      40.612  -8.043   7.914  1.00  0.00    -0.266 OA
ENDBRANCH   8  25
TORSDOF 3
ENDMDL
MODEL 5
REMARK VINA RESULT:      -8.7      2.576      8.822
REMARK  3 active torsions:
REMARK  status: ('A' for Active; 'I' for Inactive)
REMARK    1  A    between atoms: C_3  and  C_4 
REMARK       I    between atoms: C_4  and  N_5 
REMARK    2  A    between atoms: N_5  and  C_6 
REMARK    3  A    between atoms: C_13  and  C_14 
REMARK       I    between atoms: C_14  and  N_15 
ROOT
HETATM    1  C   UNL     1      42.558 -16.077   2.462  1.00  0.00     0.036 A 
HETATM    2  C   UNL     1      42.379 -15.972   3.848  1.00  0.00     0.046 A 
HETATM    3  C   UNL     1      42.877 -16.988   4.695  1.00  0.00     0.030 A 
HETATM    4  C   UNL     1      43.530 -18.075   4.128  1.00  0.00     0.063 A 
HETATM    5  N   UNL     1      43.886 -18.873   5.178  1.00  0.00    -0.277 N 
HETATM    6  H   UNL     1      44.381 -19.757   5.137  1.00  0.00     0.189 HD
HETATM    7  N   UNL     1      43.526 -18.404   6.382  1.00  0.00    -0.168 NA
HETATM    8  C   UNL     1      42.899 -17.237   6.101  1.00  0.00     0.156 A 
HETATM    9  C   UNL     1      43.723 -18.215   2.753  1.00  0.00     0.034 A 
HETATM   10  C   UNL     1      43.224 -17.193   1.935  1.00  0.00     0.032 A 
ENDROOT
BRANCH   1  11
HETATM   11  N   UNL     1      42.100 -15.120   1.529  1.00  0.00    -0.322 N 
HETATM   12  C   UNL     1      40.795 -14.833   1.169  1.00  0.00     0.273 C 
HETATM   13  O   UNL     1      39.805 -15.367   1.655  1.00  0.00    -0.266 OA
HETATM   14  H   UNL     1      42.813 -14.545   1.107  1.00  0.00     0.169 HD
BRANCH  12  15
HETATM   15  C   UNL     1      40.682 -13.794   0.145  1.00  0.00     0.104 A 
HETATM   16  N   UNL     1      40.991 -12.455   0.348  1.00  0.00    -0.346 N 
HETATM   17  C   UNL     1      41.513 -11.911   1.588  1.00  0.00     0.156 C 
HETATM   18  C   UNL     1      40.750 -11.713  -0.795  1.00  0.00     0.045 A 
HETATM   19  C   UNL     1      40.286 -12.601  -1.765  1.00  0.00    -0.007 A 
HETATM   20  C   UNL     1      40.894 -10.341  -1.064  1.00  0.00     0.030 A 
HETATM   21  C   UNL     1      40.242 -13.887  -1.170  1.00  0.00     0.049 A 
HETATM   22  C   UNL     1      39.957 -12.112  -3.046  1.00  0.00     0.014 A 
HETATM   23  C   UNL     1      40.102 -10.750  -3.322  1.00  0.00     0.001 A 
HETATM   24  C   UNL     1      40.563  -9.878  -2.342  1.00  0.00     0.002 A 
ENDBRANCH  12  15
ENDBRANCH   1  11
BRANCH   8  25
HETATM   25  C   UNL     1      42.345 -16.396   7.172  1.00  0.00     0.270 C 
HETATM   26  N   UNL     1      43.224 -16.137   8.189  1.00  0.00    -0.365 N 
HETATM   27  H   UNL     1      44.157 -16.527   8.134  1.00  0.00     0.159 HD
HETATM   28  H   UNL     1      42.932 -15.567   8.966  1.00  0.00     0.159 HD
HETATM   29  O   UNL     1      41.205 -15.946   7.189  1.00  0.00    -0.266 OA
ENDBRANCH   8  25
TORSDOF 3
ENDMDL
MODEL 6
REMARK VINA RESULT:      -8.6      2.438      8.588
REMARK  3 active torsions:
REMARK  status: ('A' for Active; 'I' for Inactive)
REMARK    1  A    between atoms: C_3  and  C_4 
REMARK       I    between atoms: C_4  and  N_5 
REMARK    2  A    between atoms: N_5  and  C_6 
REMARK    3  A    between atoms: C_13  and  C_14 
REMARK       I    between atoms: C_14  and  N_15 
ROOT
HETATM    1  C   UNL     1      41.153 -15.383   3.945  1.00  0.00     0.036 A 
HETATM    2  C   UNL     1      41.998 -16.491   4.097  1.00  0.00     0.046 A 
HETATM    3  C   UNL     1      42.496 -16.819   5.378  1.00  0.00     0.030 A 
HETATM    4  C   UNL     1      42.138 -16.026   6.460  1.00  0.00     0.063 A 
HETATM    5  N   UNL     1      42.764 -16.581   7.541  1.00  0.00    -0.277 N 
HETATM    6  H   UNL     1      42.728 -16.261   8.502  1.00  0.00     0.189 HD
HETATM    7  N   UNL     1      43.499 -17.668   7.261  1.00  0.00    -0.168 NA
HETATM    8  C   UNL     1      43.344 -17.829   5.926  1.00  0.00     0.156 A 
HETATM    9  C   UNL     1      41.303 -14.914   6.347  1.00  0.00     0.034 A 
HETATM   10  C   UNL     1      40.819 -14.611   5.067  1.00  0.00     0.032 A 
ENDROOT
BRANCH   1  11
HETATM   11  N   UNL     1      40.603 -14.970   2.711  1.00  0.00    -0.322 N 
HETATM   12  C   UNL     1      41.197 -14.205   1.722  1.00  0.00     0.273 C 
HETATM   13  O   UNL     1      42.349 -13.789   1.762  1.00  0.00    -0.266 OA
HETATM   14  H   UNL     1      39.677 -15.313   2.509  1.00  0.00     0.169 HD
BRANCH  12  15
HETATM   15  C   UNL     1      40.324 -13.940   0.578  1.00  0.00     0.104 A 
HETATM   16  N   UNL     1      39.554 -12.794   0.428  1.00  0.00    -0.346 N 
HETATM   17  C   UNL     1      39.545 -11.681   1.360  1.00  0.00     0.156 C 
HETATM   18  C   UNL     1      38.809 -12.848  -0.737  1.00  0.00     0.045 A 
HETATM   19  C   UNL     1      39.118 -14.057  -1.361  1.00  0.00    -0.007 A 
HETATM   20  C   UNL     1      37.888 -11.947  -1.298  1.00  0.00     0.030 A 
HETATM   21  C   UNL     1      40.053 -14.728  -0.533  1.00  0.00     0.049 A 
HETATM   22  C   UNL     1      38.496 -14.381  -2.583  1.00  0.00     0.014 A 
HETATM   23  C   UNL     1      37.582 -13.487  -3.149  1.00  0.00     0.001 A 
HETATM   24  C   UNL     1      37.283 -12.288  -2.513  1.00  0.00     0.002 A 
ENDBRANCH  12  15
ENDBRANCH   1  11
BRANCH   8  25
HETATM   25  C   UNL     1      44.001 -18.934   5.214  1.00  0.00     0.270 C 
HETATM   26  N   UNL     1      43.779 -20.166   5.768  1.00  0.00    -0.365 N 
HETATM   27  H   UNL     1      43.200 -20.227   6.597  1.00  0.00     0.159 HD
HETATM   28  H   UNL     1      44.188 -20.983   5.346  1.00  0.00     0.159 HD
HETATM   29  O   UNL     1      44.692 -18.807   4.209  1.00  0.00    -0.266 OA
ENDBRANCH   8  25
TORSDOF 3
ENDMDL
MODEL 7
REMARK VINA RESULT:      -8.5      2.224      3.465
REMARK  3 active torsions:
REMARK  status: ('A' for Active; 'I' for Inactive)
REMARK    1  A    between atoms: C_3  and  C_4 
REMARK       I    between atoms: C_4  and  N_5 
REMARK    2  A    between atoms: N_5  and  C_6 
REMARK    3  A    between atoms: C_13  and  C_14 
REMARK       I    between atoms: C_14  and  N_15 
ROOT
HETATM    1  C   UNL     1      40.530 -14.405   1.238  1.00  0.00     0.036 A 
HETATM    2  C   UNL     1      40.203 -13.238   1.942  1.00  0.00     0.046 A 
HETATM    3  C   UNL     1      39.526 -12.189   1.278  1.00  0.00     0.030 A 
HETATM    4  C   UNL     1      39.206 -12.342  -0.065  1.00  0.00     0.063 A 
HETATM    5  N   UNL     1      38.572 -11.184  -0.421  1.00  0.00    -0.277 N 
HETATM    6  H   UNL     1      38.198 -10.945  -1.332  1.00  0.00     0.189 HD
HETATM    7  N   UNL     1      38.447 -10.290   0.571  1.00  0.00    -0.168 NA
HETATM    8  C   UNL     1      39.033 -10.896   1.630  1.00  0.00     0.156 A 
HETATM    9  C   UNL     1      39.519 -13.487  -0.798  1.00  0.00     0.034 A 
HETATM   10  C   UNL     1      40.187 -14.513  -0.117  1.00  0.00     0.032 A 
ENDROOT
BRANCH   1  11
HETATM   11  N   UNL     1      41.204 -15.509   1.806  1.00  0.00    -0.322 N 
HETATM   12  C   UNL     1      42.567 -15.685   1.974  1.00  0.00     0.273 C 
HETATM   13  O   UNL     1      43.418 -14.857   1.673  1.00  0.00    -0.266 OA
HETATM   14  H   UNL     1      40.615 -16.239   2.174  1.00  0.00     0.169 HD
BRANCH  12  15
HETATM   15  C   UNL     1      42.924 -16.969   2.577  1.00  0.00     0.104 A 
HETATM   16  N   UNL     1      43.241 -17.145   3.918  1.00  0.00    -0.346 N 
HETATM   17  C   UNL     1      43.217 -16.089   4.913  1.00  0.00     0.156 C 
HETATM   18  C   UNL     1      43.569 -18.464   4.180  1.00  0.00     0.045 A 
HETATM   19  C   UNL     1      43.446 -19.159   2.977  1.00  0.00    -0.007 A 
HETATM   20  C   UNL     1      43.967 -19.109   5.363  1.00  0.00     0.030 A 
HETATM   21  C   UNL     1      43.052 -18.222   1.989  1.00  0.00     0.049 A 
HETATM   22  C   UNL     1      43.723 -20.541   2.948  1.00  0.00     0.014 A 
HETATM   23  C   UNL     1      44.115 -21.190   4.122  1.00  0.00     0.001 A 
HETATM   24  C   UNL     1      44.236 -20.481   5.312  1.00  0.00     0.002 A 
ENDBRANCH  12  15
ENDBRANCH   1  11
BRANCH   8  25
HETATM   25  C   UNL     1      39.105 -10.233   2.940  1.00  0.00     0.270 C 
HETATM   26  N   UNL     1      37.920  -9.686   3.354  1.00  0.00    -0.365 N 
HETATM   27  H   UNL     1      37.110  -9.773   2.753  1.00  0.00     0.159 HD
HETATM   28  H   UNL     1      37.873  -9.213   4.242  1.00  0.00     0.159 HD
HETATM   29  O   UNL     1      40.114 -10.157   3.631  1.00  0.00    -0.266 OA
ENDBRANCH   8  25
TORSDOF 3
ENDMDL
MODEL 8
REMARK VINA RESULT:      -8.5      2.156      3.062
REMARK  3 active torsions:
REMARK  status: ('A' for Active; 'I' for Inactive)
REMARK    1  A    between atoms: C_3  and  C_4 
REMARK       I    between atoms: C_4  and  N_5 
REMARK    2  A    between atoms: N_5  and  C_6 
REMARK    3  A    between atoms: C_13  and  C_14 
REMARK       I    between atoms: C_14  and  N_15 
ROOT
HETATM    1  C   UNL     1      39.694 -14.271  -0.273  1.00  0.00     0.036 A 
HETATM    2  C   UNL     1      39.075 -13.055   0.046  1.00  0.00     0.046 A 
HETATM    3  C   UNL     1      38.302 -12.388  -0.932  1.00  0.00     0.030 A 
HETATM    4  C   UNL     1      38.179 -12.957  -2.193  1.00  0.00     0.063 A 
HETATM    5  N   UNL     1      37.390 -12.097  -2.904  1.00  0.00    -0.277 N 
HETATM    6  H   UNL     1      37.091 -12.193  -3.868  1.00  0.00     0.189 HD
HETATM    7  N   UNL     1      36.984 -11.017  -2.218  1.00  0.00    -0.168 NA
HETATM    8  C   UNL     1      37.540 -11.182  -0.995  1.00  0.00     0.156 A 
HETATM    9  C   UNL     1      38.784 -14.163  -2.547  1.00  0.00     0.034 A 
HETATM   10  C   UNL     1      39.542 -14.806  -1.560  1.00  0.00     0.032 A 
ENDROOT
BRANCH   1  11
HETATM   11  N   UNL     1      40.487 -15.016   0.628  1.00  0.00    -0.322 N 
HETATM   12  C   UNL     1      41.609 -14.602   1.324  1.00  0.00     0.273 C 
HETATM   13  O   UNL     1      42.075 -13.469   1.284  1.00  0.00    -0.266 OA
HETATM   14  H   UNL     1      40.168 -15.953   0.820  1.00  0.00     0.169 HD
BRANCH  12  15
HETATM   15  C   UNL     1      42.205 -15.648   2.156  1.00  0.00     0.104 A 
HETATM   16  N   UNL     1      42.070 -15.725   3.536  1.00  0.00    -0.346 N 
HETATM   17  C   UNL     1      41.281 -14.807   4.337  1.00  0.00     0.156 C 
HETATM   18  C   UNL     1      42.775 -16.803   4.043  1.00  0.00     0.045 A 
HETATM   19  C   UNL     1      43.369 -17.445   2.958  1.00  0.00    -0.007 A 
HETATM   20  C   UNL     1      42.948 -17.269   5.357  1.00  0.00     0.030 A 
HETATM   21  C   UNL     1      43.014 -16.717   1.794  1.00  0.00     0.049 A 
HETATM   22  C   UNL     1      44.158 -18.591   3.183  1.00  0.00     0.014 A 
HETATM   23  C   UNL     1      44.331 -19.063   4.487  1.00  0.00     0.001 A 
HETATM   24  C   UNL     1      43.734 -18.409   5.558  1.00  0.00     0.002 A 
ENDBRANCH  12  15
ENDBRANCH   1  11
BRANCH   8  25
HETATM   25  C   UNL     1      37.330 -10.194   0.072  1.00  0.00     0.270 C 
HETATM   26  N   UNL     1      36.583 -10.657   1.122  1.00  0.00    -0.365 N 
HETATM   27  H   UNL     1      36.241 -11.610   1.091  1.00  0.00     0.159 HD
HETATM   28  H   UNL     1      36.389 -10.050   1.902  1.00  0.00     0.159 HD
HETATM   29  O   UNL     1      37.769  -9.050   0.064  1.00  0.00    -0.266 OA
ENDBRANCH   8  25
TORSDOF 3
ENDMDL
MODEL 9
REMARK VINA RESULT:      -8.2      5.287      7.248
REMARK  3 active torsions:
REMARK  status: ('A' for Active; 'I' for Inactive)
REMARK    1  A    between atoms: C_3  and  C_4 
REMARK       I    between atoms: C_4  and  N_5 
REMARK    2  A    between atoms: N_5  and  C_6 
REMARK    3  A    between atoms: C_13  and  C_14 
REMARK       I    between atoms: C_14  and  N_15 
ROOT
HETATM    1  C   UNL     1      43.245 -12.186   6.357  1.00  0.00     0.036 A 
HETATM    2  C   UNL     1      42.460 -11.112   5.916  1.00  0.00     0.046 A 
HETATM    3  C   UNL     1      42.537  -9.869   6.584  1.00  0.00     0.030 A 
HETATM    4  C   UNL     1      43.391  -9.745   7.673  1.00  0.00     0.063 A 
HETATM    5  N   UNL     1      43.248  -8.455   8.101  1.00  0.00    -0.277 N 
HETATM    6  H   UNL     1      43.721  -8.011   8.881  1.00  0.00     0.189 HD
HETATM    7  N   UNL     1      42.378  -7.724   7.388  1.00  0.00    -0.168 NA
HETATM    8  C   UNL     1      41.929  -8.585   6.445  1.00  0.00     0.156 A 
HETATM    9  C   UNL     1      44.184 -10.792   8.143  1.00  0.00     0.034 A 
HETATM   10  C   UNL     1      44.091 -12.013   7.462  1.00  0.00     0.032 A 
ENDROOT
BRANCH   1  11
HETATM   11  N   UNL     1      43.241 -13.466   5.762  1.00  0.00    -0.322 N 
HETATM   12  C   UNL     1      42.266 -14.446   5.842  1.00  0.00     0.273 C 
HETATM   13  O   UNL     1      41.204 -14.321   6.440  1.00  0.00    -0.266 OA
HETATM   14  H   UNL     1      44.029 -13.674   5.167  1.00  0.00     0.169 HD
BRANCH  12  15
HETATM   15  C   UNL     1      42.602 -15.672   5.119  1.00  0.00     0.104 A 
HETATM   16  N   UNL     1      43.211 -16.780   5.694  1.00  0.00    -0.346 N 
HETATM   17  C   UNL     1      43.555 -16.892   7.100  1.00  0.00     0.156 C 
HETATM   18  C   UNL     1      43.432 -17.769   4.751  1.00  0.00     0.045 A 
HETATM   19  C   UNL     1      42.939 -17.289   3.538  1.00  0.00    -0.007 A 
HETATM   20  C   UNL     1      44.024 -19.039   4.852  1.00  0.00     0.030 A 
HETATM   21  C   UNL     1      42.432 -15.986   3.777  1.00  0.00     0.049 A 
HETATM   22  C   UNL     1      43.032 -18.098   2.387  1.00  0.00     0.014 A 
HETATM   23  C   UNL     1      43.615 -19.365   2.481  1.00  0.00     0.001 A 
HETATM   24  C   UNL     1      44.105 -19.827   3.698  1.00  0.00     0.002 A 
ENDBRANCH  12  15
ENDBRANCH   1  11
BRANCH   8  25
HETATM   25  C   UNL     1      40.941  -8.163   5.442  1.00  0.00     0.270 C 
HETATM   26  N   UNL     1      41.459  -7.986   4.187  1.00  0.00    -0.365 N 
HETATM   27  H   UNL     1      42.448  -8.153   4.044  1.00  0.00     0.159 HD
HETATM   28  H   UNL     1      40.855  -7.699   3.434  1.00  0.00     0.159 HD
HETATM   29  O   UNL     1      39.750  -7.977   5.667  1.00  0.00    -0.266 OA
ENDBRANCH   8  25
TORSDOF 3
ENDMDL
MODEL 10
REMARK VINA RESULT:      -8.2      5.695      8.810
REMARK  3 active torsions:
REMARK  status: ('A' for Active; 'I' for Inactive)
REMARK    1  A    between atoms: C_3  and  C_4 
REMARK       I    between atoms: C_4  and  N_5 
REMARK    2  A    between atoms: N_5  and  C_6 
REMARK    3  A    between atoms: C_13  and  C_14 
REMARK       I    between atoms: C_14  and  N_15 
ROOT
HETATM    1  C   UNL     1      43.398 -14.189   6.293  1.00  0.00     0.036 A 
HETATM    2  C   UNL     1      42.756 -14.274   5.050  1.00  0.00     0.046 A 
HETATM    3  C   UNL     1      42.862 -15.461   4.290  1.00  0.00     0.030 A 
HETATM    4  C   UNL     1      43.610 -16.517   4.794  1.00  0.00     0.063 A 
HETATM    5  N   UNL     1      43.529 -17.503   3.851  1.00  0.00    -0.277 N 
HETATM    6  H   UNL     1      43.957 -18.421   3.885  1.00  0.00     0.189 HD
HETATM    7  N   UNL     1      42.793 -17.185   2.775  1.00  0.00    -0.168 NA
HETATM    8  C   UNL     1      42.374 -15.924   3.030  1.00  0.00     0.156 A 
HETATM    9  C   UNL     1      44.265 -16.467   6.025  1.00  0.00     0.034 A 
HETATM   10  C   UNL     1      44.142 -15.282   6.762  1.00  0.00     0.032 A 
ENDROOT
BRANCH   1  11
HETATM   11  N   UNL     1      43.356 -13.052   7.130  1.00  0.00    -0.322 N 
HETATM   12  C   UNL     1      44.245 -11.992   7.178  1.00  0.00     0.273 C 
HETATM   13  O   UNL     1      45.218 -11.866   6.445  1.00  0.00    -0.266 OA
HETATM   14  H   UNL     1      42.554 -12.985   7.736  1.00  0.00     0.169 HD
BRANCH  12  15
HETATM   15  C   UNL     1      43.911 -10.989   8.190  1.00  0.00     0.104 A 
HETATM   16  N   UNL     1      43.051  -9.919   7.981  1.00  0.00    -0.346 N 
HETATM   17  C   UNL     1      42.329  -9.674   6.746  1.00  0.00     0.156 C 
HETATM   18  C   UNL     1      42.962  -9.127   9.112  1.00  0.00     0.045 A 
HETATM   19  C   UNL     1      43.777  -9.711  10.082  1.00  0.00    -0.007 A 
HETATM   20  C   UNL     1      42.244  -7.947   9.372  1.00  0.00     0.030 A 
HETATM   21  C   UNL     1      44.365 -10.862   9.497  1.00  0.00     0.049 A 
HETATM   22  C   UNL     1      43.879  -9.108  11.351  1.00  0.00     0.014 A 
HETATM   23  C   UNL     1      43.164  -7.937  11.617  1.00  0.00     0.001 A 
HETATM   24  C   UNL     1      42.358  -7.366  10.639  1.00  0.00     0.002 A 
ENDBRANCH  12  15
ENDBRANCH   1  11
BRANCH   8  25
HETATM   25  C   UNL     1      41.522 -15.200   2.076  1.00  0.00     0.270 C 
HETATM   26  N   UNL     1      42.126 -14.939   0.875  1.00  0.00    -0.365 N 
HETATM   27  H   UNL     1      43.079 -15.251   0.734  1.00  0.00     0.159 HD
HETATM   28  H   UNL     1      41.617 -14.448   0.158  1.00  0.00     0.159 HD
HETATM   29  O   UNL     1      40.369 -14.846   2.295  1.00  0.00    -0.266 OA
ENDBRANCH   8  25
TORSDOF 3
ENDMDL
