MODEL 1
REMARK VINA RESULT:      -8.7      0.000      0.000
REMARK  6 active torsions:
REMARK  status: ('A' for Active; 'I' for Inactive)
REMARK    1  A    between atoms: C_3  and  C_4 
REMARK    2  A    between atoms: C_4  and  N_5 
REMARK    3  A    between atoms: C_4  and  C_9 
REMARK       I    between atoms: N_5  and  C_6 
REMARK       I    between atoms: C_6  and  N_7 
REMARK    4  A    between atoms: C_9  and  C_10 
REMARK       I    between atoms: C_10  and  N_11 
REMARK    5  A    between atoms: N_11  and  N_12 
REMARK       I    between atoms: N_12  and  C_13 
REMARK    6  A    between atoms: C_13  and  C_14 
ROOT
HETATM    1  C   UNL     1      43.648 -14.618   7.085  1.00  0.00     0.238 C 
HETATM    2  N   UNL     1      43.904 -13.323   6.695  1.00  0.00    -0.267 N 
HETATM    3  O   UNL     1      43.188 -14.882   8.195  1.00  0.00    -0.272 OA
HETATM    4  H   UNL     1      44.329 -13.044   5.812  1.00  0.00     0.190 HD
ENDROOT
BRANCH   1   5
HETATM    5  C   UNL     1      43.996 -15.676   6.066  1.00  0.00     0.134 C 
BRANCH   5   6
HETATM    6  C   UNL     1      42.773 -16.166   5.277  1.00  0.00     0.129 C 
BRANCH   6   7
HETATM    7  C   UNL     1      43.103 -17.348   4.371  1.00  0.00    -0.013 A 
HETATM    8  C   UNL     1      43.891 -18.418   4.843  1.00  0.00     0.011 A 
HETATM    9  C   UNL     1      44.226 -19.493   4.015  1.00  0.00     0.001 A 
HETATM   10  C   UNL     1      43.785 -19.525   2.697  1.00  0.00     0.002 A 
HETATM   11  C   UNL     1      43.015 -18.475   2.203  1.00  0.00     0.024 A 
HETATM   12  C   UNL     1      42.683 -17.393   3.026  1.00  0.00     0.042 A 
HETATM   13 CL   UNL     1      41.762 -16.120   2.300  1.00  0.00    -0.084 Cl
ENDBRANCH   6   7
BRANCH   6  14
HETATM   14  N   UNL     1      41.607 -16.419   6.126  1.00  0.00    -0.339 N 
HETATM   15  C   UNL     1      40.460 -15.705   6.179  1.00  0.00     0.292 C 
HETATM   16  N   UNL     1      40.191 -14.891   5.139  1.00  0.00    -0.254 NA
HETATM   17  O   UNL     1      39.696 -15.785   7.131  1.00  0.00    -0.254 OA
HETATM   18  H   UNL     1      40.356 -15.272   4.220  1.00  0.00     0.128 HD
HETATM   19  H   UNL     1      39.282 -14.453   5.230  1.00  0.00     0.128 HD
HETATM   20  H   UNL     1      41.766 -16.875   7.016  1.00  0.00     0.164 HD
ENDBRANCH   6  14
ENDBRANCH   5   6
ENDBRANCH   1   5
BRANCH   2  21
HETATM   21  N   UNL     1      43.557 -12.301   7.581  1.00  0.00    -0.263 N 
HETATM   22  C   UNL     1      44.475 -11.303   7.831  1.00  0.00     0.270 C 
HETATM   23  O   UNL     1      45.612 -11.327   7.365  1.00  0.00    -0.266 OA
HETATM   24  H   UNL     1      42.626 -12.362   7.987  1.00  0.00     0.190 HD
BRANCH  22  25
HETATM   25  C   UNL     1      44.033 -10.180   8.710  1.00  0.00     0.036 A 
HETATM   26  C   UNL     1      43.723  -8.908   8.204  1.00  0.00     0.057 A 
HETATM   27  C   UNL     1      43.347  -7.933   9.106  1.00  0.00     0.106 A 
HETATM   28  C   UNL     1      43.276  -8.174  10.458  1.00  0.00     0.105 A 
HETATM   29  O   UNL     1      43.020  -6.651   8.791  1.00  0.00    -0.323 OA
HETATM   30  O   UNL     1      42.893  -7.076  11.162  1.00  0.00    -0.323 OA
HETATM   31  C   UNL     1      43.580  -9.408  10.990  1.00  0.00     0.041 A 
HETATM   32  C   UNL     1      42.738  -6.111  10.099  1.00  0.00     0.352 A 
HETATM   33  C   UNL     1      43.964 -10.419  10.102  1.00  0.00     0.020 A 
ENDBRANCH  22  25
ENDBRANCH   2  21
TORSDOF 6
ENDMDL
MODEL 2
REMARK VINA RESULT:      -8.6      2.385      3.134
REMARK  6 active torsions:
REMARK  status: ('A' for Active; 'I' for Inactive)
REMARK    1  A    between atoms: C_3  and  C_4 
REMARK    2  A    between atoms: C_4  and  N_5 
REMARK    3  A    between atoms: C_4  and  C_9 
REMARK       I    between atoms: N_5  and  C_6 
REMARK       I    between atoms: C_6  and  N_7 
REMARK    4  A    between atoms: C_9  and  C_10 
REMARK       I    between atoms: C_10  and  N_11 
REMARK    5  A    between atoms: N_11  and  N_12 
REMARK       I    between atoms: N_12  and  C_13 
REMARK    6  A    between atoms: C_13  and  C_14 
ROOT
HETATM    1  C   UNL     1      41.687 -14.731   5.180  1.00  0.00     0.238 C 
HETATM    2  N   UNL     1      42.851 -14.079   4.841  1.00  0.00    -0.267 N 
HETATM    3  O   UNL     1      40.928 -14.295   6.043  1.00  0.00    -0.272 OA
HETATM    4  H   UNL     1      43.543 -14.413   4.172  1.00  0.00     0.190 HD
ENDROOT
BRANCH   1   5
HETATM    5  C   UNL     1      41.432 -16.020   4.436  1.00  0.00     0.134 C 
BRANCH   5   6
HETATM    6  C   UNL     1      42.392 -16.224   3.254  1.00  0.00     0.129 C 
BRANCH   6   7
HETATM    7  C   UNL     1      42.992 -17.626   3.230  1.00  0.00    -0.013 A 
HETATM    8  C   UNL     1      42.639 -18.543   2.218  1.00  0.00     0.011 A 
HETATM    9  C   UNL     1      43.158 -19.840   2.201  1.00  0.00     0.001 A 
HETATM   10  C   UNL     1      44.039 -20.255   3.194  1.00  0.00     0.002 A 
HETATM   11  C   UNL     1      44.393 -19.373   4.211  1.00  0.00     0.024 A 
HETATM   12  C   UNL     1      43.871 -18.074   4.237  1.00  0.00     0.042 A 
HETATM   13 CL   UNL     1      44.341 -17.076   5.569  1.00  0.00    -0.084 Cl
ENDBRANCH   6   7
BRANCH   6  14
HETATM   14  N   UNL     1      41.805 -15.843   1.968  1.00  0.00    -0.339 N 
HETATM   15  C   UNL     1      41.788 -14.613   1.406  1.00  0.00     0.292 C 
HETATM   16  N   UNL     1      42.669 -13.708   1.875  1.00  0.00    -0.254 NA
HETATM   17  O   UNL     1      41.004 -14.325   0.512  1.00  0.00    -0.254 OA
HETATM   18  H   UNL     1      43.609 -14.038   2.030  1.00  0.00     0.128 HD
HETATM   19  H   UNL     1      42.634 -12.842   1.350  1.00  0.00     0.128 HD
HETATM   20  H   UNL     1      41.014 -16.381   1.637  1.00  0.00     0.164 HD
ENDBRANCH   6  14
ENDBRANCH   5   6
ENDBRANCH   1   5
BRANCH   2  21
HETATM   21  N   UNL     1      43.113 -12.858   5.465  1.00  0.00    -0.263 N 
HETATM   22  C   UNL     1      43.974 -12.837   6.542  1.00  0.00     0.270 C 
HETATM   23  O   UNL     1      44.453 -13.864   7.018  1.00  0.00    -0.266 OA
HETATM   24  H   UNL     1      42.643 -12.047   5.070  1.00  0.00     0.190 HD
BRANCH  22  25
HETATM   25  C   UNL     1      44.301 -11.501   7.122  1.00  0.00     0.036 A 
HETATM   26  C   UNL     1      43.309 -10.585   7.507  1.00  0.00     0.057 A 
HETATM   27  C   UNL     1      43.721  -9.368   8.011  1.00  0.00     0.106 A 
HETATM   28  C   UNL     1      45.050  -9.038   8.134  1.00  0.00     0.105 A 
HETATM   29  O   UNL     1      42.898  -8.367   8.424  1.00  0.00    -0.323 OA
HETATM   30  O   UNL     1      45.229  -7.790   8.644  1.00  0.00    -0.323 OA
HETATM   31  C   UNL     1      46.049  -9.908   7.759  1.00  0.00     0.041 A 
HETATM   32  C   UNL     1      43.860  -7.367   8.820  1.00  0.00     0.352 A 
HETATM   33  C   UNL     1      45.666 -11.152   7.246  1.00  0.00     0.020 A 
ENDBRANCH  22  25
ENDBRANCH   2  21
TORSDOF 6
ENDMDL
MODEL 3
REMARK VINA RESULT:      -8.6      3.315      9.247
REMARK  6 active torsions:
REMARK  status: ('A' for Active; 'I' for Inactive)
REMARK    1  A    between atoms: C_3  and  C_4 
REMARK    2  A    between atoms: C_4  and  N_5 
REMARK    3  A    between atoms: C_4  and  C_9 
REMARK       I    between atoms: N_5  and  C_6 
REMARK       I    between atoms: C_6  and  N_7 
REMARK    4  A    between atoms: C_9  and  C_10 
REMARK       I    between atoms: C_10  and  N_11 
REMARK    5  A    between atoms: N_11  and  N_12 
REMARK       I    between atoms: N_12  and  C_13 
REMARK    6  A    between atoms: C_13  and  C_14 
ROOT
HETATM    1  C   UNL     1      42.731 -11.779   4.282  1.00  0.00     0.238 C 
HETATM    2  N   UNL     1      42.245 -12.922   4.874  1.00  0.00    -0.267 N 
HETATM    3  O   UNL     1      43.392 -11.816   3.245  1.00  0.00    -0.272 OA
HETATM    4  H   UNL     1      41.736 -12.961   5.755  1.00  0.00     0.190 HD
ENDROOT
BRANCH   1   5
HETATM    5  C   UNL     1      42.414 -10.494   5.009  1.00  0.00     0.134 C 
BRANCH   5   6
HETATM    6  C   UNL     1      42.205 -10.699   6.517  1.00  0.00     0.129 C 
BRANCH   6   7
HETATM    7  C   UNL     1      43.290 -10.025   7.349  1.00  0.00    -0.013 A 
HETATM    8  C   UNL     1      43.082  -8.745   7.902  1.00  0.00     0.011 A 
HETATM    9  C   UNL     1      44.078  -8.102   8.642  1.00  0.00     0.001 A 
HETATM   10  C   UNL     1      45.306  -8.720   8.846  1.00  0.00     0.002 A 
HETATM   11  C   UNL     1      45.542  -9.980   8.301  1.00  0.00     0.024 A 
HETATM   12  C   UNL     1      44.550 -10.624   7.553  1.00  0.00     0.042 A 
HETATM   13 CL   UNL     1      44.963 -12.165   6.883  1.00  0.00    -0.084 Cl
ENDBRANCH   6   7
BRANCH   6  14
HETATM   14  N   UNL     1      40.856 -10.345   6.960  1.00  0.00    -0.339 N 
HETATM   15  C   UNL     1      39.742 -11.109   6.891  1.00  0.00     0.292 C 
HETATM   16  N   UNL     1      39.913 -12.435   6.721  1.00  0.00    -0.254 NA
HETATM   17  O   UNL     1      38.622 -10.623   6.973  1.00  0.00    -0.254 OA
HETATM   18  H   UNL     1      40.633 -12.868   7.279  1.00  0.00     0.128 HD
HETATM   19  H   UNL     1      39.032 -12.935   6.752  1.00  0.00     0.128 HD
HETATM   20  H   UNL     1      40.599  -9.366   6.944  1.00  0.00     0.164 HD
ENDBRANCH   6  14
ENDBRANCH   5   6
ENDBRANCH   1   5
BRANCH   2  21
HETATM   21  N   UNL     1      42.469 -14.134   4.218  1.00  0.00    -0.263 N 
HETATM   22  C   UNL     1      43.076 -15.159   4.912  1.00  0.00     0.270 C 
HETATM   23  O   UNL     1      43.498 -15.015   6.058  1.00  0.00    -0.266 OA
HETATM   24  H   UNL     1      42.156 -14.181   3.251  1.00  0.00     0.190 HD
BRANCH  22  25
HETATM   25  C   UNL     1      43.212 -16.468   4.207  1.00  0.00     0.036 A 
HETATM   26  C   UNL     1      43.586 -17.645   4.874  1.00  0.00     0.057 A 
HETATM   27  C   UNL     1      43.705 -18.797   4.123  1.00  0.00     0.106 A 
HETATM   28  C   UNL     1      43.478 -18.814   2.767  1.00  0.00     0.105 A 
HETATM   29  O   UNL     1      44.062 -20.018   4.604  1.00  0.00    -0.323 OA
HETATM   30  O   UNL     1      43.659 -20.048   2.226  1.00  0.00    -0.323 OA
HETATM   31  C   UNL     1      43.117 -17.677   2.079  1.00  0.00     0.041 A 
HETATM   32  C   UNL     1      44.036 -20.806   3.395  1.00  0.00     0.352 A 
HETATM   33  C   UNL     1      42.986 -16.492   2.811  1.00  0.00     0.020 A 
ENDBRANCH  22  25
ENDBRANCH   2  21
TORSDOF 6
ENDMDL
MODEL 4
REMARK VINA RESULT:      -8.5      3.205      9.758
REMARK  6 active torsions:
REMARK  status: ('A' for Active; 'I' for Inactive)
REMARK    1  A    between atoms: C_3  and  C_4 
REMARK    2  A    between atoms: C_4  and  N_5 
REMARK    3  A    between atoms: C_4  and  C_9 
REMARK       I    between atoms: N_5  and  C_6 
REMARK       I    between atoms: C_6  and  N_7 
REMARK    4  A    between atoms: C_9  and  C_10 
REMARK       I    between atoms: C_10  and  N_11 
REMARK    5  A    between atoms: N_11  and  N_12 
REMARK       I    between atoms: N_12  and  C_13 
REMARK    6  A    between atoms: C_13  and  C_14 
ROOT
HETATM    1  C   UNL     1      43.167 -11.363   6.668  1.00  0.00     0.238 C 
HETATM    2  N   UNL     1      42.918 -12.626   7.153  1.00  0.00    -0.267 N 
HETATM    3  O   UNL     1      43.676 -11.181   5.564  1.00  0.00    -0.272 OA
HETATM    4  H   UNL     1      42.546 -12.843   8.076  1.00  0.00     0.190 HD
ENDROOT
BRANCH   1   5
HETATM    5  C   UNL     1      42.793 -10.232   7.597  1.00  0.00     0.134 C 
BRANCH   5   6
HETATM    6  C   UNL     1      43.995  -9.683   8.379  1.00  0.00     0.129 C 
BRANCH   6   7
HETATM    7  C   UNL     1      43.663  -9.422   9.844  1.00  0.00    -0.013 A 
HETATM    8  C   UNL     1      43.546 -10.491  10.757  1.00  0.00     0.011 A 
HETATM    9  C   UNL     1      43.213 -10.269  12.096  1.00  0.00     0.001 A 
HETATM   10  C   UNL     1      42.986  -8.976  12.556  1.00  0.00     0.002 A 
HETATM   11  C   UNL     1      43.083  -7.905  11.672  1.00  0.00     0.024 A 
HETATM   12  C   UNL     1      43.410  -8.123  10.328  1.00  0.00     0.042 A 
HETATM   13 CL   UNL     1      43.459  -6.727   9.307  1.00  0.00    -0.084 Cl
ENDBRANCH   6   7
BRANCH   6  14
HETATM   14  N   UNL     1      45.203 -10.492   8.213  1.00  0.00    -0.339 N 
HETATM   15  C   UNL     1      46.375 -10.112   7.655  1.00  0.00     0.292 C 
HETATM   16  N   UNL     1      46.604  -8.789   7.540  1.00  0.00    -0.254 NA
HETATM   17  O   UNL     1      47.196 -10.931   7.264  1.00  0.00    -0.254 OA
HETATM   18  H   UNL     1      46.367  -8.224   8.341  1.00  0.00     0.128 HD
HETATM   19  H   UNL     1      47.531  -8.598   7.179  1.00  0.00     0.128 HD
HETATM   20  H   UNL     1      45.087 -11.493   8.114  1.00  0.00     0.164 HD
ENDBRANCH   6  14
ENDBRANCH   5   6
ENDBRANCH   1   5
BRANCH   2  21
HETATM   21  N   UNL     1      43.202 -13.707   6.316  1.00  0.00    -0.263 N 
HETATM   22  C   UNL     1      43.028 -14.985   6.804  1.00  0.00     0.270 C 
HETATM   23  O   UNL     1      42.710 -15.203   7.971  1.00  0.00    -0.266 OA
HETATM   24  H   UNL     1      43.520 -13.471   5.379  1.00  0.00     0.190 HD
BRANCH  22  25
HETATM   25  C   UNL     1      43.251 -16.111   5.849  1.00  0.00     0.036 A 
HETATM   26  C   UNL     1      43.563 -17.410   6.280  1.00  0.00     0.057 A 
HETATM   27  C   UNL     1      43.773 -18.373   5.313  1.00  0.00     0.106 A 
HETATM   28  C   UNL     1      43.691 -18.092   3.970  1.00  0.00     0.105 A 
HETATM   29  O   UNL     1      44.088 -19.674   5.552  1.00  0.00    -0.323 OA
HETATM   30  O   UNL     1      43.941 -19.181   3.196  1.00  0.00    -0.323 OA
HETATM   31  C   UNL     1      43.395 -16.827   3.512  1.00  0.00     0.041 A 
HETATM   32  C   UNL     1      44.199 -20.180   4.206  1.00  0.00     0.352 A 
HETATM   33  C   UNL     1      43.175 -15.828   4.466  1.00  0.00     0.020 A 
ENDBRANCH  22  25
ENDBRANCH   2  21
TORSDOF 6
ENDMDL
MODEL 5
REMARK VINA RESULT:      -8.4      5.127      8.195
REMARK  6 active torsions:
REMARK  status: ('A' for Active; 'I' for Inactive)
REMARK    1  A    between atoms: C_3  and  C_4 
REMARK    2  A    between atoms: C_4  and  N_5 
REMARK    3  A    between atoms: C_4  and  C_9 
REMARK       I    between atoms: N_5  and  C_6 
REMARK       I    between atoms: C_6  and  N_7 
REMARK    4  A    between atoms: C_9  and  C_10 
REMARK       I    between atoms: C_10  and  N_11 
REMARK    5  A    between atoms: N_11  and  N_12 
REMARK       I    between atoms: N_12  and  C_13 
REMARK    6  A    between atoms: C_13  and  C_14 
ROOT
HETATM    1  C   UNL     1      40.561 -15.100   4.383  1.00  0.00     0.238 C 
HETATM    2  N   UNL     1      39.871 -15.670   3.338  1.00  0.00    -0.267 N 
HETATM    3  O   UNL     1      40.877 -13.912   4.381  1.00  0.00    -0.272 OA
HETATM    4  H   UNL     1      39.625 -16.655   3.259  1.00  0.00     0.190 HD
ENDROOT
BRANCH   1   5
HETATM    5  C   UNL     1      40.917 -16.043   5.508  1.00  0.00     0.134 C 
BRANCH   5   6
HETATM    6  C   UNL     1      42.434 -16.182   5.709  1.00  0.00     0.129 C 
BRANCH   6   7
HETATM    7  C   UNL     1      43.051 -17.210   4.766  1.00  0.00    -0.013 A 
HETATM    8  C   UNL     1      43.115 -16.967   3.379  1.00  0.00     0.011 A 
HETATM    9  C   UNL     1      43.651 -17.912   2.500  1.00  0.00     0.001 A 
HETATM   10  C   UNL     1      44.135 -19.122   2.984  1.00  0.00     0.002 A 
HETATM   11  C   UNL     1      44.073 -19.391   4.349  1.00  0.00     0.024 A 
HETATM   12  C   UNL     1      43.530 -18.451   5.232  1.00  0.00     0.042 A 
HETATM   13 CL   UNL     1      43.460 -18.905   6.900  1.00  0.00    -0.084 Cl
ENDBRANCH   6   7
BRANCH   6  14
HETATM   14  N   UNL     1      43.135 -14.898   5.677  1.00  0.00    -0.339 N 
HETATM   15  C   UNL     1      43.328 -14.042   6.705  1.00  0.00     0.292 C 
HETATM   16  N   UNL     1      43.176 -14.531   7.952  1.00  0.00    -0.254 NA
HETATM   17  O   UNL     1      43.624 -12.869   6.520  1.00  0.00    -0.254 OA
HETATM   18  H   UNL     1      43.588 -15.434   8.131  1.00  0.00     0.128 HD
HETATM   19  H   UNL     1      43.409 -13.842   8.657  1.00  0.00     0.128 HD
HETATM   20  H   UNL     1      43.136 -14.387   4.803  1.00  0.00     0.164 HD
ENDBRANCH   6  14
ENDBRANCH   5   6
ENDBRANCH   1   5
BRANCH   2  21
HETATM   21  N   UNL     1      39.475 -14.833   2.293  1.00  0.00    -0.263 N 
HETATM   22  C   UNL     1      40.259 -14.772   1.160  1.00  0.00     0.270 C 
HETATM   23  O   UNL     1      41.332 -15.367   1.074  1.00  0.00    -0.266 OA
HETATM   24  H   UNL     1      38.611 -14.316   2.440  1.00  0.00     0.190 HD
BRANCH  22  25
HETATM   25  C   UNL     1      39.754 -13.940   0.029  1.00  0.00     0.036 A 
HETATM   26  C   UNL     1      39.576 -12.552   0.139  1.00  0.00     0.057 A 
HETATM   27  C   UNL     1      39.080 -11.880  -0.960  1.00  0.00     0.106 A 
HETATM   28  C   UNL     1      38.759 -12.526  -2.130  1.00  0.00     0.105 A 
HETATM   29  O   UNL     1      38.842 -10.542  -1.025  1.00  0.00    -0.323 OA
HETATM   30  O   UNL     1      38.282 -11.676  -3.078  1.00  0.00    -0.323 OA
HETATM   31  C   UNL     1      38.914 -13.887  -2.271  1.00  0.00     0.041 A 
HETATM   32  C   UNL     1      38.331 -10.420  -2.369  1.00  0.00     0.352 A 
HETATM   33  C   UNL     1      39.415 -14.599  -1.175  1.00  0.00     0.020 A 
ENDBRANCH  22  25
ENDBRANCH   2  21
TORSDOF 6
ENDMDL
MODEL 6
REMARK VINA RESULT:      -8.3      2.091      2.857
REMARK  6 active torsions:
REMARK  status: ('A' for Active; 'I' for Inactive)
REMARK    1  A    between atoms: C_3  and  C_4 
REMARK    2  A    between atoms: C_4  and  N_5 
REMARK    3  A    between atoms: C_4  and  C_9 
REMARK       I    between atoms: N_5  and  C_6 
REMARK       I    between atoms: C_6  and  N_7 
REMARK    4  A    between atoms: C_9  and  C_10 
REMARK       I    between atoms: C_10  and  N_11 
REMARK    5  A    between atoms: N_11  and  N_12 
REMARK       I    between atoms: N_12  and  C_13 
REMARK    6  A    between atoms: C_13  and  C_14 
ROOT
HETATM    1  C   UNL     1      43.359 -11.593   7.017  1.00  0.00     0.238 C 
HETATM    2  N   UNL     1      43.632 -11.528   8.364  1.00  0.00    -0.267 N 
HETATM    3  O   UNL     1      42.739 -10.702   6.438  1.00  0.00    -0.272 OA
HETATM    4  H   UNL     1      44.095 -12.253   8.910  1.00  0.00     0.190 HD
ENDROOT
BRANCH   1   5
HETATM    5  C   UNL     1      43.850 -12.839   6.321  1.00  0.00     0.134 C 
BRANCH   5   6
HETATM    6  C   UNL     1      42.705 -13.720   5.800  1.00  0.00     0.129 C 
BRANCH   6   7
HETATM    7  C   UNL     1      43.061 -15.203   5.821  1.00  0.00    -0.013 A 
HETATM    8  C   UNL     1      43.225 -15.887   7.043  1.00  0.00     0.011 A 
HETATM    9  C   UNL     1      43.579 -17.239   7.077  1.00  0.00     0.001 A 
HETATM   10  C   UNL     1      43.780 -17.939   5.892  1.00  0.00     0.002 A 
HETATM   11  C   UNL     1      43.636 -17.284   4.672  1.00  0.00     0.024 A 
HETATM   12  C   UNL     1      43.288 -15.929   4.634  1.00  0.00     0.042 A 
HETATM   13 CL   UNL     1      43.180 -15.201   3.067  1.00  0.00    -0.084 Cl
ENDBRANCH   6   7
BRANCH   6  14
HETATM   14  N   UNL     1      41.426 -13.441   6.454  1.00  0.00    -0.339 N 
HETATM   15  C   UNL     1      40.212 -13.330   5.869  1.00  0.00     0.292 C 
HETATM   16  N   UNL     1      40.073 -13.850   4.633  1.00  0.00    -0.254 NA
HETATM   17  O   UNL     1      39.275 -12.777   6.429  1.00  0.00    -0.254 OA
HETATM   18  H   UNL     1      40.482 -14.759   4.483  1.00  0.00     0.128 HD
HETATM   19  H   UNL     1      39.117 -13.785   4.304  1.00  0.00     0.128 HD
HETATM   20  H   UNL     1      41.445 -12.894   7.306  1.00  0.00     0.164 HD
ENDBRANCH   6  14
ENDBRANCH   5   6
ENDBRANCH   1   5
BRANCH   2  21
HETATM   21  N   UNL     1      43.241 -10.375   9.048  1.00  0.00    -0.263 N 
HETATM   22  C   UNL     1      43.530 -10.272  10.392  1.00  0.00     0.270 C 
HETATM   23  O   UNL     1      44.047 -11.193  11.023  1.00  0.00    -0.266 OA
HETATM   24  H   UNL     1      42.762  -9.670   8.492  1.00  0.00     0.190 HD
BRANCH  22  25
HETATM   25  C   UNL     1      43.180  -8.987  11.065  1.00  0.00     0.036 A 
HETATM   26  C   UNL     1      42.858  -7.826  10.345  1.00  0.00     0.057 A 
HETATM   27  C   UNL     1      42.571  -6.683  11.066  1.00  0.00     0.106 A 
HETATM   28  C   UNL     1      42.601  -6.658  12.440  1.00  0.00     0.105 A 
HETATM   29  O   UNL     1      42.246  -5.476  10.532  1.00  0.00    -0.323 OA
HETATM   30  O   UNL     1      42.296  -5.432  12.943  1.00  0.00    -0.323 OA
HETATM   31  C   UNL     1      42.921  -7.776  13.178  1.00  0.00     0.041 A 
HETATM   32  C   UNL     1      42.078  -4.685  11.727  1.00  0.00     0.352 A 
HETATM   33  C   UNL     1      43.215  -8.951  12.478  1.00  0.00     0.020 A 
ENDBRANCH  22  25
ENDBRANCH   2  21
TORSDOF 6
ENDMDL
MODEL 7
REMARK VINA RESULT:      -8.1      1.532      2.236
REMARK  6 active torsions:
REMARK  status: ('A' for Active; 'I' for Inactive)
REMARK    1  A    between atoms: C_3  and  C_4 
REMARK    2  A    between atoms: C_4  and  N_5 
REMARK    3  A    between atoms: C_4  and  C_9 
REMARK       I    between atoms: N_5  and  C_6 
REMARK       I    between atoms: C_6  and  N_7 
REMARK    4  A    between atoms: C_9  and  C_10 
REMARK       I    between atoms: C_10  and  N_11 
REMARK    5  A    between atoms: N_11  and  N_12 
REMARK       I    between atoms: N_12  and  C_13 
REMARK    6  A    between atoms: C_13  and  C_14 
ROOT
HETATM    1  C   UNL     1      43.669 -13.949   6.966  1.00  0.00     0.238 C 
HETATM    2  N   UNL     1      43.874 -12.590   6.896  1.00  0.00    -0.267 N 
HETATM    3  O   UNL     1      43.240 -14.488   7.985  1.00  0.00    -0.272 OA
HETATM    4  H   UNL     1      44.272 -12.092   6.101  1.00  0.00     0.190 HD
ENDROOT
BRANCH   1   5
HETATM    5  C   UNL     1      44.030 -14.718   5.718  1.00  0.00     0.134 C 
BRANCH   5   6
HETATM    6  C   UNL     1      42.802 -15.297   5.000  1.00  0.00     0.129 C 
BRANCH   6   7
HETATM    7  C   UNL     1      43.120 -16.592   4.261  1.00  0.00    -0.013 A 
HETATM    8  C   UNL     1      42.965 -16.679   2.862  1.00  0.00     0.011 A 
HETATM    9  C   UNL     1      43.224 -17.868   2.175  1.00  0.00     0.001 A 
HETATM   10  C   UNL     1      43.643 -18.999   2.867  1.00  0.00     0.002 A 
HETATM   11  C   UNL     1      43.793 -18.943   4.250  1.00  0.00     0.024 A 
HETATM   12  C   UNL     1      43.527 -17.756   4.943  1.00  0.00     0.042 A 
HETATM   13 CL   UNL     1      43.701 -17.809   6.664  1.00  0.00    -0.084 Cl
ENDBRANCH   6   7
BRANCH   6  14
HETATM   14  N   UNL     1      41.635 -15.423   5.875  1.00  0.00    -0.339 N 
HETATM   15  C   UNL     1      40.461 -14.760   5.779  1.00  0.00     0.292 C 
HETATM   16  N   UNL     1      40.176 -14.179   4.596  1.00  0.00    -0.254 NA
HETATM   17  O   UNL     1      39.686 -14.681   6.723  1.00  0.00    -0.254 OA
HETATM   18  H   UNL     1      40.368 -14.727   3.772  1.00  0.00     0.128 HD
HETATM   19  H   UNL     1      39.249 -13.768   4.593  1.00  0.00     0.128 HD
HETATM   20  H   UNL     1      41.798 -15.689   6.839  1.00  0.00     0.164 HD
ENDBRANCH   6  14
ENDBRANCH   5   6
ENDBRANCH   1   5
BRANCH   2  21
HETATM   21  N   UNL     1      43.513 -11.824   8.006  1.00  0.00    -0.263 N 
HETATM   22  C   UNL     1      44.385 -10.854   8.453  1.00  0.00     0.270 C 
HETATM   23  O   UNL     1      45.500 -10.698   7.959  1.00  0.00    -0.266 OA
HETATM   24  H   UNL     1      42.605 -12.035   8.416  1.00  0.00     0.190 HD
BRANCH  22  25
HETATM   25  C   UNL     1      43.922  -9.994   9.582  1.00  0.00     0.036 A 
HETATM   26  C   UNL     1      43.543 -10.526  10.825  1.00  0.00     0.057 A 
HETATM   27  C   UNL     1      43.108  -9.644  11.794  1.00  0.00     0.106 A 
HETATM   28  C   UNL     1      43.033  -8.289  11.571  1.00  0.00     0.105 A 
HETATM   29  O   UNL     1      42.699  -9.986  13.045  1.00  0.00    -0.323 OA
HETATM   30  O   UNL     1      42.572  -7.610  12.654  1.00  0.00    -0.323 OA
HETATM   31  C   UNL     1      43.390  -7.734  10.362  1.00  0.00     0.041 A 
HETATM   32  C   UNL     1      42.356  -8.693  13.584  1.00  0.00     0.352 A 
HETATM   33  C   UNL     1      43.837  -8.601   9.358  1.00  0.00     0.020 A 
ENDBRANCH  22  25
ENDBRANCH   2  21
TORSDOF 6
ENDMDL
MODEL 8
REMARK VINA RESULT:      -8.1      2.108      2.744
REMARK  6 active torsions:
REMARK  status: ('A' for Active; 'I' for Inactive)
REMARK    1  A    between atoms: C_3  and  C_4 
REMARK    2  A    between atoms: C_4  and  N_5 
REMARK    3  A    between atoms: C_4  and  C_9 
REMARK       I    between atoms: N_5  and  C_6 
REMARK       I    between atoms: C_6  and  N_7 
REMARK    4  A    between atoms: C_9  and  C_10 
REMARK       I    between atoms: C_10  and  N_11 
REMARK    5  A    between atoms: N_11  and  N_12 
REMARK       I    between atoms: N_12  and  C_13 
REMARK    6  A    between atoms: C_13  and  C_14 
ROOT
HETATM    1  C   UNL     1      43.588 -12.708   6.610  1.00  0.00     0.238 C 
HETATM    2  N   UNL     1      43.376 -11.386   6.927  1.00  0.00    -0.267 N 
HETATM    3  O   UNL     1      43.729 -13.569   7.477  1.00  0.00    -0.272 OA
HETATM    4  H   UNL     1      43.302 -10.621   6.259  1.00  0.00     0.190 HD
ENDROOT
BRANCH   1   5
HETATM    5  C   UNL     1      43.659 -13.010   5.132  1.00  0.00     0.134 C 
BRANCH   5   6
HETATM    6  C   UNL     1      42.440 -13.796   4.627  1.00  0.00     0.129 C 
BRANCH   6   7
HETATM    7  C   UNL     1      42.822 -15.165   4.073  1.00  0.00    -0.013 A 
HETATM    8  C   UNL     1      43.312 -16.175   4.926  1.00  0.00     0.011 A 
HETATM    9  C   UNL     1      43.693 -17.424   4.428  1.00  0.00     0.001 A 
HETATM   10  C   UNL     1      43.596 -17.693   3.067  1.00  0.00     0.002 A 
HETATM   11  C   UNL     1      43.126 -16.709   2.202  1.00  0.00     0.024 A 
HETATM   12  C   UNL     1      42.750 -15.454   2.695  1.00  0.00     0.042 A 
HETATM   13 CL   UNL     1      42.224 -14.289   1.529  1.00  0.00    -0.084 Cl
ENDBRANCH   6   7
BRANCH   6  14
HETATM   14  N   UNL     1      41.360 -13.870   5.611  1.00  0.00    -0.339 N 
HETATM   15  C   UNL     1      40.090 -13.424   5.473  1.00  0.00     0.292 C 
HETATM   16  N   UNL     1      39.650 -13.196   4.220  1.00  0.00    -0.254 NA
HETATM   17  O   UNL     1      39.368 -13.229   6.441  1.00  0.00    -0.254 OA
HETATM   18  H   UNL     1      39.882 -13.895   3.531  1.00  0.00     0.128 HD
HETATM   19  H   UNL     1      38.671 -12.934   4.207  1.00  0.00     0.128 HD
HETATM   20  H   UNL     1      41.617 -13.867   6.590  1.00  0.00     0.164 HD
ENDBRANCH   6  14
ENDBRANCH   5   6
ENDBRANCH   1   5
BRANCH   2  21
HETATM   21  N   UNL     1      43.255 -11.058   8.279  1.00  0.00    -0.263 N 
HETATM   22  C   UNL     1      43.012  -9.745   8.622  1.00  0.00     0.270 C 
HETATM   23  O   UNL     1      42.978  -8.845   7.785  1.00  0.00    -0.266 OA
HETATM   24  H   UNL     1      43.352 -11.831   8.934  1.00  0.00     0.190 HD
BRANCH  22  25
HETATM   25  C   UNL     1      42.796  -9.451  10.070  1.00  0.00     0.036 A 
HETATM   26  C   UNL     1      41.579  -9.718  10.717  1.00  0.00     0.057 A 
HETATM   27  C   UNL     1      41.477  -9.386  12.053  1.00  0.00     0.106 A 
HETATM   28  C   UNL     1      42.514  -8.808  12.745  1.00  0.00     0.105 A 
HETATM   29  O   UNL     1      40.375  -9.570  12.829  1.00  0.00    -0.323 OA
HETATM   30  O   UNL     1      42.196  -8.558  14.043  1.00  0.00    -0.323 OA
HETATM   31  C   UNL     1      43.719  -8.525  12.140  1.00  0.00     0.041 A 
HETATM   32  C   UNL     1      40.835  -9.037  14.088  1.00  0.00     0.352 A 
HETATM   33  C   UNL     1      43.856  -8.850  10.786  1.00  0.00     0.020 A 
ENDBRANCH  22  25
ENDBRANCH   2  21
TORSDOF 6
ENDMDL
MODEL 9
REMARK VINA RESULT:      -8.0     17.319     19.004
REMARK  6 active torsions:
REMARK  status: ('A' for Active; 'I' for Inactive)
REMARK    1  A    between atoms: C_3  and  C_4 
REMARK    2  A    between atoms: C_4  and  N_5 
REMARK    3  A    between atoms: C_4  and  C_9 
REMARK       I    between atoms: N_5  and  C_6 
REMARK       I    between atoms: C_6  and  N_7 
REMARK    4  A    between atoms: C_9  and  C_10 
REMARK       I    between atoms: C_10  and  N_11 
REMARK    5  A    between atoms: N_11  and  N_12 
REMARK       I    between atoms: N_12  and  C_13 
REMARK    6  A    between atoms: C_13  and  C_14 
ROOT
HETATM    1  C   UNL     1      45.675 -29.189   2.350  1.00  0.00     0.238 C 
HETATM    2  N   UNL     1      44.341 -28.884   2.216  1.00  0.00    -0.267 N 
HETATM    3  O   UNL     1      46.074 -30.003   3.181  1.00  0.00    -0.272 OA
HETATM    4  H   UNL     1      43.954 -28.185   1.584  1.00  0.00     0.190 HD
ENDROOT
BRANCH   1   5
HETATM    5  C   UNL     1      46.603 -28.437   1.426  1.00  0.00     0.134 C 
BRANCH   5   6
HETATM    6  C   UNL     1      47.087 -29.291   0.245  1.00  0.00     0.129 C 
BRANCH   6   7
HETATM    7  C   UNL     1      46.172 -29.173  -0.969  1.00  0.00    -0.013 A 
HETATM    8  C   UNL     1      46.302 -28.093  -1.866  1.00  0.00     0.011 A 
HETATM    9  C   UNL     1      45.451 -27.956  -2.967  1.00  0.00     0.001 A 
HETATM   10  C   UNL     1      44.449 -28.893  -3.197  1.00  0.00     0.002 A 
HETATM   11  C   UNL     1      44.292 -29.962  -2.319  1.00  0.00     0.024 A 
HETATM   12  C   UNL     1      45.137 -30.099  -1.212  1.00  0.00     0.042 A 
HETATM   13 CL   UNL     1      44.826 -31.438  -0.161  1.00  0.00    -0.084 Cl
ENDBRANCH   6   7
BRANCH   6  14
HETATM   14  N   UNL     1      48.494 -29.061  -0.088  1.00  0.00    -0.339 N 
HETATM   15  C   UNL     1      49.451 -29.993  -0.298  1.00  0.00     0.292 C 
HETATM   16  N   UNL     1      49.041 -31.248  -0.568  1.00  0.00    -0.254 NA
HETATM   17  O   UNL     1      50.641 -29.716  -0.241  1.00  0.00    -0.254 OA
HETATM   18  H   UNL     1      48.278 -31.338  -1.221  1.00  0.00     0.128 HD
HETATM   19  H   UNL     1      49.820 -31.860  -0.780  1.00  0.00     0.128 HD
HETATM   20  H   UNL     1      48.919 -28.203   0.242  1.00  0.00     0.164 HD
ENDBRANCH   6  14
ENDBRANCH   5   6
ENDBRANCH   1   5
BRANCH   2  21
HETATM   21  N   UNL     1      43.434 -29.585   3.014  1.00  0.00    -0.263 N 
HETATM   22  C   UNL     1      42.224 -29.959   2.469  1.00  0.00     0.270 C 
HETATM   23  O   UNL     1      41.887 -29.627   1.335  1.00  0.00    -0.266 OA
HETATM   24  H   UNL     1      43.739 -29.780   3.965  1.00  0.00     0.190 HD
BRANCH  22  25
HETATM   25  C   UNL     1      41.323 -30.787   3.324  1.00  0.00     0.036 A 
HETATM   26  C   UNL     1      41.343 -30.717   4.725  1.00  0.00     0.057 A 
HETATM   27  C   UNL     1      40.484 -31.544   5.421  1.00  0.00     0.106 A 
HETATM   28  C   UNL     1      39.634 -32.419   4.786  1.00  0.00     0.105 A 
HETATM   29  O   UNL     1      40.377 -31.609   6.775  1.00  0.00    -0.323 OA
HETATM   30  O   UNL     1      38.885 -33.141   5.661  1.00  0.00    -0.323 OA
HETATM   31  C   UNL     1      39.594 -32.520   3.413  1.00  0.00     0.041 A 
HETATM   32  C   UNL     1      39.365 -32.627   6.921  1.00  0.00     0.352 A 
HETATM   33  C   UNL     1      40.452 -31.694   2.678  1.00  0.00     0.020 A 
ENDBRANCH  22  25
ENDBRANCH   2  21
TORSDOF 6
ENDMDL
MODEL 10
REMARK VINA RESULT:      -8.0      3.339      9.608
REMARK  6 active torsions:
REMARK  status: ('A' for Active; 'I' for Inactive)
REMARK    1  A    between atoms: C_3  and  C_4 
REMARK    2  A    between atoms: C_4  and  N_5 
REMARK    3  A    between atoms: C_4  and  C_9 
REMARK       I    between atoms: N_5  and  C_6 
REMARK       I    between atoms: C_6  and  N_7 
REMARK    4  A    between atoms: C_9  and  C_10 
REMARK       I    between atoms: C_10  and  N_11 
REMARK    5  A    between atoms: N_11  and  N_12 
REMARK       I    between atoms: N_12  and  C_13 
REMARK    6  A    between atoms: C_13  and  C_14 
ROOT
HETATM    1  C   UNL     1      43.785 -10.529   8.297  1.00  0.00     0.238 C 
HETATM    2  N   UNL     1      42.927 -11.241   7.491  1.00  0.00    -0.267 N 
HETATM    3  O   UNL     1      44.806 -11.032   8.762  1.00  0.00    -0.272 OA
HETATM    4  H   UNL     1      42.044 -10.897   7.117  1.00  0.00     0.190 HD
ENDROOT
BRANCH   1   5
HETATM    5  C   UNL     1      43.366  -9.107   8.584  1.00  0.00     0.134 C 
BRANCH   5   6
HETATM    6  C   UNL     1      42.093  -9.023   9.440  1.00  0.00     0.129 C 
BRANCH   6   7
HETATM    7  C   UNL     1      42.341  -8.340  10.781  1.00  0.00    -0.013 A 
HETATM    8  C   UNL     1      42.069  -6.968  10.951  1.00  0.00     0.011 A 
HETATM    9  C   UNL     1      42.319  -6.322  12.165  1.00  0.00     0.001 A 
HETATM   10  C   UNL     1      42.848  -7.031  13.238  1.00  0.00     0.002 A 
HETATM   11  C   UNL     1      43.137  -8.386  13.092  1.00  0.00     0.024 A 
HETATM   12  C   UNL     1      42.894  -9.034  11.876  1.00  0.00     0.042 A 
HETATM   13 CL   UNL     1      43.332 -10.706  11.789  1.00  0.00    -0.084 Cl
ENDBRANCH   6   7
BRANCH   6  14
HETATM   14  N   UNL     1      40.956  -8.448   8.719  1.00  0.00    -0.339 N 
HETATM   15  C   UNL     1      40.040  -9.105   7.973  1.00  0.00     0.292 C 
HETATM   16  N   UNL     1      39.929 -10.435   8.163  1.00  0.00    -0.254 NA
HETATM   17  O   UNL     1      39.340  -8.525   7.154  1.00  0.00    -0.254 OA
HETATM   18  H   UNL     1      39.933 -10.751   9.121  1.00  0.00     0.128 HD
HETATM   19  H   UNL     1      39.172 -10.831   7.617  1.00  0.00     0.128 HD
HETATM   20  H   UNL     1      41.045  -7.495   8.389  1.00  0.00     0.164 HD
ENDBRANCH   6  14
ENDBRANCH   5   6
ENDBRANCH   1   5
BRANCH   2  21
HETATM   21  N   UNL     1      43.290 -12.547   7.155  1.00  0.00    -0.263 N 
HETATM   22  C   UNL     1      42.730 -13.122   6.035  1.00  0.00     0.270 C 
HETATM   23  O   UNL     1      41.864 -12.556   5.371  1.00  0.00    -0.266 OA
HETATM   24  H   UNL     1      43.965 -12.993   7.773  1.00  0.00     0.190 HD
BRANCH  22  25
HETATM   25  C   UNL     1      43.214 -14.483   5.657  1.00  0.00     0.036 A 
HETATM   26  C   UNL     1      42.891 -15.081   4.429  1.00  0.00     0.057 A 
HETATM   27  C   UNL     1      43.371 -16.353   4.189  1.00  0.00     0.106 A 
HETATM   28  C   UNL     1      44.136 -17.032   5.108  1.00  0.00     0.105 A 
HETATM   29  O   UNL     1      43.151 -17.079   3.061  1.00  0.00    -0.323 OA
HETATM   30  O   UNL     1      44.495 -18.269   4.672  1.00  0.00    -0.323 OA
HETATM   31  C   UNL     1      44.466 -16.479   6.325  1.00  0.00     0.041 A 
HETATM   32  C   UNL     1      43.861 -18.295   3.375  1.00  0.00     0.352 A 
HETATM   33  C   UNL     1      43.995 -15.191   6.600  1.00  0.00     0.020 A 
ENDBRANCH  22  25
ENDBRANCH   2  21
TORSDOF 6
ENDMDL
