MODEL 1
REMARK VINA RESULT:      -8.4      0.000      0.000
REMARK  6 active torsions:
REMARK  status: ('A' for Active; 'I' for Inactive)
REMARK    1  A    between atoms: C_2  and  N_3 
REMARK    2  A    between atoms: C_2  and  C_24 
REMARK       I    between atoms: N_3  and  C_4 
REMARK    3  A    between atoms: C_4  and  C_5 
REMARK    4  A    between atoms: C_5  and  N_6 
REMARK    5  A    between atoms: C_10  and  N_11 
REMARK       I    between atoms: N_11  and  C_12 
REMARK       I    between atoms: C_12  and  N_13 
REMARK    6  A    between atoms: N_13  and  C_14 
ROOT
HETATM    1  N   UNL     1      43.388 -12.372   5.789  1.00  0.00    -0.063 N 
HETATM    2  H   UNL     1      43.612 -12.111   4.818  1.00  0.00     0.280 HD
HETATM    3  C   UNL     1      42.246 -11.478   6.215  1.00  0.00     0.237 C 
HETATM    4  C   UNL     1      42.717 -10.093   6.606  1.00  0.00     0.053 C 
HETATM    5  C   UNL     1      43.835 -10.104   7.642  1.00  0.00     0.089 C 
HETATM    6  C   UNL     1      45.004 -10.948   7.146  1.00  0.00     0.053 C 
HETATM    7  C   UNL     1      44.650 -12.327   6.616  1.00  0.00     0.237 C 
ENDROOT
BRANCH   1   8
HETATM    8  C   UNL     1      42.910 -13.839   5.716  1.00  0.00     0.337 C 
BRANCH   8   9
HETATM    9  C   UNL     1      42.909 -14.395   4.292  1.00  0.00     0.244 C 
HETATM   10  N   UNL     1      42.835 -15.762   4.207  1.00  0.00    -0.351 N 
HETATM   11  H   UNL     1      42.762 -16.335   5.041  1.00  0.00     0.163 HD
HETATM   12  O   UNL     1      42.898 -13.635   3.328  1.00  0.00    -0.272 OA
BRANCH  10  13
HETATM   13  C   UNL     1      42.752 -16.475   2.940  1.00  0.00     0.120 C 
HETATM   14  C   UNL     1      41.341 -16.443   2.355  1.00  0.00     0.038 C 
BRANCH  13  15
HETATM   15  C   UNL     1      43.232 -17.888   3.174  1.00  0.00     0.005 A 
HETATM   16  S   UNL     1      43.944 -18.356   4.670  1.00  0.00    -0.104 SA
HETATM   17  C   UNL     1      44.178 -19.961   4.137  1.00  0.00     0.050 A 
HETATM   18  C   UNL     1      43.732 -20.147   2.849  1.00  0.00     0.008 A 
HETATM   19  C   UNL     1      43.186 -18.953   2.294  1.00  0.00     0.017 A 
ENDBRANCH  13  15
ENDBRANCH  10  13
ENDBRANCH   8   9
ENDBRANCH   1   8
BRANCH   5  20
HETATM   20  N   UNL     1      43.361 -10.373   9.002  1.00  0.00    -0.338 N 
HETATM   21  C   UNL     1      42.933  -9.450   9.926  1.00  0.00     0.321 C 
HETATM   22  N   UNL     1      42.891  -9.971  11.195  1.00  0.00    -0.309 N 
HETATM   23  O   UNL     1      42.722  -8.282   9.624  1.00  0.00    -0.247 OA
HETATM   24  H   UNL     1      43.356 -10.856  11.334  1.00  0.00     0.170 HD
HETATM   25  H   UNL     1      43.220 -11.344   9.253  1.00  0.00     0.164 HD
BRANCH  22  26
HETATM   26  C   UNL     1      42.577  -9.252  12.371  1.00  0.00     0.036 A 
HETATM   27  C   UNL     1      43.329  -8.171  12.838  1.00  0.00     0.029 A 
HETATM   28  C   UNL     1      42.986  -7.529  14.031  1.00  0.00     0.002 A 
HETATM   29  C   UNL     1      41.885  -7.961  14.766  1.00  0.00     0.000 A 
HETATM   30  C   UNL     1      41.116  -9.024  14.297  1.00  0.00     0.002 A 
HETATM   31  C   UNL     1      41.454  -9.660  13.099  1.00  0.00     0.029 A 
ENDBRANCH  22  26
ENDBRANCH   5  20
TORSDOF 6
ENDMDL
MODEL 2
REMARK VINA RESULT:      -8.3      4.734      8.710
REMARK  6 active torsions:
REMARK  status: ('A' for Active; 'I' for Inactive)
REMARK    1  A    between atoms: C_2  and  N_3 
REMARK    2  A    between atoms: C_2  and  C_24 
REMARK       I    between atoms: N_3  and  C_4 
REMARK    3  A    between atoms: C_4  and  C_5 
REMARK    4  A    between atoms: C_5  and  N_6 
REMARK    5  A    between atoms: C_10  and  N_11 
REMARK       I    between atoms: N_11  and  C_12 
REMARK       I    between atoms: C_12  and  N_13 
REMARK    6  A    between atoms: N_13  and  C_14 
ROOT
HETATM    1  N   UNL     1      42.070 -11.407   5.885  1.00  0.00    -0.063 N 
HETATM    2  H   UNL     1      41.594 -10.921   6.659  1.00  0.00     0.280 HD
HETATM    3  C   UNL     1      41.133 -12.504   5.435  1.00  0.00     0.237 C 
HETATM    4  C   UNL     1      41.192 -13.716   6.342  1.00  0.00     0.053 C 
HETATM    5  C   UNL     1      42.605 -14.241   6.560  1.00  0.00     0.089 C 
HETATM    6  C   UNL     1      43.504 -13.129   7.091  1.00  0.00     0.053 C 
HETATM    7  C   UNL     1      43.452 -11.815   6.332  1.00  0.00     0.237 C 
ENDROOT
BRANCH   1   8
HETATM    8  C   UNL     1      42.215 -10.348   4.770  1.00  0.00     0.337 C 
BRANCH   8   9
HETATM    9  C   UNL     1      42.582 -10.954   3.416  1.00  0.00     0.244 C 
HETATM   10  N   UNL     1      41.524 -11.146   2.564  1.00  0.00    -0.351 N 
HETATM   11  H   UNL     1      40.583 -10.875   2.829  1.00  0.00     0.163 HD
HETATM   12  O   UNL     1      43.756 -11.164   3.126  1.00  0.00    -0.272 OA
BRANCH  10  13
HETATM   13  C   UNL     1      41.679 -11.647   1.206  1.00  0.00     0.120 C 
HETATM   14  C   UNL     1      40.909 -10.804   0.191  1.00  0.00     0.038 C 
BRANCH  13  15
HETATM   15  C   UNL     1      41.232 -13.089   1.193  1.00  0.00     0.005 A 
HETATM   16  S   UNL     1      39.982 -13.629   0.138  1.00  0.00    -0.104 SA
HETATM   17  C   UNL     1      40.093 -15.233   0.714  1.00  0.00     0.050 A 
HETATM   18  C   UNL     1      41.052 -15.366   1.691  1.00  0.00     0.008 A 
HETATM   19  C   UNL     1      41.709 -14.131   1.967  1.00  0.00     0.017 A 
ENDBRANCH  13  15
ENDBRANCH  10  13
ENDBRANCH   8   9
ENDBRANCH   1   8
BRANCH   5  20
HETATM   20  N   UNL     1      43.117 -15.014   5.425  1.00  0.00    -0.338 N 
HETATM   21  C   UNL     1      42.820 -16.319   5.113  1.00  0.00     0.321 C 
HETATM   22  N   UNL     1      43.711 -16.850   4.214  1.00  0.00    -0.309 N 
HETATM   23  O   UNL     1      41.916 -16.929   5.670  1.00  0.00    -0.247 OA
HETATM   24  H   UNL     1      44.559 -16.326   4.057  1.00  0.00     0.170 HD
HETATM   25  H   UNL     1      43.651 -14.506   4.730  1.00  0.00     0.164 HD
BRANCH  22  26
HETATM   26  C   UNL     1      43.726 -18.190   3.764  1.00  0.00     0.036 A 
HETATM   27  C   UNL     1      43.320 -18.579   2.484  1.00  0.00     0.029 A 
HETATM   28  C   UNL     1      43.322 -19.927   2.116  1.00  0.00     0.002 A 
HETATM   29  C   UNL     1      43.733 -20.899   3.025  1.00  0.00     0.000 A 
HETATM   30  C   UNL     1      44.160 -20.520   4.296  1.00  0.00     0.002 A 
HETATM   31  C   UNL     1      44.166 -19.170   4.661  1.00  0.00     0.029 A 
ENDBRANCH  22  26
ENDBRANCH   5  20
TORSDOF 6
ENDMDL
MODEL 3
REMARK VINA RESULT:      -8.2      2.727     10.573
REMARK  6 active torsions:
REMARK  status: ('A' for Active; 'I' for Inactive)
REMARK    1  A    between atoms: C_2  and  N_3 
REMARK    2  A    between atoms: C_2  and  C_24 
REMARK       I    between atoms: N_3  and  C_4 
REMARK    3  A    between atoms: C_4  and  C_5 
REMARK    4  A    between atoms: C_5  and  N_6 
REMARK    5  A    between atoms: C_10  and  N_11 
REMARK       I    between atoms: N_11  and  C_12 
REMARK       I    between atoms: C_12  and  N_13 
REMARK    6  A    between atoms: N_13  and  C_14 
ROOT
HETATM    1  N   UNL     1      42.297 -11.900   6.013  1.00  0.00    -0.063 N 
HETATM    2  H   UNL     1      41.627 -11.128   6.145  1.00  0.00     0.280 HD
HETATM    3  C   UNL     1      42.857 -11.740   4.618  1.00  0.00     0.237 C 
HETATM    4  C   UNL     1      41.914 -12.267   3.558  1.00  0.00     0.053 C 
HETATM    5  C   UNL     1      41.452 -13.696   3.815  1.00  0.00     0.089 C 
HETATM    6  C   UNL     1      40.818 -13.804   5.198  1.00  0.00     0.053 C 
HETATM    7  C   UNL     1      41.618 -13.206   6.342  1.00  0.00     0.237 C 
ENDROOT
BRANCH   1   8
HETATM    8  C   UNL     1      43.408 -11.655   7.058  1.00  0.00     0.337 C 
BRANCH   8   9
HETATM    9  C   UNL     1      43.217 -10.355   7.837  1.00  0.00     0.244 C 
HETATM   10  N   UNL     1      43.245 -10.491   9.202  1.00  0.00    -0.351 N 
HETATM   11  H   UNL     1      43.407 -11.394   9.635  1.00  0.00     0.163 HD
HETATM   12  O   UNL     1      43.126  -9.282   7.247  1.00  0.00    -0.272 OA
BRANCH  10  13
HETATM   13  C   UNL     1      43.150  -9.360  10.115  1.00  0.00     0.120 C 
HETATM   14  C   UNL     1      44.450  -9.135  10.886  1.00  0.00     0.038 C 
BRANCH  13  15
HETATM   15  C   UNL     1      41.984  -9.612  11.041  1.00  0.00     0.005 A 
HETATM   16  S   UNL     1      40.358  -9.427  10.505  1.00  0.00    -0.104 SA
HETATM   17  C   UNL     1      39.731  -9.864  12.033  1.00  0.00     0.050 A 
HETATM   18  C   UNL     1      40.728 -10.141  12.940  1.00  0.00     0.008 A 
HETATM   19  C   UNL     1      42.026  -9.997  12.369  1.00  0.00     0.017 A 
ENDBRANCH  13  15
ENDBRANCH  10  13
ENDBRANCH   8   9
ENDBRANCH   1   8
BRANCH   5  20
HETATM   20  N   UNL     1      42.463 -14.701   3.474  1.00  0.00    -0.338 N 
HETATM   21  C   UNL     1      42.279 -16.059   3.380  1.00  0.00     0.321 C 
HETATM   22  N   UNL     1      43.468 -16.744   3.391  1.00  0.00    -0.309 N 
HETATM   23  O   UNL     1      41.163 -16.564   3.389  1.00  0.00    -0.247 OA
HETATM   24  H   UNL     1      44.287 -16.221   3.667  1.00  0.00     0.170 HD
HETATM   25  H   UNL     1      43.362 -14.356   3.160  1.00  0.00     0.164 HD
BRANCH  22  26
HETATM   26  C   UNL     1      43.610 -18.150   3.395  1.00  0.00     0.036 A 
HETATM   27  C   UNL     1      43.330 -18.957   2.288  1.00  0.00     0.029 A 
HETATM   28  C   UNL     1      43.452 -20.347   2.373  1.00  0.00     0.002 A 
HETATM   29  C   UNL     1      43.859 -20.941   3.565  1.00  0.00     0.000 A 
HETATM   30  C   UNL     1      44.160 -20.144   4.667  1.00  0.00     0.002 A 
HETATM   31  C   UNL     1      44.046 -18.754   4.579  1.00  0.00     0.029 A 
ENDBRANCH  22  26
ENDBRANCH   5  20
TORSDOF 6
ENDMDL
MODEL 4
REMARK VINA RESULT:      -7.8      2.095      3.124
REMARK  6 active torsions:
REMARK  status: ('A' for Active; 'I' for Inactive)
REMARK    1  A    between atoms: C_2  and  N_3 
REMARK    2  A    between atoms: C_2  and  C_24 
REMARK       I    between atoms: N_3  and  C_4 
REMARK    3  A    between atoms: C_4  and  C_5 
REMARK    4  A    between atoms: C_5  and  N_6 
REMARK    5  A    between atoms: C_10  and  N_11 
REMARK       I    between atoms: N_11  and  C_12 
REMARK       I    between atoms: C_12  and  N_13 
REMARK    6  A    between atoms: N_13  and  C_14 
ROOT
HETATM    1  N   UNL     1      42.656 -13.779   6.000  1.00  0.00    -0.063 N 
HETATM    2  H   UNL     1      43.064 -13.993   5.079  1.00  0.00     0.280 HD
HETATM    3  C   UNL     1      41.607 -12.717   5.762  1.00  0.00     0.237 C 
HETATM    4  C   UNL     1      42.212 -11.337   5.616  1.00  0.00     0.053 C 
HETATM    5  C   UNL     1      43.141 -10.958   6.762  1.00  0.00     0.089 C 
HETATM    6  C   UNL     1      44.235 -12.009   6.923  1.00  0.00     0.053 C 
HETATM    7  C   UNL     1      43.766 -13.452   6.968  1.00  0.00     0.237 C 
ENDROOT
BRANCH   1   8
HETATM    8  C   UNL     1      41.983 -15.091   6.461  1.00  0.00     0.337 C 
BRANCH   8   9
HETATM    9  C   UNL     1      41.341 -15.867   5.311  1.00  0.00     0.244 C 
HETATM   10  N   UNL     1      42.072 -15.887   4.150  1.00  0.00    -0.351 N 
HETATM   11  H   UNL     1      42.978 -15.433   4.094  1.00  0.00     0.163 HD
HETATM   12  O   UNL     1      40.289 -16.475   5.482  1.00  0.00    -0.272 OA
BRANCH  10  13
HETATM   13  C   UNL     1      41.662 -16.630   2.967  1.00  0.00     0.120 C 
HETATM   14  C   UNL     1      42.788 -17.508   2.422  1.00  0.00     0.038 C 
BRANCH  13  15
HETATM   15  C   UNL     1      41.180 -15.633   1.940  1.00  0.00     0.005 A 
HETATM   16  S   UNL     1      41.988 -14.131   1.702  1.00  0.00    -0.104 SA
HETATM   17  C   UNL     1      40.896 -13.658   0.478  1.00  0.00     0.050 A 
HETATM   18  C   UNL     1      39.930 -14.611   0.251  1.00  0.00     0.008 A 
HETATM   19  C   UNL     1      40.094 -15.750   1.092  1.00  0.00     0.017 A 
ENDBRANCH  13  15
ENDBRANCH  10  13
ENDBRANCH   8   9
ENDBRANCH   1   8
BRANCH   5  20
HETATM   20  N   UNL     1      42.427 -10.562   7.979  1.00  0.00    -0.338 N 
HETATM   21  C   UNL     1      42.676  -9.461   8.762  1.00  0.00     0.321 C 
HETATM   22  N   UNL     1      42.081  -9.558   9.995  1.00  0.00    -0.309 N 
HETATM   23  O   UNL     1      43.430  -8.566   8.401  1.00  0.00    -0.247 OA
HETATM   24  H   UNL     1      41.726 -10.468  10.254  1.00  0.00     0.170 HD
HETATM   25  H   UNL     1      41.588 -11.082   8.206  1.00  0.00     0.164 HD
BRANCH  22  26
HETATM   26  C   UNL     1      42.221  -8.631  11.053  1.00  0.00     0.036 A 
HETATM   27  C   UNL     1      41.524  -7.421  11.116  1.00  0.00     0.029 A 
HETATM   28  C   UNL     1      41.740  -6.531  12.172  1.00  0.00     0.002 A 
HETATM   29  C   UNL     1      42.653  -6.845  13.175  1.00  0.00     0.000 A 
HETATM   30  C   UNL     1      43.337  -8.058  13.133  1.00  0.00     0.002 A 
HETATM   31  C   UNL     1      43.114  -8.952  12.082  1.00  0.00     0.029 A 
ENDBRANCH  22  26
ENDBRANCH   5  20
TORSDOF 6
ENDMDL
MODEL 5
REMARK VINA RESULT:      -7.7      5.571      9.156
REMARK  6 active torsions:
REMARK  status: ('A' for Active; 'I' for Inactive)
REMARK    1  A    between atoms: C_2  and  N_3 
REMARK    2  A    between atoms: C_2  and  C_24 
REMARK       I    between atoms: N_3  and  C_4 
REMARK    3  A    between atoms: C_4  and  C_5 
REMARK    4  A    between atoms: C_5  and  N_6 
REMARK    5  A    between atoms: C_10  and  N_11 
REMARK       I    between atoms: N_11  and  C_12 
REMARK       I    between atoms: C_12  and  N_13 
REMARK    6  A    between atoms: N_13  and  C_14 
ROOT
HETATM    1  N   UNL     1      40.383 -11.384   4.400  1.00  0.00    -0.063 N 
HETATM    2  H   UNL     1      39.990 -10.791   5.145  1.00  0.00     0.280 HD
HETATM    3  C   UNL     1      39.837 -12.774   4.632  1.00  0.00     0.237 C 
HETATM    4  C   UNL     1      40.585 -13.508   5.725  1.00  0.00     0.053 C 
HETATM    5  C   UNL     1      42.094 -13.527   5.518  1.00  0.00     0.089 C 
HETATM    6  C   UNL     1      42.624 -12.104   5.369  1.00  0.00     0.053 C 
HETATM    7  C   UNL     1      41.883 -11.222   4.379  1.00  0.00     0.237 C 
ENDROOT
BRANCH   1   8
HETATM    8  C   UNL     1      39.816 -10.808   3.083  1.00  0.00     0.337 C 
BRANCH   8   9
HETATM    9  C   UNL     1      39.282 -11.887   2.142  1.00  0.00     0.244 C 
HETATM   10  N   UNL     1      40.242 -12.684   1.572  1.00  0.00    -0.351 N 
HETATM   11  H   UNL     1      41.225 -12.560   1.795  1.00  0.00     0.163 HD
HETATM   12  O   UNL     1      38.073 -12.043   1.997  1.00  0.00    -0.272 OA
BRANCH  10  13
HETATM   13  C   UNL     1      39.928 -13.809   0.703  1.00  0.00     0.120 C 
HETATM   14  C   UNL     1      40.882 -14.984   0.918  1.00  0.00     0.038 C 
BRANCH  13  15
HETATM   15  C   UNL     1      39.959 -13.313  -0.723  1.00  0.00     0.005 A 
HETATM   16  S   UNL     1      40.914 -11.954  -1.178  1.00  0.00    -0.104 SA
HETATM   17  C   UNL     1      40.417 -12.063  -2.808  1.00  0.00     0.050 A 
HETATM   18  C   UNL     1      39.541 -13.104  -3.012  1.00  0.00     0.008 A 
HETATM   19  C   UNL     1      39.277 -13.825  -1.811  1.00  0.00     0.017 A 
ENDBRANCH  13  15
ENDBRANCH  10  13
ENDBRANCH   8   9
ENDBRANCH   1   8
BRANCH   5  20
HETATM   20  N   UNL     1      42.528 -14.499   4.511  1.00  0.00    -0.338 N 
HETATM   21  C   UNL     1      42.440 -15.868   4.591  1.00  0.00     0.321 C 
HETATM   22  N   UNL     1      43.236 -16.492   3.664  1.00  0.00    -0.309 N 
HETATM   23  O   UNL     1      41.792 -16.424   5.468  1.00  0.00    -0.247 OA
HETATM   24  H   UNL     1      43.921 -15.915   3.197  1.00  0.00     0.170 HD
HETATM   25  H   UNL     1      42.816 -14.128   3.613  1.00  0.00     0.164 HD
BRANCH  22  26
HETATM   26  C   UNL     1      43.429 -17.888   3.550  1.00  0.00     0.036 A 
HETATM   27  C   UNL     1      43.989 -18.674   4.561  1.00  0.00     0.029 A 
HETATM   28  C   UNL     1      44.190 -20.043   4.367  1.00  0.00     0.002 A 
HETATM   29  C   UNL     1      43.829 -20.639   3.161  1.00  0.00     0.000 A 
HETATM   30  C   UNL     1      43.251 -19.867   2.155  1.00  0.00     0.002 A 
HETATM   31  C   UNL     1      43.042 -18.499   2.352  1.00  0.00     0.029 A 
ENDBRANCH  22  26
ENDBRANCH   5  20
TORSDOF 6
ENDMDL
MODEL 6
REMARK VINA RESULT:      -7.6      5.467      9.183
REMARK  6 active torsions:
REMARK  status: ('A' for Active; 'I' for Inactive)
REMARK    1  A    between atoms: C_2  and  N_3 
REMARK    2  A    between atoms: C_2  and  C_24 
REMARK       I    between atoms: N_3  and  C_4 
REMARK    3  A    between atoms: C_4  and  C_5 
REMARK    4  A    between atoms: C_5  and  N_6 
REMARK    5  A    between atoms: C_10  and  N_11 
REMARK       I    between atoms: N_11  and  C_12 
REMARK       I    between atoms: C_12  and  N_13 
REMARK    6  A    between atoms: N_13  and  C_14 
ROOT
HETATM    1  N   UNL     1      40.355 -10.564   4.059  1.00  0.00    -0.063 N 
HETATM    2  H   UNL     1      39.679 -10.055   4.648  1.00  0.00     0.280 HD
HETATM    3  C   UNL     1      39.682 -11.859   3.667  1.00  0.00     0.237 C 
HETATM    4  C   UNL     1      39.740 -12.892   4.772  1.00  0.00     0.053 C 
HETATM    5  C   UNL     1      41.147 -13.132   5.303  1.00  0.00     0.089 C 
HETATM    6  C   UNL     1      41.767 -11.817   5.766  1.00  0.00     0.053 C 
HETATM    7  C   UNL     1      41.672 -10.659   4.787  1.00  0.00     0.237 C 
ENDROOT
BRANCH   1   8
HETATM    8  C   UNL     1      40.554  -9.675   2.811  1.00  0.00     0.337 C 
BRANCH   8   9
HETATM    9  C   UNL     1      41.268 -10.399   1.671  1.00  0.00     0.244 C 
HETATM   10  N   UNL     1      40.535 -10.526   0.519  1.00  0.00    -0.351 N 
HETATM   11  H   UNL     1      39.600 -10.138   0.448  1.00  0.00     0.163 HD
HETATM   12  O   UNL     1      42.437 -10.755   1.795  1.00  0.00    -0.272 OA
BRANCH  10  13
HETATM   13  C   UNL     1      41.065 -11.124  -0.698  1.00  0.00     0.120 C 
HETATM   14  C   UNL     1      41.293 -10.085  -1.795  1.00  0.00     0.038 C 
BRANCH  13  15
HETATM   15  C   UNL     1      40.105 -12.204  -1.138  1.00  0.00     0.005 A 
HETATM   16  S   UNL     1      38.648 -11.821  -1.971  1.00  0.00    -0.104 SA
HETATM   17  C   UNL     1      38.198 -13.465  -2.084  1.00  0.00     0.050 A 
HETATM   18  C   UNL     1      39.127 -14.295  -1.499  1.00  0.00     0.008 A 
HETATM   19  C   UNL     1      40.226 -13.569  -0.955  1.00  0.00     0.017 A 
ENDBRANCH  13  15
ENDBRANCH  10  13
ENDBRANCH   8   9
ENDBRANCH   1   8
BRANCH   5  20
HETATM   20  N   UNL     1      41.965 -13.969   4.420  1.00  0.00    -0.338 N 
HETATM   21  C   UNL     1      41.921 -15.337   4.305  1.00  0.00     0.321 C 
HETATM   22  N   UNL     1      43.029 -15.838   3.669  1.00  0.00    -0.309 N 
HETATM   23  O   UNL     1      41.027 -16.001   4.814  1.00  0.00    -0.247 OA
HETATM   24  H   UNL     1      43.807 -15.205   3.555  1.00  0.00     0.170 HD
HETATM   25  H   UNL     1      42.539 -13.488   3.739  1.00  0.00     0.164 HD
BRANCH  22  26
HETATM   26  C   UNL     1      43.319 -17.207   3.474  1.00  0.00     0.036 A 
HETATM   27  C   UNL     1      42.962 -17.916   2.324  1.00  0.00     0.029 A 
HETATM   28  C   UNL     1      43.243 -19.280   2.213  1.00  0.00     0.002 A 
HETATM   29  C   UNL     1      43.888 -19.947   3.252  1.00  0.00     0.000 A 
HETATM   30  C   UNL     1      44.267 -19.245   4.394  1.00  0.00     0.002 A 
HETATM   31  C   UNL     1      43.993 -17.879   4.500  1.00  0.00     0.029 A 
ENDBRANCH  22  26
ENDBRANCH   5  20
TORSDOF 6
ENDMDL
MODEL 7
REMARK VINA RESULT:      -7.6      4.069     11.222
REMARK  6 active torsions:
REMARK  status: ('A' for Active; 'I' for Inactive)
REMARK    1  A    between atoms: C_2  and  N_3 
REMARK    2  A    between atoms: C_2  and  C_24 
REMARK       I    between atoms: N_3  and  C_4 
REMARK    3  A    between atoms: C_4  and  C_5 
REMARK    4  A    between atoms: C_5  and  N_6 
REMARK    5  A    between atoms: C_10  and  N_11 
REMARK       I    between atoms: N_11  and  C_12 
REMARK       I    between atoms: C_12  and  N_13 
REMARK    6  A    between atoms: N_13  and  C_14 
ROOT
HETATM    1  N   UNL     1      43.594  -9.210  10.988  1.00  0.00    -0.063 N 
HETATM    2  H   UNL     1      44.017  -8.278  11.107  1.00  0.00     0.280 HD
HETATM    3  C   UNL     1      44.729 -10.151  10.657  1.00  0.00     0.237 C 
HETATM    4  C   UNL     1      45.143 -10.061   9.203  1.00  0.00     0.053 C 
HETATM    5  C   UNL     1      43.981 -10.224   8.232  1.00  0.00     0.089 C 
HETATM    6  C   UNL     1      42.888  -9.205   8.543  1.00  0.00     0.053 C 
HETATM    7  C   UNL     1      42.460  -9.115   9.997  1.00  0.00     0.237 C 
ENDROOT
BRANCH   1   8
HETATM    8  C   UNL     1      43.001  -9.566  12.369  1.00  0.00     0.337 C 
BRANCH   8   9
HETATM    9  C   UNL     1      42.679  -8.334  13.215  1.00  0.00     0.244 C 
HETATM   10  N   UNL     1      41.373  -8.240  13.624  1.00  0.00    -0.351 N 
HETATM   11  H   UNL     1      40.698  -8.961  13.389  1.00  0.00     0.163 HD
HETATM   12  O   UNL     1      43.569  -7.555  13.544  1.00  0.00    -0.272 OA
BRANCH  10  13
HETATM   13  C   UNL     1      40.887  -7.178  14.492  1.00  0.00     0.120 C 
HETATM   14  C   UNL     1      40.787  -7.628  15.949  1.00  0.00     0.038 C 
BRANCH  13  15
HETATM   15  C   UNL     1      39.554  -6.715  13.954  1.00  0.00     0.005 A 
HETATM   16  S   UNL     1      38.865  -5.213  14.439  1.00  0.00    -0.104 SA
HETATM   17  C   UNL     1      37.489  -5.447  13.455  1.00  0.00     0.050 A 
HETATM   18  C   UNL     1      37.539  -6.641  12.773  1.00  0.00     0.008 A 
HETATM   19  C   UNL     1      38.729  -7.371  13.059  1.00  0.00     0.017 A 
ENDBRANCH  13  15
ENDBRANCH  10  13
ENDBRANCH   8   9
ENDBRANCH   1   8
BRANCH   5  20
HETATM   20  N   UNL     1      43.554 -11.616   8.067  1.00  0.00    -0.338 N 
HETATM   21  C   UNL     1      44.031 -12.524   7.154  1.00  0.00     0.321 C 
HETATM   22  N   UNL     1      43.201 -13.609   7.022  1.00  0.00    -0.309 N 
HETATM   23  O   UNL     1      45.032 -12.304   6.484  1.00  0.00    -0.247 OA
HETATM   24  H   UNL     1      42.280 -13.523   7.426  1.00  0.00     0.170 HD
HETATM   25  H   UNL     1      42.928 -11.988   8.772  1.00  0.00     0.164 HD
BRANCH  22  26
HETATM   26  C   UNL     1      43.371 -14.669   6.102  1.00  0.00     0.036 A 
HETATM   27  C   UNL     1      42.825 -14.670   4.816  1.00  0.00     0.029 A 
HETATM   28  C   UNL     1      42.997 -15.769   3.971  1.00  0.00     0.002 A 
HETATM   29  C   UNL     1      43.720 -16.878   4.405  1.00  0.00     0.000 A 
HETATM   30  C   UNL     1      44.286 -16.878   5.678  1.00  0.00     0.002 A 
HETATM   31  C   UNL     1      44.121 -15.774   6.519  1.00  0.00     0.029 A 
ENDBRANCH  22  26
ENDBRANCH   5  20
TORSDOF 6
ENDMDL
MODEL 8
REMARK VINA RESULT:      -7.5      3.324      4.371
REMARK  6 active torsions:
REMARK  status: ('A' for Active; 'I' for Inactive)
REMARK    1  A    between atoms: C_2  and  N_3 
REMARK    2  A    between atoms: C_2  and  C_24 
REMARK       I    between atoms: N_3  and  C_4 
REMARK    3  A    between atoms: C_4  and  C_5 
REMARK    4  A    between atoms: C_5  and  N_6 
REMARK    5  A    between atoms: C_10  and  N_11 
REMARK       I    between atoms: N_11  and  C_12 
REMARK       I    between atoms: C_12  and  N_13 
REMARK    6  A    between atoms: N_13  and  C_14 
ROOT
HETATM    1  N   UNL     1      42.081 -12.009   4.064  1.00  0.00    -0.063 N 
HETATM    2  H   UNL     1      42.504 -12.710   3.438  1.00  0.00     0.280 HD
HETATM    3  C   UNL     1      43.151 -10.974   4.324  1.00  0.00     0.237 C 
HETATM    4  C   UNL     1      44.147 -11.429   5.370  1.00  0.00     0.053 C 
HETATM    5  C   UNL     1      43.494 -11.896   6.664  1.00  0.00     0.089 C 
HETATM    6  C   UNL     1      42.478 -12.997   6.375  1.00  0.00     0.053 C 
HETATM    7  C   UNL     1      41.487 -12.709   5.261  1.00  0.00     0.237 C 
ENDROOT
BRANCH   1   8
HETATM    8  C   UNL     1      40.928 -11.381   3.249  1.00  0.00     0.337 C 
BRANCH   8   9
HETATM    9  C   UNL     1      40.006 -12.424   2.620  1.00  0.00     0.244 C 
HETATM   10  N   UNL     1      40.604 -13.241   1.695  1.00  0.00    -0.351 N 
HETATM   11  H   UNL     1      41.593 -13.153   1.481  1.00  0.00     0.163 HD
HETATM   12  O   UNL     1      38.844 -12.538   3.001  1.00  0.00    -0.272 OA
BRANCH  10  13
HETATM   13  C   UNL     1      39.910 -14.339   1.038  1.00  0.00     0.120 C 
HETATM   14  C   UNL     1      40.545 -15.692   1.356  1.00  0.00     0.038 C 
BRANCH  13  15
HETATM   15  C   UNL     1      39.902 -14.058  -0.446  1.00  0.00     0.005 A 
HETATM   16  S   UNL     1      40.656 -12.652  -1.095  1.00  0.00    -0.104 SA
HETATM   17  C   UNL     1      40.220 -13.071  -2.693  1.00  0.00     0.050 A 
HETATM   18  C   UNL     1      39.512 -14.249  -2.742  1.00  0.00     0.008 A 
HETATM   19  C   UNL     1      39.329 -14.819  -1.448  1.00  0.00     0.017 A 
ENDBRANCH  13  15
ENDBRANCH  10  13
ENDBRANCH   8   9
ENDBRANCH   1   8
BRANCH   5  20
HETATM   20  N   UNL     1      43.042 -10.792   7.516  1.00  0.00    -0.338 N 
HETATM   21  C   UNL     1      43.371 -10.575   8.831  1.00  0.00     0.321 C 
HETATM   22  N   UNL     1      42.527  -9.676   9.434  1.00  0.00    -0.309 N 
HETATM   23  O   UNL     1      44.260 -11.206   9.389  1.00  0.00    -0.247 OA
HETATM   24  H   UNL     1      41.678  -9.451   8.935  1.00  0.00     0.170 HD
HETATM   25  H   UNL     1      42.529 -10.046   7.061  1.00  0.00     0.164 HD
BRANCH  22  26
HETATM   26  C   UNL     1      42.551  -9.311  10.799  1.00  0.00     0.036 A 
HETATM   27  C   UNL     1      43.418  -8.350  11.325  1.00  0.00     0.029 A 
HETATM   28  C   UNL     1      43.418  -8.065  12.693  1.00  0.00     0.002 A 
HETATM   29  C   UNL     1      42.546  -8.737  13.547  1.00  0.00     0.000 A 
HETATM   30  C   UNL     1      41.663  -9.682  13.029  1.00  0.00     0.002 A 
HETATM   31  C   UNL     1      41.658  -9.960  11.659  1.00  0.00     0.029 A 
ENDBRANCH  22  26
ENDBRANCH   5  20
TORSDOF 6
ENDMDL
MODEL 9
REMARK VINA RESULT:      -7.4      3.810     10.723
REMARK  6 active torsions:
REMARK  status: ('A' for Active; 'I' for Inactive)
REMARK    1  A    between atoms: C_2  and  N_3 
REMARK    2  A    between atoms: C_2  and  C_24 
REMARK       I    between atoms: N_3  and  C_4 
REMARK    3  A    between atoms: C_4  and  C_5 
REMARK    4  A    between atoms: C_5  and  N_6 
REMARK    5  A    between atoms: C_10  and  N_11 
REMARK       I    between atoms: N_11  and  C_12 
REMARK       I    between atoms: C_12  and  N_13 
REMARK    6  A    between atoms: N_13  and  C_14 
ROOT
HETATM    1  N   UNL     1      42.423 -13.577   6.793  1.00  0.00    -0.063 N 
HETATM    2  H   UNL     1      42.003 -13.548   7.733  1.00  0.00     0.280 HD
HETATM    3  C   UNL     1      41.697 -12.537   5.972  1.00  0.00     0.237 C 
HETATM    4  C   UNL     1      40.354 -13.032   5.478  1.00  0.00     0.053 C 
HETATM    5  C   UNL     1      40.432 -14.366   4.747  1.00  0.00     0.089 C 
HETATM    6  C   UNL     1      41.096 -15.414   5.634  1.00  0.00     0.053 C 
HETATM    7  C   UNL     1      42.403 -14.998   6.286  1.00  0.00     0.237 C 
ENDROOT
BRANCH   1   8
HETATM    8  C   UNL     1      43.896 -13.156   6.994  1.00  0.00     0.337 C 
BRANCH   8   9
HETATM    9  C   UNL     1      44.050 -11.678   7.349  1.00  0.00     0.244 C 
HETATM   10  N   UNL     1      43.813 -11.373   8.665  1.00  0.00    -0.351 N 
HETATM   11  H   UNL     1      43.579 -12.097   9.336  1.00  0.00     0.163 HD
HETATM   12  O   UNL     1      44.434 -10.872   6.506  1.00  0.00    -0.272 OA
BRANCH  10  13
HETATM   13  C   UNL     1      43.976 -10.033   9.211  1.00  0.00     0.120 C 
HETATM   14  C   UNL     1      45.438  -9.713   9.522  1.00  0.00     0.038 C 
BRANCH  13  15
HETATM   15  C   UNL     1      43.104  -9.926  10.439  1.00  0.00     0.005 A 
HETATM   16  S   UNL     1      41.573  -9.138  10.386  1.00  0.00    -0.104 SA
HETATM   17  C   UNL     1      41.282  -9.440  12.041  1.00  0.00     0.050 A 
HETATM   18  C   UNL     1      42.321 -10.120  12.633  1.00  0.00     0.008 A 
HETATM   19  C   UNL     1      43.371 -10.401  11.710  1.00  0.00     0.017 A 
ENDBRANCH  13  15
ENDBRANCH  10  13
ENDBRANCH   8   9
ENDBRANCH   1   8
BRANCH   5  20
HETATM   20  N   UNL     1      40.938 -14.247   3.377  1.00  0.00    -0.338 N 
HETATM   21  C   UNL     1      40.246 -13.808   2.275  1.00  0.00     0.321 C 
HETATM   22  N   UNL     1      40.876 -14.141   1.103  1.00  0.00    -0.309 N 
HETATM   23  O   UNL     1      39.148 -13.274   2.370  1.00  0.00    -0.247 OA
HETATM   24  H   UNL     1      41.623 -14.818   1.169  1.00  0.00     0.170 HD
HETATM   25  H   UNL     1      41.932 -14.389   3.244  1.00  0.00     0.164 HD
BRANCH  22  26
HETATM   26  C   UNL     1      40.374 -13.907  -0.198  1.00  0.00     0.036 A 
HETATM   27  C   UNL     1      39.550 -14.806  -0.881  1.00  0.00     0.029 A 
HETATM   28  C   UNL     1      39.122 -14.531  -2.182  1.00  0.00     0.002 A 
HETATM   29  C   UNL     1      39.511 -13.351  -2.811  1.00  0.00     0.000 A 
HETATM   30  C   UNL     1      40.315 -12.438  -2.131  1.00  0.00     0.002 A 
HETATM   31  C   UNL     1      40.736 -12.710  -0.826  1.00  0.00     0.029 A 
ENDBRANCH  22  26
ENDBRANCH   5  20
TORSDOF 6
ENDMDL
MODEL 10
REMARK VINA RESULT:      -7.4      2.689      4.121
REMARK  6 active torsions:
REMARK  status: ('A' for Active; 'I' for Inactive)
REMARK    1  A    between atoms: C_2  and  N_3 
REMARK    2  A    between atoms: C_2  and  C_24 
REMARK       I    between atoms: N_3  and  C_4 
REMARK    3  A    between atoms: C_4  and  C_5 
REMARK    4  A    between atoms: C_5  and  N_6 
REMARK    5  A    between atoms: C_10  and  N_11 
REMARK       I    between atoms: N_11  and  C_12 
REMARK       I    between atoms: C_12  and  N_13 
REMARK    6  A    between atoms: N_13  and  C_14 
ROOT
HETATM    1  N   UNL     1      41.208 -13.964   2.492  1.00  0.00    -0.063 N 
HETATM    2  H   UNL     1      40.646 -13.753   1.654  1.00  0.00     0.280 HD
HETATM    3  C   UNL     1      40.295 -13.758   3.678  1.00  0.00     0.237 C 
HETATM    4  C   UNL     1      40.149 -12.295   4.042  1.00  0.00     0.053 C 
HETATM    5  C   UNL     1      41.482 -11.583   4.232  1.00  0.00     0.089 C 
HETATM    6  C   UNL     1      42.347 -11.742   2.986  1.00  0.00     0.053 C 
HETATM    7  C   UNL     1      42.482 -13.156   2.448  1.00  0.00     0.237 C 
ENDROOT
BRANCH   1   8
HETATM    8  C   UNL     1      41.579 -15.458   2.365  1.00  0.00     0.337 C 
BRANCH   8   9
HETATM    9  C   UNL     1      41.685 -16.163   3.716  1.00  0.00     0.244 C 
HETATM   10  N   UNL     1      42.966 -16.337   4.177  1.00  0.00    -0.351 N 
HETATM   11  H   UNL     1      43.763 -15.993   3.651  1.00  0.00     0.163 HD
HETATM   12  O   UNL     1      40.674 -16.462   4.344  1.00  0.00    -0.272 OA
BRANCH  10  13
HETATM   13  C   UNL     1      43.270 -16.925   5.474  1.00  0.00     0.120 C 
HETATM   14  C   UNL     1      44.410 -16.193   6.182  1.00  0.00     0.038 C 
BRANCH  13  15
HETATM   15  C   UNL     1      43.590 -18.384   5.256  1.00  0.00     0.005 A 
HETATM   16  S   UNL     1      44.099 -18.969   3.718  1.00  0.00    -0.104 SA
HETATM   17  C   UNL     1      44.236 -20.571   4.295  1.00  0.00     0.050 A 
HETATM   18  C   UNL     1      43.899 -20.671   5.625  1.00  0.00     0.008 A 
HETATM   19  C   UNL     1      43.528 -19.411   6.179  1.00  0.00     0.017 A 
ENDBRANCH  13  15
ENDBRANCH  10  13
ENDBRANCH   8   9
ENDBRANCH   1   8
BRANCH   5  20
HETATM   20  N   UNL     1      42.121 -11.883   5.518  1.00  0.00    -0.338 N 
HETATM   21  C   UNL     1      42.553 -10.978   6.456  1.00  0.00     0.321 C 
HETATM   22  N   UNL     1      43.406 -11.547   7.368  1.00  0.00    -0.309 N 
HETATM   23  O   UNL     1      42.266  -9.789   6.390  1.00  0.00    -0.247 OA
HETATM   24  H   UNL     1      43.769 -12.460   7.136  1.00  0.00     0.170 HD
HETATM   25  H   UNL     1      42.141 -12.855   5.802  1.00  0.00     0.164 HD
BRANCH  22  26
HETATM   26  C   UNL     1      44.085 -10.861   8.401  1.00  0.00     0.036 A 
HETATM   27  C   UNL     1      43.604 -10.765   9.710  1.00  0.00     0.029 A 
HETATM   28  C   UNL     1      44.306 -10.037  10.674  1.00  0.00     0.002 A 
HETATM   29  C   UNL     1      45.498  -9.400  10.337  1.00  0.00     0.000 A 
HETATM   30  C   UNL     1      45.997  -9.507   9.040  1.00  0.00     0.002 A 
HETATM   31  C   UNL     1      45.299 -10.243   8.079  1.00  0.00     0.029 A 
ENDBRANCH  22  26
ENDBRANCH   5  20
TORSDOF 6
ENDMDL
