MODEL 1
REMARK VINA RESULT:     -10.2      0.000      0.000
REMARK  8 active torsions:
REMARK  status: ('A' for Active; 'I' for Inactive)
REMARK    1  A    between atoms: C_6  and  S_7 
REMARK    2  A    between atoms: S_7  and  C_8 
REMARK    3  A    between atoms: C_8  and  C_9 
REMARK       I    between atoms: C_9  and  N_10 
REMARK    4  A    between atoms: N_10  and  C_11 
REMARK    5  A    between atoms: C_24  and  C_25 
REMARK    6  A    between atoms: C_25  and  C_26 
REMARK       I    between atoms: C_26  and  N_27 
REMARK    7  A    between atoms: N_27  and  C_28 
REMARK    8  A    between atoms: C_28  and  C_29 
ROOT
HETATM    1  C   UNL     1      46.067 -10.617   7.462  1.00  0.00     0.001 A 
HETATM    2  C   UNL     1      45.061 -11.258   6.740  1.00  0.00     0.018 A 
HETATM    3  C   UNL     1      43.737 -10.843   6.903  1.00  0.00     0.039 A 
HETATM    4  C   UNL     1      43.401  -9.800   7.768  1.00  0.00     0.073 A 
HETATM    5  N   UNL     1      42.079  -9.360   7.928  1.00  0.00    -0.223 NA
HETATM    6  C   UNL     1      41.144  -9.951   7.258  1.00  0.00     0.178 A 
HETATM    7  N   UNL     1      41.380 -11.000   6.377  1.00  0.00    -0.241 N 
HETATM    8  C   UNL     1      42.637 -11.467   6.168  1.00  0.00     0.147 A 
HETATM    9  N   UNL     1      42.781 -12.448   5.335  1.00  0.00    -0.256 NA
HETATM   10  C   UNL     1      40.524 -11.764   5.613  1.00  0.00     0.257 A 
HETATM   11  O   UNL     1      39.304 -11.774   5.590  1.00  0.00    -0.270 OA
HETATM   12  C   UNL     1      41.411 -12.699   4.809  1.00  0.00     0.211 A 
HETATM   13  C   UNL     1      44.417  -9.168   8.485  1.00  0.00     0.032 A 
HETATM   14  C   UNL     1      45.746  -9.574   8.332  1.00  0.00     0.002 A 
ENDROOT
BRANCH  12  15
HETATM   15  C   UNL     1      41.015 -14.151   5.026  1.00  0.00     0.140 C 
BRANCH  15  16
HETATM   16  C   UNL     1      41.350 -15.002   3.822  1.00  0.00     0.220 C 
HETATM   17  N   UNL     1      42.707 -15.125   3.612  1.00  0.00    -0.357 N 
HETATM   18  H   UNL     1      43.326 -14.972   4.397  1.00  0.00     0.162 HD
HETATM   19  O   UNL     1      40.510 -15.555   3.121  1.00  0.00    -0.274 OA
BRANCH  17  20
HETATM   20  C   UNL     1      43.207 -15.894   2.495  1.00  0.00     0.161 C 
BRANCH  20  21
HETATM   21  C   UNL     1      43.409 -17.362   2.798  1.00  0.00    -0.038 A 
HETATM   22  C   UNL     1      43.766 -17.724   4.110  1.00  0.00     0.048 A 
HETATM   23  C   UNL     1      43.906 -19.063   4.411  1.00  0.00     0.105 A 
HETATM   24  C   UNL     1      43.711 -20.041   3.467  1.00  0.00     0.105 A 
HETATM   25  O   UNL     1      44.230 -19.573   5.629  1.00  0.00    -0.323 OA
HETATM   26  O   UNL     1      43.895 -21.291   3.969  1.00  0.00    -0.323 OA
HETATM   27  C   UNL     1      43.356 -19.735   2.172  1.00  0.00     0.040 A 
HETATM   28  C   UNL     1      44.196 -20.988   5.346  1.00  0.00     0.352 A 
HETATM   29  C   UNL     1      43.190 -18.384   1.843  1.00  0.00     0.012 A 
ENDBRANCH  20  21
ENDBRANCH  17  20
ENDBRANCH  15  16
ENDBRANCH  12  15
BRANCH   6  30
HETATM   30  S   UNL     1      39.517  -9.343   7.442  1.00  0.00    -0.082 SA
BRANCH  30  31
HETATM   31  C   UNL     1      39.106 -10.020   9.079  1.00  0.00     0.185 C 
BRANCH  31  32
HETATM   32  C   UNL     1      39.525  -9.168  10.275  1.00  0.00     0.231 C 
HETATM   33  N   UNL     1      40.716  -9.533  10.872  1.00  0.00    -0.327 N 
HETATM   34  H   UNL     1      41.122 -10.394  10.522  1.00  0.00     0.169 HD
HETATM   35  O   UNL     1      38.830  -8.205  10.598  1.00  0.00    -0.272 OA
BRANCH  33  36
HETATM   36  C   UNL     1      41.326  -8.974  12.009  1.00  0.00     0.034 A 
HETATM   37  C   UNL     1      41.002  -9.323  13.323  1.00  0.00     0.032 A 
HETATM   38  C   UNL     1      41.673  -8.730  14.398  1.00  0.00     0.044 A 
HETATM   39  C   UNL     1      42.666  -7.790  14.156  1.00  0.00     0.116 A 
HETATM   40  F   UNL     1      43.311  -7.228  15.186  1.00  0.00    -0.206 F 
HETATM   41  C   UNL     1      42.999  -7.425  12.860  1.00  0.00     0.044 A 
HETATM   42  C   UNL     1      42.326  -8.015  11.787  1.00  0.00     0.032 A 
ENDBRANCH  33  36
ENDBRANCH  31  32
ENDBRANCH  30  31
ENDBRANCH   6  30
TORSDOF 8
ENDMDL
MODEL 2
REMARK VINA RESULT:     -10.2      3.316      8.345
REMARK  8 active torsions:
REMARK  status: ('A' for Active; 'I' for Inactive)
REMARK    1  A    between atoms: C_6  and  S_7 
REMARK    2  A    between atoms: S_7  and  C_8 
REMARK    3  A    between atoms: C_8  and  C_9 
REMARK       I    between atoms: C_9  and  N_10 
REMARK    4  A    between atoms: N_10  and  C_11 
REMARK    5  A    between atoms: C_24  and  C_25 
REMARK    6  A    between atoms: C_25  and  C_26 
REMARK       I    between atoms: C_26  and  N_27 
REMARK    7  A    between atoms: N_27  and  C_28 
REMARK    8  A    between atoms: C_28  and  C_29 
ROOT
HETATM    1  C   UNL     1      44.155 -17.159   5.997  1.00  0.00     0.001 A 
HETATM    2  C   UNL     1      44.301 -15.843   6.435  1.00  0.00     0.018 A 
HETATM    3  C   UNL     1      43.414 -14.869   5.971  1.00  0.00     0.039 A 
HETATM    4  C   UNL     1      42.385 -15.184   5.081  1.00  0.00     0.073 A 
HETATM    5  N   UNL     1      41.477 -14.220   4.620  1.00  0.00    -0.223 NA
HETATM    6  C   UNL     1      41.608 -13.000   5.027  1.00  0.00     0.178 A 
HETATM    7  N   UNL     1      42.601 -12.591   5.908  1.00  0.00    -0.241 N 
HETATM    8  C   UNL     1      43.507 -13.474   6.400  1.00  0.00     0.147 A 
HETATM    9  N   UNL     1      44.406 -13.020   7.214  1.00  0.00    -0.256 NA
HETATM   10  C   UNL     1      42.916 -11.350   6.421  1.00  0.00     0.257 A 
HETATM   11  O   UNL     1      42.447 -10.256   6.148  1.00  0.00    -0.270 OA
HETATM   12  C   UNL     1      44.065 -11.581   7.387  1.00  0.00     0.211 A 
HETATM   13  C   UNL     1      42.252 -16.503   4.649  1.00  0.00     0.032 A 
HETATM   14  C   UNL     1      43.132 -17.488   5.105  1.00  0.00     0.002 A 
ENDROOT
BRANCH  12  15
HETATM   15  C   UNL     1      45.258 -10.706   7.039  1.00  0.00     0.140 C 
BRANCH  15  16
HETATM   16  C   UNL     1      45.573  -9.731   8.151  1.00  0.00     0.220 C 
HETATM   17  N   UNL     1      44.811  -9.942   9.281  1.00  0.00    -0.357 N 
HETATM   18  H   UNL     1      44.406 -10.858   9.418  1.00  0.00     0.162 HD
HETATM   19  O   UNL     1      46.436  -8.864   8.075  1.00  0.00    -0.274 OA
BRANCH  17  20
HETATM   20  C   UNL     1      44.971  -9.091  10.438  1.00  0.00     0.161 C 
BRANCH  20  21
HETATM   21  C   UNL     1      43.842  -9.193  11.439  1.00  0.00    -0.038 A 
HETATM   22  C   UNL     1      43.614  -8.097  12.293  1.00  0.00     0.048 A 
HETATM   23  C   UNL     1      42.557  -8.159  13.177  1.00  0.00     0.105 A 
HETATM   24  C   UNL     1      41.733  -9.255  13.246  1.00  0.00     0.105 A 
HETATM   25  O   UNL     1      42.197  -7.183  14.054  1.00  0.00    -0.323 OA
HETATM   26  O   UNL     1      40.753  -9.112  14.178  1.00  0.00    -0.323 OA
HETATM   27  C   UNL     1      41.913 -10.347  12.426  1.00  0.00     0.040 A 
HETATM   28  C   UNL     1      41.037  -7.785  14.666  1.00  0.00     0.352 A 
HETATM   29  C   UNL     1      42.969 -10.305  11.507  1.00  0.00     0.012 A 
ENDBRANCH  20  21
ENDBRANCH  17  20
ENDBRANCH  15  16
ENDBRANCH  12  15
BRANCH   6  30
HETATM   30  S   UNL     1      40.427 -11.838   4.475  1.00  0.00    -0.082 SA
BRANCH  30  31
HETATM   31  C   UNL     1      39.236 -11.915   5.847  1.00  0.00     0.185 C 
BRANCH  31  32
HETATM   32  C   UNL     1      39.068 -10.629   6.655  1.00  0.00     0.231 C 
HETATM   33  N   UNL     1      39.870 -10.526   7.775  1.00  0.00    -0.327 N 
HETATM   34  H   UNL     1      40.397 -11.362   8.000  1.00  0.00     0.169 HD
HETATM   35  O   UNL     1      38.293  -9.763   6.249  1.00  0.00    -0.272 OA
BRANCH  33  36
HETATM   36  C   UNL     1      39.902  -9.493   8.729  1.00  0.00     0.034 A 
HETATM   37  C   UNL     1      39.060  -9.430   9.843  1.00  0.00     0.032 A 
HETATM   38  C   UNL     1      39.172  -8.375  10.755  1.00  0.00     0.044 A 
HETATM   39  C   UNL     1      40.125  -7.387  10.551  1.00  0.00     0.116 A 
HETATM   40  F   UNL     1      40.235  -6.381  11.428  1.00  0.00    -0.206 F 
HETATM   41  C   UNL     1      40.968  -7.428   9.449  1.00  0.00     0.044 A 
HETATM   42  C   UNL     1      40.853  -8.479   8.537  1.00  0.00     0.032 A 
ENDBRANCH  33  36
ENDBRANCH  31  32
ENDBRANCH  30  31
ENDBRANCH   6  30
TORSDOF 8
ENDMDL
MODEL 3
REMARK VINA RESULT:     -10.1      1.038      1.553
REMARK  8 active torsions:
REMARK  status: ('A' for Active; 'I' for Inactive)
REMARK    1  A    between atoms: C_6  and  S_7 
REMARK    2  A    between atoms: S_7  and  C_8 
REMARK    3  A    between atoms: C_8  and  C_9 
REMARK       I    between atoms: C_9  and  N_10 
REMARK    4  A    between atoms: N_10  and  C_11 
REMARK    5  A    between atoms: C_24  and  C_25 
REMARK    6  A    between atoms: C_25  and  C_26 
REMARK       I    between atoms: C_26  and  N_27 
REMARK    7  A    between atoms: N_27  and  C_28 
REMARK    8  A    between atoms: C_28  and  C_29 
ROOT
HETATM    1  C   UNL     1      46.045 -10.813   7.397  1.00  0.00     0.001 A 
HETATM    2  C   UNL     1      44.899 -11.195   6.701  1.00  0.00     0.018 A 
HETATM    3  C   UNL     1      43.672 -10.620   7.041  1.00  0.00     0.039 A 
HETATM    4  C   UNL     1      43.569  -9.669   8.058  1.00  0.00     0.073 A 
HETATM    5  N   UNL     1      42.348  -9.070   8.399  1.00  0.00    -0.223 NA
HETATM    6  C   UNL     1      41.284  -9.421   7.753  1.00  0.00     0.178 A 
HETATM    7  N   UNL     1      41.287 -10.360   6.729  1.00  0.00    -0.241 N 
HETATM    8  C   UNL     1      42.435 -10.971   6.343  1.00  0.00     0.147 A 
HETATM    9  N   UNL     1      42.361 -11.837   5.383  1.00  0.00    -0.256 NA
HETATM   10  C   UNL     1      40.266 -10.879   5.960  1.00  0.00     0.257 A 
HETATM   11  O   UNL     1      39.061 -10.710   6.054  1.00  0.00    -0.270 OA
HETATM   12  C   UNL     1      40.933 -11.812   4.964  1.00  0.00     0.211 A 
HETATM   13  C   UNL     1      44.723  -9.297   8.748  1.00  0.00     0.032 A 
HETATM   14  C   UNL     1      45.957  -9.865   8.419  1.00  0.00     0.002 A 
ENDROOT
BRANCH  12  15
HETATM   15  C   UNL     1      40.333 -13.207   5.034  1.00  0.00     0.140 C 
BRANCH  15  16
HETATM   16  C   UNL     1      40.794 -14.066   3.878  1.00  0.00     0.220 C 
HETATM   17  N   UNL     1      42.149 -14.317   3.903  1.00  0.00    -0.357 N 
HETATM   18  H   UNL     1      42.632 -14.238   4.787  1.00  0.00     0.162 HD
HETATM   19  O   UNL     1      40.042 -14.523   3.024  1.00  0.00    -0.274 OA
BRANCH  17  20
HETATM   20  C   UNL     1      42.764 -15.112   2.863  1.00  0.00     0.161 C 
BRANCH  20  21
HETATM   21  C   UNL     1      43.156 -16.505   3.303  1.00  0.00    -0.038 A 
HETATM   22  C   UNL     1      43.020 -17.555   2.376  1.00  0.00     0.048 A 
HETATM   23  C   UNL     1      43.419 -18.821   2.749  1.00  0.00     0.105 A 
HETATM   24  C   UNL     1      43.938 -19.080   3.994  1.00  0.00     0.105 A 
HETATM   25  O   UNL     1      43.367 -19.933   1.968  1.00  0.00    -0.323 OA
HETATM   26  O   UNL     1      44.271 -20.387   4.158  1.00  0.00    -0.323 OA
HETATM   27  C   UNL     1      44.095 -18.084   4.932  1.00  0.00     0.040 A 
HETATM   28  C   UNL     1      43.933 -20.917   2.860  1.00  0.00     0.352 A 
HETATM   29  C   UNL     1      43.714 -16.784   4.574  1.00  0.00     0.012 A 
ENDBRANCH  20  21
ENDBRANCH  17  20
ENDBRANCH  15  16
ENDBRANCH  12  15
BRANCH   6  30
HETATM   30  S   UNL     1      39.791  -8.616   8.168  1.00  0.00    -0.082 SA
BRANCH  30  31
HETATM   31  C   UNL     1      39.164  -9.744   9.449  1.00  0.00     0.185 C 
BRANCH  31  32
HETATM   32  C   UNL     1      39.799  -9.600  10.831  1.00  0.00     0.231 C 
HETATM   33  N   UNL     1      40.578  -8.474  11.009  1.00  0.00    -0.327 N 
HETATM   34  H   UNL     1      40.735  -7.927  10.169  1.00  0.00     0.169 HD
HETATM   35  O   UNL     1      39.549 -10.440  11.695  1.00  0.00    -0.272 OA
BRANCH  33  36
HETATM   36  C   UNL     1      41.321  -8.101  12.143  1.00  0.00     0.034 A 
HETATM   37  C   UNL     1      42.717  -8.115  12.204  1.00  0.00     0.032 A 
HETATM   38  C   UNL     1      43.378  -7.709  13.368  1.00  0.00     0.044 A 
HETATM   39  C   UNL     1      42.641  -7.290  14.468  1.00  0.00     0.116 A 
HETATM   40  F   UNL     1      43.276  -6.896  15.580  1.00  0.00    -0.206 F 
HETATM   41  C   UNL     1      41.255  -7.274  14.430  1.00  0.00     0.044 A 
HETATM   42  C   UNL     1      40.595  -7.682  13.269  1.00  0.00     0.032 A 
ENDBRANCH  33  36
ENDBRANCH  31  32
ENDBRANCH  30  31
ENDBRANCH   6  30
TORSDOF 8
ENDMDL
MODEL 4
REMARK VINA RESULT:     -10.0      4.878     10.832
REMARK  8 active torsions:
REMARK  status: ('A' for Active; 'I' for Inactive)
REMARK    1  A    between atoms: C_6  and  S_7 
REMARK    2  A    between atoms: S_7  and  C_8 
REMARK    3  A    between atoms: C_8  and  C_9 
REMARK       I    between atoms: C_9  and  N_10 
REMARK    4  A    between atoms: N_10  and  C_11 
REMARK    5  A    between atoms: C_24  and  C_25 
REMARK    6  A    between atoms: C_25  and  C_26 
REMARK       I    between atoms: C_26  and  N_27 
REMARK    7  A    between atoms: N_27  and  C_28 
REMARK    8  A    between atoms: C_28  and  C_29 
ROOT
HETATM    1  C   UNL     1      43.259 -17.464   3.916  1.00  0.00     0.001 A 
HETATM    2  C   UNL     1      43.476 -16.321   4.684  1.00  0.00     0.018 A 
HETATM    3  C   UNL     1      42.787 -15.147   4.369  1.00  0.00     0.039 A 
HETATM    4  C   UNL     1      41.885 -15.095   3.304  1.00  0.00     0.073 A 
HETATM    5  N   UNL     1      41.173 -13.930   2.986  1.00  0.00    -0.223 NA
HETATM    6  C   UNL     1      41.371 -12.869   3.699  1.00  0.00     0.178 A 
HETATM    7  N   UNL     1      42.250 -12.823   4.774  1.00  0.00    -0.241 N 
HETATM    8  C   UNL     1      42.963 -13.918   5.141  1.00  0.00     0.147 A 
HETATM    9  N   UNL     1      43.765 -13.801   6.151  1.00  0.00    -0.256 NA
HETATM   10  C   UNL     1      42.614 -11.793   5.616  1.00  0.00     0.257 A 
HETATM   11  O   UNL     1      42.317 -10.610   5.568  1.00  0.00    -0.270 OA
HETATM   12  C   UNL     1      43.561 -12.407   6.633  1.00  0.00     0.211 A 
HETATM   13  C   UNL     1      41.678 -16.245   2.543  1.00  0.00     0.032 A 
HETATM   14  C   UNL     1      42.361 -17.427   2.847  1.00  0.00     0.002 A 
ENDROOT
BRANCH  12  15
HETATM   15  C   UNL     1      44.884 -11.657   6.670  1.00  0.00     0.140 C 
BRANCH  15  16
HETATM   16  C   UNL     1      44.977 -10.760   7.883  1.00  0.00     0.220 C 
HETATM   17  N   UNL     1      44.219  -9.615   7.763  1.00  0.00    -0.357 N 
HETATM   18  H   UNL     1      43.446  -9.621   7.113  1.00  0.00     0.162 HD
HETATM   19  O   UNL     1      45.629 -11.032   8.885  1.00  0.00    -0.274 OA
BRANCH  17  20
HETATM   20  C   UNL     1      44.203  -8.635   8.827  1.00  0.00     0.161 C 
BRANCH  20  21
HETATM   21  C   UNL     1      43.337  -9.020  10.005  1.00  0.00    -0.038 A 
HETATM   22  C   UNL     1      41.961  -9.213   9.780  1.00  0.00     0.048 A 
HETATM   23  C   UNL     1      41.168  -9.611  10.837  1.00  0.00     0.105 A 
HETATM   24  C   UNL     1      41.685  -9.817  12.092  1.00  0.00     0.105 A 
HETATM   25  O   UNL     1      39.831  -9.853  10.780  1.00  0.00    -0.323 OA
HETATM   26  O   UNL     1      40.739 -10.208  12.986  1.00  0.00    -0.323 OA
HETATM   27  C   UNL     1      43.025  -9.646  12.358  1.00  0.00     0.040 A 
HETATM   28  C   UNL     1      39.572 -10.256  12.141  1.00  0.00     0.352 A 
HETATM   29  C   UNL     1      43.857  -9.259  11.300  1.00  0.00     0.012 A 
ENDBRANCH  20  21
ENDBRANCH  17  20
ENDBRANCH  15  16
ENDBRANCH  12  15
BRANCH   6  30
HETATM   30  S   UNL     1      40.428 -11.452   3.308  1.00  0.00    -0.082 SA
BRANCH  30  31
HETATM   31  C   UNL     1      41.407 -10.788   1.926  1.00  0.00     0.185 C 
BRANCH  31  32
HETATM   32  C   UNL     1      40.958 -11.214   0.529  1.00  0.00     0.231 C 
HETATM   33  N   UNL     1      40.027 -12.233   0.492  1.00  0.00    -0.327 N 
HETATM   34  H   UNL     1      39.831 -12.664   1.389  1.00  0.00     0.169 HD
HETATM   35  O   UNL     1      41.396 -10.610  -0.451  1.00  0.00    -0.272 OA
BRANCH  33  36
HETATM   36  C   UNL     1      39.472 -12.863  -0.637  1.00  0.00     0.034 A 
HETATM   37  C   UNL     1      39.977 -14.034  -1.209  1.00  0.00     0.032 A 
HETATM   38  C   UNL     1      39.350 -14.604  -2.322  1.00  0.00     0.044 A 
HETATM   39  C   UNL     1      38.219 -14.003  -2.859  1.00  0.00     0.116 A 
HETATM   40  F   UNL     1      37.617 -14.555  -3.920  1.00  0.00    -0.206 F 
HETATM   41  C   UNL     1      37.705 -12.838  -2.309  1.00  0.00     0.044 A 
HETATM   42  C   UNL     1      38.333 -12.266  -1.200  1.00  0.00     0.032 A 
ENDBRANCH  33  36
ENDBRANCH  31  32
ENDBRANCH  30  31
ENDBRANCH   6  30
TORSDOF 8
ENDMDL
MODEL 5
REMARK VINA RESULT:      -9.9      5.651      9.628
REMARK  8 active torsions:
REMARK  status: ('A' for Active; 'I' for Inactive)
REMARK    1  A    between atoms: C_6  and  S_7 
REMARK    2  A    between atoms: S_7  and  C_8 
REMARK    3  A    between atoms: C_8  and  C_9 
REMARK       I    between atoms: C_9  and  N_10 
REMARK    4  A    between atoms: N_10  and  C_11 
REMARK    5  A    between atoms: C_24  and  C_25 
REMARK    6  A    between atoms: C_25  and  C_26 
REMARK       I    between atoms: C_26  and  N_27 
REMARK    7  A    between atoms: N_27  and  C_28 
REMARK    8  A    between atoms: C_28  and  C_29 
ROOT
HETATM    1  C   UNL     1      40.019 -14.980   0.008  1.00  0.00     0.001 A 
HETATM    2  C   UNL     1      40.387 -13.730   0.505  1.00  0.00     0.018 A 
HETATM    3  C   UNL     1      40.531 -13.561   1.884  1.00  0.00     0.039 A 
HETATM    4  C   UNL     1      40.318 -14.615   2.774  1.00  0.00     0.073 A 
HETATM    5  N   UNL     1      40.476 -14.465   4.159  1.00  0.00    -0.223 NA
HETATM    6  C   UNL     1      40.820 -13.308   4.622  1.00  0.00     0.178 A 
HETATM    7  N   UNL     1      41.051 -12.200   3.816  1.00  0.00    -0.241 N 
HETATM    8  C   UNL     1      40.925 -12.279   2.467  1.00  0.00     0.147 A 
HETATM    9  N   UNL     1      41.153 -11.205   1.779  1.00  0.00    -0.256 NA
HETATM   10  C   UNL     1      41.386 -10.898   4.123  1.00  0.00     0.257 A 
HETATM   11  O   UNL     1      41.474 -10.356   5.213  1.00  0.00    -0.270 OA
HETATM   12  C   UNL     1      41.567 -10.193   2.789  1.00  0.00     0.211 A 
HETATM   13  C   UNL     1      39.948 -15.860   2.264  1.00  0.00     0.032 A 
HETATM   14  C   UNL     1      39.799 -16.043   0.887  1.00  0.00     0.002 A 
ENDROOT
BRANCH  12  15
HETATM   15  C   UNL     1      40.684  -8.959   2.699  1.00  0.00     0.140 C 
BRANCH  15  16
HETATM   16  C   UNL     1      39.827  -8.981   1.453  1.00  0.00     0.220 C 
HETATM   17  N   UNL     1      40.568  -8.924   0.291  1.00  0.00    -0.357 N 
HETATM   18  H   UNL     1      41.534  -9.216   0.329  1.00  0.00     0.162 HD
HETATM   19  O   UNL     1      38.605  -9.074   1.466  1.00  0.00    -0.274 OA
BRANCH  17  20
HETATM   20  C   UNL     1      39.908  -8.922  -0.995  1.00  0.00     0.161 C 
BRANCH  20  21
HETATM   21  C   UNL     1      39.876 -10.273  -1.673  1.00  0.00    -0.038 A 
HETATM   22  C   UNL     1      38.690 -11.027  -1.592  1.00  0.00     0.048 A 
HETATM   23  C   UNL     1      38.631 -12.239  -2.246  1.00  0.00     0.105 A 
HETATM   24  C   UNL     1      39.695 -12.726  -2.965  1.00  0.00     0.105 A 
HETATM   25  O   UNL     1      37.558 -13.075  -2.277  1.00  0.00    -0.323 OA
HETATM   26  O   UNL     1      39.430 -13.932  -3.534  1.00  0.00    -0.323 OA
HETATM   27  C   UNL     1      40.873 -12.022  -3.078  1.00  0.00     0.040 A 
HETATM   28  C   UNL     1      38.065 -14.134  -3.117  1.00  0.00     0.352 A 
HETATM   29  C   UNL     1      40.955 -10.779  -2.438  1.00  0.00     0.012 A 
ENDBRANCH  20  21
ENDBRANCH  17  20
ENDBRANCH  15  16
ENDBRANCH  12  15
BRANCH   6  30
HETATM   30  S   UNL     1      41.060 -13.171   6.347  1.00  0.00    -0.082 SA
BRANCH  30  31
HETATM   31  C   UNL     1      42.687 -13.968   6.507  1.00  0.00     0.185 C 
BRANCH  31  32
HETATM   32  C   UNL     1      42.741 -15.449   6.136  1.00  0.00     0.231 C 
HETATM   33  N   UNL     1      43.410 -15.740   4.963  1.00  0.00    -0.327 N 
HETATM   34  H   UNL     1      43.691 -14.931   4.421  1.00  0.00     0.169 HD
HETATM   35  O   UNL     1      42.249 -16.278   6.902  1.00  0.00    -0.272 OA
BRANCH  33  36
HETATM   36  C   UNL     1      43.579 -16.993   4.346  1.00  0.00     0.034 A 
HETATM   37  C   UNL     1      44.175 -18.096   4.964  1.00  0.00     0.032 A 
HETATM   38  C   UNL     1      44.286 -19.313   4.283  1.00  0.00     0.044 A 
HETATM   39  C   UNL     1      43.800 -19.424   2.987  1.00  0.00     0.116 A 
HETATM   40  F   UNL     1      43.901 -20.592   2.340  1.00  0.00    -0.206 F 
HETATM   41  C   UNL     1      43.209 -18.340   2.354  1.00  0.00     0.044 A 
HETATM   42  C   UNL     1      43.101 -17.124   3.033  1.00  0.00     0.032 A 
ENDBRANCH  33  36
ENDBRANCH  31  32
ENDBRANCH  30  31
ENDBRANCH   6  30
TORSDOF 8
ENDMDL
MODEL 6
REMARK VINA RESULT:      -9.8      3.980     11.267
REMARK  8 active torsions:
REMARK  status: ('A' for Active; 'I' for Inactive)
REMARK    1  A    between atoms: C_6  and  S_7 
REMARK    2  A    between atoms: S_7  and  C_8 
REMARK    3  A    between atoms: C_8  and  C_9 
REMARK       I    between atoms: C_9  and  N_10 
REMARK    4  A    between atoms: N_10  and  C_11 
REMARK    5  A    between atoms: C_24  and  C_25 
REMARK    6  A    between atoms: C_25  and  C_26 
REMARK       I    between atoms: C_26  and  N_27 
REMARK    7  A    between atoms: N_27  and  C_28 
REMARK    8  A    between atoms: C_28  and  C_29 
ROOT
HETATM    1  C   UNL     1      39.821  -7.208   7.582  1.00  0.00     0.001 A 
HETATM    2  C   UNL     1      41.116  -7.607   7.906  1.00  0.00     0.018 A 
HETATM    3  C   UNL     1      41.598  -8.823   7.415  1.00  0.00     0.039 A 
HETATM    4  C   UNL     1      40.812  -9.645   6.606  1.00  0.00     0.073 A 
HETATM    5  N   UNL     1      41.287 -10.859   6.091  1.00  0.00    -0.223 NA
HETATM    6  C   UNL     1      42.490 -11.230   6.388  1.00  0.00     0.178 A 
HETATM    7  N   UNL     1      43.344 -10.482   7.189  1.00  0.00    -0.241 N 
HETATM    8  C   UNL     1      42.951  -9.293   7.711  1.00  0.00     0.147 A 
HETATM    9  N   UNL     1      43.799  -8.652   8.450  1.00  0.00    -0.256 NA
HETATM   10  C   UNL     1      44.626 -10.725   7.636  1.00  0.00     0.257 A 
HETATM   11  O   UNL     1      45.313 -11.726   7.516  1.00  0.00    -0.270 OA
HETATM   12  C   UNL     1      45.033  -9.485   8.415  1.00  0.00     0.211 A 
HETATM   13  C   UNL     1      39.517  -9.235   6.290  1.00  0.00     0.032 A 
HETATM   14  C   UNL     1      39.022  -8.021   6.775  1.00  0.00     0.002 A 
ENDROOT
BRANCH  12  15
HETATM   15  C   UNL     1      45.474  -9.844   9.825  1.00  0.00     0.140 C 
BRANCH  15  16
HETATM   16  C   UNL     1      44.304 -10.289  10.674  1.00  0.00     0.220 C 
HETATM   17  N   UNL     1      43.663  -9.239  11.295  1.00  0.00    -0.357 N 
HETATM   18  H   UNL     1      43.765  -8.316  10.897  1.00  0.00     0.162 HD
HETATM   19  O   UNL     1      43.939 -11.454  10.777  1.00  0.00    -0.274 OA
BRANCH  17  20
HETATM   20  C   UNL     1      42.529  -9.484  12.158  1.00  0.00     0.161 C 
BRANCH  20  21
HETATM   21  C   UNL     1      42.459  -8.566  13.358  1.00  0.00    -0.038 A 
HETATM   22  C   UNL     1      41.545  -8.883  14.381  1.00  0.00     0.048 A 
HETATM   23  C   UNL     1      41.505  -8.081  15.503  1.00  0.00     0.105 A 
HETATM   24  C   UNL     1      42.325  -6.988  15.641  1.00  0.00     0.105 A 
HETATM   25  O   UNL     1      40.695  -8.261  16.580  1.00  0.00    -0.323 OA
HETATM   26  O   UNL     1      42.130  -6.337  16.818  1.00  0.00    -0.323 OA
HETATM   27  C   UNL     1      43.238  -6.642  14.669  1.00  0.00     0.040 A 
HETATM   28  C   UNL     1      41.115  -7.166  17.420  1.00  0.00     0.352 A 
HETATM   29  C   UNL     1      43.312  -7.449  13.527  1.00  0.00     0.012 A 
ENDBRANCH  20  21
ENDBRANCH  17  20
ENDBRANCH  15  16
ENDBRANCH  12  15
BRANCH   6  30
HETATM   30  S   UNL     1      43.067 -12.722   5.687  1.00  0.00    -0.082 SA
BRANCH  30  31
HETATM   31  C   UNL     1      41.815 -13.879   6.321  1.00  0.00     0.185 C 
BRANCH  31  32
HETATM   32  C   UNL     1      41.867 -15.294   5.749  1.00  0.00     0.231 C 
HETATM   33  N   UNL     1      42.903 -15.539   4.869  1.00  0.00    -0.327 N 
HETATM   34  H   UNL     1      43.446 -14.722   4.613  1.00  0.00     0.169 HD
HETATM   35  O   UNL     1      41.042 -16.125   6.129  1.00  0.00    -0.272 OA
BRANCH  33  36
HETATM   36  C   UNL     1      43.175 -16.718   4.153  1.00  0.00     0.034 A 
HETATM   37  C   UNL     1      42.623 -17.022   2.905  1.00  0.00     0.032 A 
HETATM   38  C   UNL     1      42.964 -18.211   2.252  1.00  0.00     0.044 A 
HETATM   39  C   UNL     1      43.856 -19.093   2.848  1.00  0.00     0.116 A 
HETATM   40  F   UNL     1      44.185 -20.228   2.218  1.00  0.00    -0.206 F 
HETATM   41  C   UNL     1      44.411 -18.813   4.088  1.00  0.00     0.044 A 
HETATM   42  C   UNL     1      44.068 -17.627   4.742  1.00  0.00     0.032 A 
ENDBRANCH  33  36
ENDBRANCH  31  32
ENDBRANCH  30  31
ENDBRANCH   6  30
TORSDOF 8
ENDMDL
MODEL 7
REMARK VINA RESULT:      -9.7      3.420      5.536
REMARK  8 active torsions:
REMARK  status: ('A' for Active; 'I' for Inactive)
REMARK    1  A    between atoms: C_6  and  S_7 
REMARK    2  A    between atoms: S_7  and  C_8 
REMARK    3  A    between atoms: C_8  and  C_9 
REMARK       I    between atoms: C_9  and  N_10 
REMARK    4  A    between atoms: N_10  and  C_11 
REMARK    5  A    between atoms: C_24  and  C_25 
REMARK    6  A    between atoms: C_25  and  C_26 
REMARK       I    between atoms: C_26  and  N_27 
REMARK    7  A    between atoms: N_27  and  C_28 
REMARK    8  A    between atoms: C_28  and  C_29 
ROOT
HETATM    1  C   UNL     1      40.287 -15.249   0.456  1.00  0.00     0.001 A 
HETATM    2  C   UNL     1      40.373 -15.073   1.837  1.00  0.00     0.018 A 
HETATM    3  C   UNL     1      39.985 -13.852   2.393  1.00  0.00     0.039 A 
HETATM    4  C   UNL     1      39.512 -12.806   1.599  1.00  0.00     0.073 A 
HETATM    5  N   UNL     1      39.104 -11.581   2.144  1.00  0.00    -0.223 NA
HETATM    6  C   UNL     1      39.179 -11.416   3.425  1.00  0.00     0.178 A 
HETATM    7  N   UNL     1      39.640 -12.397   4.295  1.00  0.00    -0.241 N 
HETATM    8  C   UNL     1      40.042 -13.608   3.834  1.00  0.00     0.147 A 
HETATM    9  N   UNL     1      40.461 -14.471   4.703  1.00  0.00    -0.256 NA
HETATM   10  C   UNL     1      39.822 -12.395   5.662  1.00  0.00     0.257 A 
HETATM   11  O   UNL     1      39.711 -11.476   6.458  1.00  0.00    -0.270 OA
HETATM   12  C   UNL     1      40.283 -13.797   6.019  1.00  0.00     0.211 A 
HETATM   13  C   UNL     1      39.433 -12.994   0.219  1.00  0.00     0.032 A 
HETATM   14  C   UNL     1      39.818 -14.211  -0.352  1.00  0.00     0.002 A 
ENDROOT
BRANCH  12  15
HETATM   15  C   UNL     1      41.598 -13.764   6.782  1.00  0.00     0.140 C 
BRANCH  15  16
HETATM   16  C   UNL     1      42.253 -15.126   6.816  1.00  0.00     0.220 C 
HETATM   17  N   UNL     1      43.483 -15.146   6.194  1.00  0.00    -0.357 N 
HETATM   18  H   UNL     1      43.981 -14.272   6.096  1.00  0.00     0.162 HD
HETATM   19  O   UNL     1      41.763 -16.106   7.367  1.00  0.00    -0.274 OA
BRANCH  17  20
HETATM   20  C   UNL     1      44.245 -16.372   6.121  1.00  0.00     0.161 C 
BRANCH  20  21
HETATM   21  C   UNL     1      43.987 -17.185   4.872  1.00  0.00    -0.038 A 
HETATM   22  C   UNL     1      44.260 -18.565   4.912  1.00  0.00     0.048 A 
HETATM   23  C   UNL     1      43.984 -19.325   3.795  1.00  0.00     0.105 A 
HETATM   24  C   UNL     1      43.458 -18.771   2.654  1.00  0.00     0.105 A 
HETATM   25  O   UNL     1      44.175 -20.667   3.679  1.00  0.00    -0.323 OA
HETATM   26  O   UNL     1      43.257 -19.691   1.673  1.00  0.00    -0.323 OA
HETATM   27  C   UNL     1      43.169 -17.427   2.570  1.00  0.00     0.040 A 
HETATM   28  C   UNL     1      43.688 -20.895   2.340  1.00  0.00     0.352 A 
HETATM   29  C   UNL     1      43.423 -16.634   3.696  1.00  0.00     0.012 A 
ENDBRANCH  20  21
ENDBRANCH  17  20
ENDBRANCH  15  16
ENDBRANCH  12  15
BRANCH   6  30
HETATM   30  S   UNL     1      38.612  -9.898   4.074  1.00  0.00    -0.082 SA
BRANCH  30  31
HETATM   31  C   UNL     1      40.051  -8.843   3.725  1.00  0.00     0.185 C 
BRANCH  31  32
HETATM   32  C   UNL     1      41.116  -8.787   4.820  1.00  0.00     0.231 C 
HETATM   33  N   UNL     1      41.865  -9.937   4.976  1.00  0.00    -0.327 N 
HETATM   34  H   UNL     1      41.550 -10.728   4.425  1.00  0.00     0.169 HD
HETATM   35  O   UNL     1      41.276  -7.739   5.446  1.00  0.00    -0.272 OA
BRANCH  33  36
HETATM   36  C   UNL     1      42.871 -10.197   5.924  1.00  0.00     0.034 A 
HETATM   37  C   UNL     1      42.899  -9.645   7.207  1.00  0.00     0.032 A 
HETATM   38  C   UNL     1      43.929  -9.974   8.095  1.00  0.00     0.044 A 
HETATM   39  C   UNL     1      44.927 -10.853   7.698  1.00  0.00     0.116 A 
HETATM   40  F   UNL     1      45.908 -11.171   8.552  1.00  0.00    -0.206 F 
HETATM   41  C   UNL     1      44.920 -11.408   6.426  1.00  0.00     0.044 A 
HETATM   42  C   UNL     1      43.894 -11.077   5.538  1.00  0.00     0.032 A 
ENDBRANCH  33  36
ENDBRANCH  31  32
ENDBRANCH  30  31
ENDBRANCH   6  30
TORSDOF 8
ENDMDL
MODEL 8
REMARK VINA RESULT:      -9.5      4.700      7.848
REMARK  8 active torsions:
REMARK  status: ('A' for Active; 'I' for Inactive)
REMARK    1  A    between atoms: C_6  and  S_7 
REMARK    2  A    between atoms: S_7  and  C_8 
REMARK    3  A    between atoms: C_8  and  C_9 
REMARK       I    between atoms: C_9  and  N_10 
REMARK    4  A    between atoms: N_10  and  C_11 
REMARK    5  A    between atoms: C_24  and  C_25 
REMARK    6  A    between atoms: C_25  and  C_26 
REMARK       I    between atoms: C_26  and  N_27 
REMARK    7  A    between atoms: N_27  and  C_28 
REMARK    8  A    between atoms: C_28  and  C_29 
ROOT
HETATM    1  C   UNL     1      43.976 -18.730   2.914  1.00  0.00     0.001 A 
HETATM    2  C   UNL     1      43.293 -17.672   2.315  1.00  0.00     0.018 A 
HETATM    3  C   UNL     1      42.984 -16.542   3.076  1.00  0.00     0.039 A 
HETATM    4  C   UNL     1      43.347 -16.448   4.421  1.00  0.00     0.073 A 
HETATM    5  N   UNL     1      43.060 -15.313   5.193  1.00  0.00    -0.223 NA
HETATM    6  C   UNL     1      42.429 -14.330   4.639  1.00  0.00     0.178 A 
HETATM    7  N   UNL     1      42.025 -14.333   3.310  1.00  0.00    -0.241 N 
HETATM    8  C   UNL     1      42.279 -15.396   2.505  1.00  0.00     0.147 A 
HETATM    9  N   UNL     1      41.870 -15.330   1.278  1.00  0.00    -0.256 NA
HETATM   10  C   UNL     1      41.324 -13.409   2.564  1.00  0.00     0.257 A 
HETATM   11  O   UNL     1      40.788 -12.371   2.918  1.00  0.00    -0.270 OA
HETATM   12  C   UNL     1      41.268 -13.974   1.155  1.00  0.00     0.211 A 
HETATM   13  C   UNL     1      44.028 -17.514   5.009  1.00  0.00     0.032 A 
HETATM   14  C   UNL     1      44.343 -18.651   4.259  1.00  0.00     0.002 A 
ENDROOT
BRANCH  12  15
HETATM   15  C   UNL     1      39.833 -14.071   0.661  1.00  0.00     0.140 C 
BRANCH  15  16
HETATM   16  C   UNL     1      39.660 -13.386  -0.676  1.00  0.00     0.220 C 
HETATM   17  N   UNL     1      40.851 -13.211  -1.347  1.00  0.00    -0.357 N 
HETATM   18  H   UNL     1      41.626 -13.813  -1.107  1.00  0.00     0.162 HD
HETATM   19  O   UNL     1      38.574 -13.050  -1.136  1.00  0.00    -0.274 OA
BRANCH  17  20
HETATM   20  C   UNL     1      40.873 -12.559  -2.638  1.00  0.00     0.161 C 
BRANCH  20  21
HETATM   21  C   UNL     1      40.991 -11.053  -2.566  1.00  0.00    -0.038 A 
HETATM   22  C   UNL     1      41.806 -10.500  -1.560  1.00  0.00     0.048 A 
HETATM   23  C   UNL     1      41.959  -9.130  -1.514  1.00  0.00     0.105 A 
HETATM   24  C   UNL     1      41.337  -8.301  -2.415  1.00  0.00     0.105 A 
HETATM   25  O   UNL     1      42.721  -8.446  -0.619  1.00  0.00    -0.323 OA
HETATM   26  O   UNL     1      41.622  -6.990  -2.197  1.00  0.00    -0.323 OA
HETATM   27  C   UNL     1      40.535  -8.797  -3.418  1.00  0.00     0.040 A 
HETATM   28  C   UNL     1      42.522  -7.091  -1.075  1.00  0.00     0.352 A 
HETATM   29  C   UNL     1      40.375 -10.186  -3.500  1.00  0.00     0.012 A 
ENDBRANCH  20  21
ENDBRANCH  17  20
ENDBRANCH  15  16
ENDBRANCH  12  15
BRANCH   6  30
HETATM   30  S   UNL     1      42.136 -12.912   5.616  1.00  0.00    -0.082 SA
BRANCH  30  31
HETATM   31  C   UNL     1      43.747 -12.081   5.465  1.00  0.00     0.185 C 
BRANCH  31  32
HETATM   32  C   UNL     1      44.311 -11.486   6.754  1.00  0.00     0.231 C 
HETATM   33  N   UNL     1      43.376 -10.951   7.617  1.00  0.00    -0.327 N 
HETATM   34  H   UNL     1      42.432 -10.909   7.250  1.00  0.00     0.169 HD
HETATM   35  O   UNL     1      45.521 -11.561   6.968  1.00  0.00    -0.272 OA
BRANCH  33  36
HETATM   36  C   UNL     1      43.597 -10.296   8.842  1.00  0.00     0.034 A 
HETATM   37  C   UNL     1      44.793 -10.366   9.562  1.00  0.00     0.032 A 
HETATM   38  C   UNL     1      44.936  -9.667  10.766  1.00  0.00     0.044 A 
HETATM   39  C   UNL     1      43.882  -8.900  11.245  1.00  0.00     0.116 A 
HETATM   40  F   UNL     1      44.023  -8.226  12.394  1.00  0.00    -0.206 F 
HETATM   41  C   UNL     1      42.685  -8.821  10.549  1.00  0.00     0.044 A 
HETATM   42  C   UNL     1      42.542  -9.522   9.349  1.00  0.00     0.032 A 
ENDBRANCH  33  36
ENDBRANCH  31  32
ENDBRANCH  30  31
ENDBRANCH   6  30
TORSDOF 8
ENDMDL
MODEL 9
REMARK VINA RESULT:      -9.4      3.807     10.850
REMARK  8 active torsions:
REMARK  status: ('A' for Active; 'I' for Inactive)
REMARK    1  A    between atoms: C_6  and  S_7 
REMARK    2  A    between atoms: S_7  and  C_8 
REMARK    3  A    between atoms: C_8  and  C_9 
REMARK       I    between atoms: C_9  and  N_10 
REMARK    4  A    between atoms: N_10  and  C_11 
REMARK    5  A    between atoms: C_24  and  C_25 
REMARK    6  A    between atoms: C_25  and  C_26 
REMARK       I    between atoms: C_26  and  N_27 
REMARK    7  A    between atoms: N_27  and  C_28 
REMARK    8  A    between atoms: C_28  and  C_29 
ROOT
HETATM    1  C   UNL     1      39.894  -7.127   7.652  1.00  0.00     0.001 A 
HETATM    2  C   UNL     1      41.195  -7.506   7.980  1.00  0.00     0.018 A 
HETATM    3  C   UNL     1      41.692  -8.721   7.503  1.00  0.00     0.039 A 
HETATM    4  C   UNL     1      40.916  -9.562   6.703  1.00  0.00     0.073 A 
HETATM    5  N   UNL     1      41.406 -10.776   6.202  1.00  0.00    -0.223 NA
HETATM    6  C   UNL     1      42.614 -11.128   6.502  1.00  0.00     0.178 A 
HETATM    7  N   UNL     1      43.459 -10.360   7.294  1.00  0.00    -0.241 N 
HETATM    8  C   UNL     1      43.051  -9.171   7.803  1.00  0.00     0.147 A 
HETATM    9  N   UNL     1      43.892  -8.511   8.534  1.00  0.00    -0.256 NA
HETATM   10  C   UNL     1      44.744 -10.581   7.743  1.00  0.00     0.257 A 
HETATM   11  O   UNL     1      45.444 -11.575   7.634  1.00  0.00    -0.270 OA
HETATM   12  C   UNL     1      45.136  -9.328   8.507  1.00  0.00     0.211 A 
HETATM   13  C   UNL     1      39.615  -9.172   6.383  1.00  0.00     0.032 A 
HETATM   14  C   UNL     1      39.105  -7.959   6.855  1.00  0.00     0.002 A 
ENDROOT
BRANCH  12  15
HETATM   15  C   UNL     1      45.582  -9.666   9.920  1.00  0.00     0.140 C 
BRANCH  15  16
HETATM   16  C   UNL     1      44.407 -10.035  10.798  1.00  0.00     0.220 C 
HETATM   17  N   UNL     1      43.883  -8.955  11.476  1.00  0.00    -0.357 N 
HETATM   18  H   UNL     1      44.052  -8.031  11.103  1.00  0.00     0.162 HD
HETATM   19  O   UNL     1      43.944 -11.168  10.878  1.00  0.00    -0.274 OA
BRANCH  17  20
HETATM   20  C   UNL     1      42.762  -9.130  12.372  1.00  0.00     0.161 C 
BRANCH  20  21
HETATM   21  C   UNL     1      41.526  -8.358  11.971  1.00  0.00    -0.038 A 
HETATM   22  C   UNL     1      41.603  -6.952  11.945  1.00  0.00     0.048 A 
HETATM   23  C   UNL     1      40.497  -6.238  11.534  1.00  0.00     0.105 A 
HETATM   24  C   UNL     1      39.331  -6.860  11.159  1.00  0.00     0.105 A 
HETATM   25  O   UNL     1      40.416  -4.884  11.439  1.00  0.00    -0.323 OA
HETATM   26  O   UNL     1      38.367  -5.977  10.787  1.00  0.00    -0.323 OA
HETATM   27  C   UNL     1      39.211  -8.232  11.164  1.00  0.00     0.040 A 
HETATM   28  C   UNL     1      39.071  -4.728  10.940  1.00  0.00     0.352 A 
HETATM   29  C   UNL     1      40.324  -8.983  11.560  1.00  0.00     0.012 A 
ENDBRANCH  20  21
ENDBRANCH  17  20
ENDBRANCH  15  16
ENDBRANCH  12  15
BRANCH   6  30
HETATM   30  S   UNL     1      43.209 -12.620   5.817  1.00  0.00    -0.082 SA
BRANCH  30  31
HETATM   31  C   UNL     1      41.739 -13.672   6.014  1.00  0.00     0.185 C 
BRANCH  31  32
HETATM   32  C   UNL     1      41.924 -15.147   5.661  1.00  0.00     0.231 C 
HETATM   33  N   UNL     1      42.894 -15.411   4.715  1.00  0.00    -0.327 N 
HETATM   34  H   UNL     1      43.296 -14.590   4.277  1.00  0.00     0.169 HD
HETATM   35  O   UNL     1      41.257 -15.993   6.257  1.00  0.00    -0.272 OA
BRANCH  33  36
HETATM   36  C   UNL     1      43.252 -16.652   4.160  1.00  0.00     0.034 A 
HETATM   37  C   UNL     1      44.115 -17.565   4.772  1.00  0.00     0.032 A 
HETATM   38  C   UNL     1      44.402 -18.789   4.157  1.00  0.00     0.044 A 
HETATM   39  C   UNL     1      43.825 -19.096   2.932  1.00  0.00     0.116 A 
HETATM   40  F   UNL     1      44.096 -20.270   2.348  1.00  0.00    -0.206 F 
HETATM   41  C   UNL     1      42.969 -18.202   2.305  1.00  0.00     0.044 A 
HETATM   42  C   UNL     1      42.685 -16.979   2.918  1.00  0.00     0.032 A 
ENDBRANCH  33  36
ENDBRANCH  31  32
ENDBRANCH  30  31
ENDBRANCH   6  30
TORSDOF 8
ENDMDL
MODEL 10
REMARK VINA RESULT:      -9.3      2.711      4.566
REMARK  8 active torsions:
REMARK  status: ('A' for Active; 'I' for Inactive)
REMARK    1  A    between atoms: C_6  and  S_7 
REMARK    2  A    between atoms: S_7  and  C_8 
REMARK    3  A    between atoms: C_8  and  C_9 
REMARK       I    between atoms: C_9  and  N_10 
REMARK    4  A    between atoms: N_10  and  C_11 
REMARK    5  A    between atoms: C_24  and  C_25 
REMARK    6  A    between atoms: C_25  and  C_26 
REMARK       I    between atoms: C_26  and  N_27 
REMARK    7  A    between atoms: N_27  and  C_28 
REMARK    8  A    between atoms: C_28  and  C_29 
ROOT
HETATM    1  C   UNL     1      46.255 -10.624   7.748  1.00  0.00     0.001 A 
HETATM    2  C   UNL     1      45.350 -11.376   7.000  1.00  0.00     0.018 A 
HETATM    3  C   UNL     1      44.001 -11.016   7.001  1.00  0.00     0.039 A 
HETATM    4  C   UNL     1      43.539  -9.918   7.730  1.00  0.00     0.073 A 
HETATM    5  N   UNL     1      42.191  -9.534   7.727  1.00  0.00    -0.223 NA
HETATM    6  C   UNL     1      41.350 -10.228   7.032  1.00  0.00     0.178 A 
HETATM    7  N   UNL     1      41.714 -11.337   6.278  1.00  0.00    -0.241 N 
HETATM    8  C   UNL     1      43.003 -11.758   6.230  1.00  0.00     0.147 A 
HETATM    9  N   UNL     1      43.268 -12.800   5.509  1.00  0.00    -0.256 NA
HETATM   10  C   UNL     1      40.968 -12.209   5.513  1.00  0.00     0.257 A 
HETATM   11  O   UNL     1      39.757 -12.283   5.380  1.00  0.00    -0.270 OA
HETATM   12  C   UNL     1      41.967 -13.166   4.885  1.00  0.00     0.211 A 
HETATM   13  C   UNL     1      44.455  -9.175   8.475  1.00  0.00     0.032 A 
HETATM   14  C   UNL     1      45.808  -9.525   8.484  1.00  0.00     0.002 A 
ENDROOT
BRANCH  12  15
HETATM   15  C   UNL     1      41.613 -14.611   5.199  1.00  0.00     0.140 C 
BRANCH  15  16
HETATM   16  C   UNL     1      41.123 -15.341   3.969  1.00  0.00     0.220 C 
HETATM   17  N   UNL     1      41.639 -14.826   2.798  1.00  0.00    -0.357 N 
HETATM   18  H   UNL     1      42.500 -14.300   2.849  1.00  0.00     0.162 HD
HETATM   19  O   UNL     1      40.373 -16.310   4.003  1.00  0.00    -0.274 OA
BRANCH  17  20
HETATM   20  C   UNL     1      41.265 -15.396   1.523  1.00  0.00     0.161 C 
BRANCH  20  21
HETATM   21  C   UNL     1      40.727 -14.388   0.532  1.00  0.00    -0.038 A 
HETATM   22  C   UNL     1      39.786 -14.830  -0.416  1.00  0.00     0.048 A 
HETATM   23  C   UNL     1      39.252 -13.910  -1.295  1.00  0.00     0.105 A 
HETATM   24  C   UNL     1      39.618 -12.586  -1.268  1.00  0.00     0.105 A 
HETATM   25  O   UNL     1      38.325 -14.173  -2.255  1.00  0.00    -0.323 OA
HETATM   26  O   UNL     1      38.974 -11.850  -2.212  1.00  0.00    -0.323 OA
HETATM   27  C   UNL     1      40.530 -12.108  -0.355  1.00  0.00     0.040 A 
HETATM   28  C   UNL     1      38.136 -12.857  -2.815  1.00  0.00     0.352 A 
HETATM   29  C   UNL     1      41.076 -13.016   0.561  1.00  0.00     0.012 A 
ENDBRANCH  20  21
ENDBRANCH  17  20
ENDBRANCH  15  16
ENDBRANCH  12  15
BRANCH   6  30
HETATM   30  S   UNL     1      39.689  -9.689   7.008  1.00  0.00    -0.082 SA
BRANCH  30  31
HETATM   31  C   UNL     1      39.154 -10.228   8.660  1.00  0.00     0.185 C 
BRANCH  31  32
HETATM   32  C   UNL     1      39.599  -9.344   9.825  1.00  0.00     0.231 C 
HETATM   33  N   UNL     1      40.704  -9.794  10.520  1.00  0.00    -0.327 N 
HETATM   34  H   UNL     1      41.028 -10.718  10.254  1.00  0.00     0.169 HD
HETATM   35  O   UNL     1      39.001  -8.290  10.039  1.00  0.00    -0.272 OA
BRANCH  33  36
HETATM   36  C   UNL     1      41.307  -9.226  11.656  1.00  0.00     0.034 A 
HETATM   37  C   UNL     1      42.457  -8.432  11.618  1.00  0.00     0.032 A 
HETATM   38  C   UNL     1      42.980  -7.889  12.796  1.00  0.00     0.044 A 
HETATM   39  C   UNL     1      42.352  -8.140  14.009  1.00  0.00     0.116 A 
HETATM   40  F   UNL     1      42.852  -7.614  15.135  1.00  0.00    -0.206 F 
HETATM   41  C   UNL     1      41.213  -8.929  14.069  1.00  0.00     0.044 A 
HETATM   42  C   UNL     1      40.693  -9.475  12.893  1.00  0.00     0.032 A 
ENDBRANCH  33  36
ENDBRANCH  31  32
ENDBRANCH  30  31
ENDBRANCH   6  30
TORSDOF 8
ENDMDL
