MODEL 1
REMARK VINA RESULT:      -9.6      0.000      0.000
REMARK  7 active torsions:
REMARK  status: ('A' for Active; 'I' for Inactive)
REMARK    1  A    between atoms: C_4  and  C_5 
REMARK    2  A    between atoms: C_9  and  C_10 
REMARK       I    between atoms: C_10  and  N_11 
REMARK    3  A    between atoms: N_11  and  N_12 
REMARK       I    between atoms: N_12  and  C_13 
REMARK    4  A    between atoms: C_13  and  C_14 
REMARK    5  A    between atoms: C_14  and  C_15 
REMARK    6  A    between atoms: C_15  and  C_16 
REMARK    7  A    between atoms: C_16  and  C_17 
ROOT
HETATM    1  N   UNL     1      43.211 -11.735   7.635  1.00  0.00    -0.267 N 
HETATM    2  C   UNL     1      44.220 -10.801   7.731  1.00  0.00     0.236 C 
HETATM    3  O   UNL     1      45.378 -11.035   7.393  1.00  0.00    -0.272 OA
HETATM    4  H   UNL     1      42.296 -11.616   8.069  1.00  0.00     0.190 HD
ENDROOT
BRANCH   1   5
HETATM    5  N   UNL     1      43.557 -13.031   7.239  1.00  0.00    -0.262 N 
HETATM    6  C   UNL     1      43.033 -13.540   6.069  1.00  0.00     0.288 C 
HETATM    7  O   UNL     1      42.308 -12.868   5.337  1.00  0.00    -0.264 OA
HETATM    8  H   UNL     1      44.075 -13.588   7.914  1.00  0.00     0.190 HD
BRANCH   6   9
HETATM    9  C   UNL     1      43.398 -14.895   5.767  1.00  0.00     0.121 A 
HETATM   10  N   UNL     1      44.179 -15.636   6.609  1.00  0.00    -0.272 N 
HETATM   11  N   UNL     1      44.398 -16.891   6.195  1.00  0.00    -0.174 NA
HETATM   12  H   UNL     1      44.580 -15.333   7.492  1.00  0.00     0.189 HD
HETATM   13  C   UNL     1      43.751 -16.983   5.022  1.00  0.00     0.089 A 
HETATM   14  C   UNL     1      43.113 -15.746   4.717  1.00  0.00     0.071 A 
BRANCH  13  15
HETATM   15  C   UNL     1      43.739 -18.224   4.241  1.00  0.00    -0.006 A 
HETATM   16  C   UNL     1      44.094 -19.442   4.840  1.00  0.00     0.014 A 
HETATM   17  C   UNL     1      44.068 -20.634   4.111  1.00  0.00     0.001 A 
HETATM   18  C   UNL     1      43.693 -20.622   2.770  1.00  0.00     0.000 A 
HETATM   19  C   UNL     1      43.346 -19.420   2.157  1.00  0.00     0.001 A 
HETATM   20  C   UNL     1      43.368 -18.227   2.887  1.00  0.00     0.014 A 
ENDBRANCH  13  15
ENDBRANCH   6   9
ENDBRANCH   1   5
BRANCH   2  21
HETATM   21  C   UNL     1      43.748  -9.470   8.267  1.00  0.00     0.112 C 
BRANCH  21  22
HETATM   22  C   UNL     1      44.670  -8.953   9.367  1.00  0.00     0.093 C 
BRANCH  22  23
HETATM   23  C   UNL     1      44.613  -9.835  10.599  1.00  0.00     0.160 C 
HETATM   24  O   UNL     1      45.359 -10.801  10.738  1.00  0.00    -0.292 OA
BRANCH  23  25
HETATM   25  C   UNL     1      43.618  -9.513  11.667  1.00  0.00     0.013 A 
HETATM   26  C   UNL     1      43.690  -8.257  12.288  1.00  0.00     0.054 A 
HETATM   27  C   UNL     1      42.773  -7.913  13.280  1.00  0.00     0.103 A 
HETATM   28  C   UNL     1      41.796  -8.828  13.682  1.00  0.00     0.102 A 
HETATM   29  O   UNL     1      42.896  -6.661  13.826  1.00  0.00    -0.346 OA
HETATM   30  O   UNL     1      40.883  -8.569  14.671  1.00  0.00    -0.346 OA
HETATM   31  C   UNL     1      41.710 -10.072  13.062  1.00  0.00     0.040 A 
HETATM   32  C   UNL     1      41.269  -7.433  15.455  1.00  0.00     0.202 C 
HETATM   33  C   UNL     1      41.724  -6.292  14.560  1.00  0.00     0.202 C 
HETATM   34  C   UNL     1      42.620 -10.418  12.057  1.00  0.00     0.018 A 
ENDBRANCH  23  25
ENDBRANCH  22  23
ENDBRANCH  21  22
ENDBRANCH   2  21
TORSDOF 7
ENDMDL
MODEL 2
REMARK VINA RESULT:      -9.5      1.248      1.813
REMARK  7 active torsions:
REMARK  status: ('A' for Active; 'I' for Inactive)
REMARK    1  A    between atoms: C_4  and  C_5 
REMARK    2  A    between atoms: C_9  and  C_10 
REMARK       I    between atoms: C_10  and  N_11 
REMARK    3  A    between atoms: N_11  and  N_12 
REMARK       I    between atoms: N_12  and  C_13 
REMARK    4  A    between atoms: C_13  and  C_14 
REMARK    5  A    between atoms: C_14  and  C_15 
REMARK    6  A    between atoms: C_15  and  C_16 
REMARK    7  A    between atoms: C_16  and  C_17 
ROOT
HETATM    1  N   UNL     1      43.509 -11.815   7.767  1.00  0.00    -0.267 N 
HETATM    2  C   UNL     1      44.536 -10.895   7.754  1.00  0.00     0.236 C 
HETATM    3  O   UNL     1      45.646 -11.144   7.290  1.00  0.00    -0.272 OA
HETATM    4  H   UNL     1      42.648 -11.684   8.300  1.00  0.00     0.190 HD
ENDROOT
BRANCH   1   5
HETATM    5  N   UNL     1      43.789 -13.114   7.331  1.00  0.00    -0.262 N 
HETATM    6  C   UNL     1      43.185 -13.584   6.185  1.00  0.00     0.288 C 
HETATM    7  O   UNL     1      42.442 -12.877   5.506  1.00  0.00    -0.264 OA
HETATM    8  H   UNL     1      44.326 -13.699   7.966  1.00  0.00     0.190 HD
BRANCH   6   9
HETATM    9  C   UNL     1      43.488 -14.945   5.841  1.00  0.00     0.121 A 
HETATM   10  N   UNL     1      44.223 -15.750   6.665  1.00  0.00    -0.272 N 
HETATM   11  N   UNL     1      44.387 -16.999   6.212  1.00  0.00    -0.174 NA
HETATM   12  H   UNL     1      44.627 -15.497   7.563  1.00  0.00     0.189 HD
HETATM   13  C   UNL     1      43.752 -17.021   5.029  1.00  0.00     0.089 A 
HETATM   14  C   UNL     1      43.176 -15.746   4.760  1.00  0.00     0.071 A 
BRANCH  13  15
HETATM   15  C   UNL     1      43.690 -18.233   4.206  1.00  0.00    -0.006 A 
HETATM   16  C   UNL     1      43.271 -18.163   2.869  1.00  0.00     0.014 A 
HETATM   17  C   UNL     1      43.226 -19.309   2.071  1.00  0.00     0.001 A 
HETATM   18  C   UNL     1      43.595 -20.543   2.601  1.00  0.00     0.000 A 
HETATM   19  C   UNL     1      44.007 -20.632   3.929  1.00  0.00     0.001 A 
HETATM   20  C   UNL     1      44.055 -19.484   4.728  1.00  0.00     0.014 A 
ENDBRANCH  13  15
ENDBRANCH   6   9
ENDBRANCH   1   5
BRANCH   2  21
HETATM   21  C   UNL     1      44.144  -9.560   8.344  1.00  0.00     0.112 C 
BRANCH  21  22
HETATM   22  C   UNL     1      44.736  -9.371   9.737  1.00  0.00     0.093 C 
BRANCH  22  23
HETATM   23  C   UNL     1      43.851  -9.982  10.804  1.00  0.00     0.160 C 
HETATM   24  O   UNL     1      43.811 -11.195  10.996  1.00  0.00    -0.292 OA
BRANCH  23  25
HETATM   25  C   UNL     1      43.003  -9.076  11.640  1.00  0.00     0.013 A 
HETATM   26  C   UNL     1      41.621  -9.052  11.402  1.00  0.00     0.054 A 
HETATM   27  C   UNL     1      40.794  -8.230  12.166  1.00  0.00     0.103 A 
HETATM   28  C   UNL     1      41.340  -7.406  13.153  1.00  0.00     0.102 A 
HETATM   29  O   UNL     1      39.452  -8.276  11.887  1.00  0.00    -0.346 OA
HETATM   30  O   UNL     1      40.592  -6.552  13.921  1.00  0.00    -0.346 OA
HETATM   31  C   UNL     1      42.710  -7.434  13.404  1.00  0.00     0.040 A 
HETATM   32  C   UNL     1      39.288  -6.353  13.361  1.00  0.00     0.202 C 
HETATM   33  C   UNL     1      38.678  -7.678  12.933  1.00  0.00     0.202 C 
HETATM   34  C   UNL     1      43.543  -8.265  12.648  1.00  0.00     0.018 A 
ENDBRANCH  23  25
ENDBRANCH  22  23
ENDBRANCH  21  22
ENDBRANCH   2  21
TORSDOF 7
ENDMDL
MODEL 3
REMARK VINA RESULT:      -9.3      1.810      2.192
REMARK  7 active torsions:
REMARK  status: ('A' for Active; 'I' for Inactive)
REMARK    1  A    between atoms: C_4  and  C_5 
REMARK    2  A    between atoms: C_9  and  C_10 
REMARK       I    between atoms: C_10  and  N_11 
REMARK    3  A    between atoms: N_11  and  N_12 
REMARK       I    between atoms: N_12  and  C_13 
REMARK    4  A    between atoms: C_13  and  C_14 
REMARK    5  A    between atoms: C_14  and  C_15 
REMARK    6  A    between atoms: C_15  and  C_16 
REMARK    7  A    between atoms: C_16  and  C_17 
ROOT
HETATM    1  N   UNL     1      43.355 -11.235   7.832  1.00  0.00    -0.267 N 
HETATM    2  C   UNL     1      44.630 -10.800   8.126  1.00  0.00     0.236 C 
HETATM    3  O   UNL     1      45.639 -11.383   7.735  1.00  0.00    -0.272 OA
HETATM    4  H   UNL     1      42.520 -10.869   8.289  1.00  0.00     0.190 HD
ENDROOT
BRANCH   1   5
HETATM    5  N   UNL     1      43.220 -12.451   7.154  1.00  0.00    -0.262 N 
HETATM    6  C   UNL     1      42.420 -12.512   6.033  1.00  0.00     0.288 C 
HETATM    7  O   UNL     1      41.858 -11.514   5.582  1.00  0.00    -0.264 OA
HETATM    8  H   UNL     1      43.616 -13.270   7.608  1.00  0.00     0.190 HD
BRANCH   6   9
HETATM    9  C   UNL     1      42.296 -13.809   5.431  1.00  0.00     0.121 A 
HETATM   10  N   UNL     1      41.088 -14.303   5.027  1.00  0.00    -0.272 N 
HETATM   11  N   UNL     1      41.151 -15.514   4.456  1.00  0.00    -0.174 NA
HETATM   12  H   UNL     1      40.185 -13.845   5.105  1.00  0.00     0.189 HD
HETATM   13  C   UNL     1      42.452 -15.846   4.500  1.00  0.00     0.089 A 
HETATM   14  C   UNL     1      43.203 -14.800   5.110  1.00  0.00     0.071 A 
BRANCH  13  15
HETATM   15  C   UNL     1      42.944 -17.116   3.956  1.00  0.00    -0.006 A 
HETATM   16  C   UNL     1      43.792 -17.933   4.719  1.00  0.00     0.014 A 
HETATM   17  C   UNL     1      44.252 -19.153   4.217  1.00  0.00     0.001 A 
HETATM   18  C   UNL     1      43.875 -19.570   2.943  1.00  0.00     0.000 A 
HETATM   19  C   UNL     1      43.040 -18.767   2.169  1.00  0.00     0.001 A 
HETATM   20  C   UNL     1      42.576 -17.547   2.672  1.00  0.00     0.014 A 
ENDBRANCH  13  15
ENDBRANCH   6   9
ENDBRANCH   1   5
BRANCH   2  21
HETATM   21  C   UNL     1      44.649  -9.534   8.949  1.00  0.00     0.112 C 
BRANCH  21  22
HETATM   22  C   UNL     1      45.165  -9.794  10.361  1.00  0.00     0.093 C 
BRANCH  22  23
HETATM   23  C   UNL     1      44.045 -10.210  11.294  1.00  0.00     0.160 C 
HETATM   24  O   UNL     1      43.891 -11.379  11.640  1.00  0.00    -0.292 OA
BRANCH  23  25
HETATM   25  C   UNL     1      43.104  -9.162  11.798  1.00  0.00     0.013 A 
HETATM   26  C   UNL     1      41.800  -9.135  11.282  1.00  0.00     0.054 A 
HETATM   27  C   UNL     1      40.888  -8.182  11.733  1.00  0.00     0.103 A 
HETATM   28  C   UNL     1      41.277  -7.232  12.682  1.00  0.00     0.102 A 
HETATM   29  O   UNL     1      39.628  -8.231  11.195  1.00  0.00    -0.346 OA
HETATM   30  O   UNL     1      40.444  -6.249  13.148  1.00  0.00    -0.346 OA
HETATM   31  C   UNL     1      42.566  -7.260  13.209  1.00  0.00     0.040 A 
HETATM   32  C   UNL     1      39.290  -6.100  12.310  1.00  0.00     0.202 C 
HETATM   33  C   UNL     1      38.700  -7.458  11.963  1.00  0.00     0.202 C 
HETATM   34  C   UNL     1      43.481  -8.222  12.767  1.00  0.00     0.018 A 
ENDBRANCH  23  25
ENDBRANCH  22  23
ENDBRANCH  21  22
ENDBRANCH   2  21
TORSDOF 7
ENDMDL
MODEL 4
REMARK VINA RESULT:      -9.2      2.495     11.879
REMARK  7 active torsions:
REMARK  status: ('A' for Active; 'I' for Inactive)
REMARK    1  A    between atoms: C_4  and  C_5 
REMARK    2  A    between atoms: C_9  and  C_10 
REMARK       I    between atoms: C_10  and  N_11 
REMARK    3  A    between atoms: N_11  and  N_12 
REMARK       I    between atoms: N_12  and  C_13 
REMARK    4  A    between atoms: C_13  and  C_14 
REMARK    5  A    between atoms: C_14  and  C_15 
REMARK    6  A    between atoms: C_15  and  C_16 
REMARK    7  A    between atoms: C_16  and  C_17 
ROOT
HETATM    1  N   UNL     1      43.515 -11.705   7.023  1.00  0.00    -0.267 N 
HETATM    2  C   UNL     1      43.237 -11.341   5.723  1.00  0.00     0.236 C 
HETATM    3  O   UNL     1      42.799 -10.234   5.421  1.00  0.00    -0.272 OA
HETATM    4  H   UNL     1      43.709 -12.666   7.306  1.00  0.00     0.190 HD
ENDROOT
BRANCH   1   5
HETATM    5  N   UNL     1      43.176 -10.806   8.040  1.00  0.00    -0.262 N 
HETATM    6  C   UNL     1      44.098 -10.524   9.024  1.00  0.00     0.288 C 
HETATM    7  O   UNL     1      45.231 -11.004   9.009  1.00  0.00    -0.264 OA
HETATM    8  H   UNL     1      42.204 -10.507   8.075  1.00  0.00     0.190 HD
BRANCH   6   9
HETATM    9  C   UNL     1      43.648  -9.633  10.056  1.00  0.00     0.121 A 
HETATM   10  N   UNL     1      43.300  -8.339   9.789  1.00  0.00    -0.272 N 
HETATM   11  N   UNL     1      42.870  -7.652  10.856  1.00  0.00    -0.174 NA
HETATM   12  H   UNL     1      43.324  -7.875   8.885  1.00  0.00     0.189 HD
HETATM   13  C   UNL     1      42.953  -8.520  11.878  1.00  0.00     0.089 A 
HETATM   14  C   UNL     1      43.441  -9.776  11.414  1.00  0.00     0.071 A 
BRANCH  13  15
HETATM   15  C   UNL     1      42.557  -8.150  13.240  1.00  0.00    -0.006 A 
HETATM   16  C   UNL     1      41.454  -8.767  13.851  1.00  0.00     0.014 A 
HETATM   17  C   UNL     1      41.079  -8.436  15.155  1.00  0.00     0.001 A 
HETATM   18  C   UNL     1      41.798  -7.478  15.866  1.00  0.00     0.000 A 
HETATM   19  C   UNL     1      42.891  -6.850  15.272  1.00  0.00     0.001 A 
HETATM   20  C   UNL     1      43.270  -7.184  13.967  1.00  0.00     0.014 A 
ENDBRANCH  13  15
ENDBRANCH   6   9
ENDBRANCH   1   5
BRANCH   2  21
HETATM   21  C   UNL     1      43.549 -12.430   4.723  1.00  0.00     0.112 C 
BRANCH  21  22
HETATM   22  C   UNL     1      42.592 -13.609   4.868  1.00  0.00     0.093 C 
BRANCH  22  23
HETATM   23  C   UNL     1      43.326 -14.876   5.262  1.00  0.00     0.160 C 
HETATM   24  O   UNL     1      44.013 -14.935   6.278  1.00  0.00    -0.292 OA
BRANCH  23  25
HETATM   25  C   UNL     1      43.207 -16.079   4.381  1.00  0.00     0.013 A 
HETATM   26  C   UNL     1      43.838 -17.264   4.785  1.00  0.00     0.054 A 
HETATM   27  C   UNL     1      43.742 -18.412   3.999  1.00  0.00     0.103 A 
HETATM   28  C   UNL     1      43.040 -18.379   2.792  1.00  0.00     0.102 A 
HETATM   29  O   UNL     1      44.370 -19.536   4.470  1.00  0.00    -0.346 OA
HETATM   30  O   UNL     1      42.930 -19.459   1.955  1.00  0.00    -0.346 OA
HETATM   31  C   UNL     1      42.399 -17.209   2.389  1.00  0.00     0.040 A 
HETATM   32  C   UNL     1      43.887 -20.474   2.283  1.00  0.00     0.202 C 
HETATM   33  C   UNL     1      43.925 -20.711   3.785  1.00  0.00     0.202 C 
HETATM   34  C   UNL     1      42.483 -16.059   3.180  1.00  0.00     0.018 A 
ENDBRANCH  23  25
ENDBRANCH  22  23
ENDBRANCH  21  22
ENDBRANCH   2  21
TORSDOF 7
ENDMDL
MODEL 5
REMARK VINA RESULT:      -9.1      2.613     11.843
REMARK  7 active torsions:
REMARK  status: ('A' for Active; 'I' for Inactive)
REMARK    1  A    between atoms: C_4  and  C_5 
REMARK    2  A    between atoms: C_9  and  C_10 
REMARK       I    between atoms: C_10  and  N_11 
REMARK    3  A    between atoms: N_11  and  N_12 
REMARK       I    between atoms: N_12  and  C_13 
REMARK    4  A    between atoms: C_13  and  C_14 
REMARK    5  A    between atoms: C_14  and  C_15 
REMARK    6  A    between atoms: C_15  and  C_16 
REMARK    7  A    between atoms: C_16  and  C_17 
ROOT
HETATM    1  N   UNL     1      43.715 -11.469   6.245  1.00  0.00    -0.267 N 
HETATM    2  C   UNL     1      42.821 -11.515   5.197  1.00  0.00     0.236 C 
HETATM    3  O   UNL     1      41.831 -10.789   5.134  1.00  0.00    -0.272 OA
HETATM    4  H   UNL     1      44.434 -12.176   6.397  1.00  0.00     0.190 HD
ENDROOT
BRANCH   1   5
HETATM    5  N   UNL     1      43.412 -10.636   7.326  1.00  0.00    -0.262 N 
HETATM    6  C   UNL     1      44.266 -10.599   8.408  1.00  0.00     0.288 C 
HETATM    7  O   UNL     1      45.314 -11.243   8.429  1.00  0.00    -0.264 OA
HETATM    8  H   UNL     1      42.495 -10.197   7.317  1.00  0.00     0.190 HD
BRANCH   6   9
HETATM    9  C   UNL     1      43.851  -9.757   9.495  1.00  0.00     0.121 A 
HETATM   10  N   UNL     1      43.699  -8.408   9.343  1.00  0.00    -0.272 N 
HETATM   11  N   UNL     1      43.275  -7.775  10.445  1.00  0.00    -0.174 NA
HETATM   12  H   UNL     1      43.860  -7.867   8.498  1.00  0.00     0.189 HD
HETATM   13  C   UNL     1      43.157  -8.740  11.371  1.00  0.00     0.089 A 
HETATM   14  C   UNL     1      43.514 -10.001  10.812  1.00  0.00     0.071 A 
BRANCH  13  15
HETATM   15  C   UNL     1      42.700  -8.451  12.734  1.00  0.00    -0.006 A 
HETATM   16  C   UNL     1      43.309  -7.437  13.487  1.00  0.00     0.014 A 
HETATM   17  C   UNL     1      42.870  -7.141  14.780  1.00  0.00     0.001 A 
HETATM   18  C   UNL     1      41.817  -7.861  15.340  1.00  0.00     0.000 A 
HETATM   19  C   UNL     1      41.205  -8.877  14.609  1.00  0.00     0.001 A 
HETATM   20  C   UNL     1      41.643  -9.171  13.313  1.00  0.00     0.014 A 
ENDBRANCH  13  15
ENDBRANCH   6   9
ENDBRANCH   1   5
BRANCH   2  21
HETATM   21  C   UNL     1      43.199 -12.525   4.138  1.00  0.00     0.112 C 
BRANCH  21  22
HETATM   22  C   UNL     1      42.228 -13.702   4.120  1.00  0.00     0.093 C 
BRANCH  22  23
HETATM   23  C   UNL     1      42.578 -14.693   3.028  1.00  0.00     0.160 C 
HETATM   24  O   UNL     1      42.472 -14.409   1.837  1.00  0.00    -0.292 OA
BRANCH  23  25
HETATM   25  C   UNL     1      43.063 -16.053   3.421  1.00  0.00     0.013 A 
HETATM   26  C   UNL     1      42.880 -17.111   2.518  1.00  0.00     0.054 A 
HETATM   27  C   UNL     1      43.328 -18.391   2.840  1.00  0.00     0.103 A 
HETATM   28  C   UNL     1      43.935 -18.633   4.075  1.00  0.00     0.102 A 
HETATM   29  O   UNL     1      43.131 -19.368   1.898  1.00  0.00    -0.346 OA
HETATM   30  O   UNL     1      44.371 -19.870   4.471  1.00  0.00    -0.346 OA
HETATM   31  C   UNL     1      44.131 -17.585   4.972  1.00  0.00     0.040 A 
HETATM   32  C   UNL     1      43.823 -20.906   3.645  1.00  0.00     0.202 C 
HETATM   33  C   UNL     1      43.920 -20.530   2.175  1.00  0.00     0.202 C 
HETATM   34  C   UNL     1      43.694 -16.296   4.649  1.00  0.00     0.018 A 
ENDBRANCH  23  25
ENDBRANCH  22  23
ENDBRANCH  21  22
ENDBRANCH   2  21
TORSDOF 7
ENDMDL
MODEL 6
REMARK VINA RESULT:      -9.1      2.805     11.238
REMARK  7 active torsions:
REMARK  status: ('A' for Active; 'I' for Inactive)
REMARK    1  A    between atoms: C_4  and  C_5 
REMARK    2  A    between atoms: C_9  and  C_10 
REMARK       I    between atoms: C_10  and  N_11 
REMARK    3  A    between atoms: N_11  and  N_12 
REMARK       I    between atoms: N_12  and  C_13 
REMARK    4  A    between atoms: C_13  and  C_14 
REMARK    5  A    between atoms: C_14  and  C_15 
REMARK    6  A    between atoms: C_15  and  C_16 
REMARK    7  A    between atoms: C_16  and  C_17 
ROOT
HETATM    1  N   UNL     1      43.953 -13.487   6.792  1.00  0.00    -0.267 N 
HETATM    2  C   UNL     1      43.625 -14.808   7.010  1.00  0.00     0.236 C 
HETATM    3  O   UNL     1      42.861 -15.164   7.904  1.00  0.00    -0.272 OA
HETATM    4  H   UNL     1      44.712 -13.194   6.176  1.00  0.00     0.190 HD
ENDROOT
BRANCH   1   5
HETATM    5  N   UNL     1      43.477 -12.536   7.700  1.00  0.00    -0.262 N 
HETATM    6  C   UNL     1      44.285 -11.476   8.052  1.00  0.00     0.288 C 
HETATM    7  O   UNL     1      45.399 -11.316   7.554  1.00  0.00    -0.264 OA
HETATM    8  H   UNL     1      42.598 -12.752   8.163  1.00  0.00     0.190 HD
BRANCH   6   9
HETATM    9  C   UNL     1      43.737 -10.579   9.029  1.00  0.00     0.121 A 
HETATM   10  N   UNL     1      42.945  -9.523   8.674  1.00  0.00    -0.272 N 
HETATM   11  N   UNL     1      42.490  -8.804   9.708  1.00  0.00    -0.174 NA
HETATM   12  H   UNL     1      42.673  -9.256   7.733  1.00  0.00     0.189 HD
HETATM   13  C   UNL     1      43.014  -9.395  10.794  1.00  0.00     0.089 A 
HETATM   14  C   UNL     1      43.808 -10.513  10.407  1.00  0.00     0.071 A 
BRANCH  13  15
HETATM   15  C   UNL     1      42.740  -8.905  12.149  1.00  0.00    -0.006 A 
HETATM   16  C   UNL     1      43.463  -7.821  12.671  1.00  0.00     0.014 A 
HETATM   17  C   UNL     1      43.198  -7.334  13.953  1.00  0.00     0.001 A 
HETATM   18  C   UNL     1      42.209  -7.928  14.734  1.00  0.00     0.000 A 
HETATM   19  C   UNL     1      41.487  -9.010  14.234  1.00  0.00     0.001 A 
HETATM   20  C   UNL     1      41.750  -9.496  12.949  1.00  0.00     0.014 A 
ENDBRANCH  13  15
ENDBRANCH   6   9
ENDBRANCH   1   5
BRANCH   2  21
HETATM   21  C   UNL     1      44.280 -15.752   6.030  1.00  0.00     0.112 C 
BRANCH  21  22
HETATM   22  C   UNL     1      43.744 -17.172   6.182  1.00  0.00     0.093 C 
BRANCH  22  23
HETATM   23  C   UNL     1      43.567 -17.845   4.835  1.00  0.00     0.160 C 
HETATM   24  O   UNL     1      43.879 -19.020   4.653  1.00  0.00    -0.292 OA
BRANCH  23  25
HETATM   25  C   UNL     1      43.000 -17.049   3.703  1.00  0.00     0.013 A 
HETATM   26  C   UNL     1      41.785 -16.378   3.905  1.00  0.00     0.054 A 
HETATM   27  C   UNL     1      41.228 -15.615   2.879  1.00  0.00     0.103 A 
HETATM   28  C   UNL     1      41.862 -15.539   1.636  1.00  0.00     0.102 A 
HETATM   29  O   UNL     1      40.049 -14.973   3.159  1.00  0.00    -0.346 OA
HETATM   30  O   UNL     1      41.357 -14.834   0.575  1.00  0.00    -0.346 OA
HETATM   31  C   UNL     1      43.075 -16.193   1.432  1.00  0.00     0.040 A 
HETATM   32  C   UNL     1      39.979 -14.499   0.779  1.00  0.00     0.202 C 
HETATM   33  C   UNL     1      39.757 -13.966   2.185  1.00  0.00     0.202 C 
HETATM   34  C   UNL     1      43.644 -16.950   2.461  1.00  0.00     0.018 A 
ENDBRANCH  23  25
ENDBRANCH  22  23
ENDBRANCH  21  22
ENDBRANCH   2  21
TORSDOF 7
ENDMDL
MODEL 7
REMARK VINA RESULT:      -9.0      1.949      2.735
REMARK  7 active torsions:
REMARK  status: ('A' for Active; 'I' for Inactive)
REMARK    1  A    between atoms: C_4  and  C_5 
REMARK    2  A    between atoms: C_9  and  C_10 
REMARK       I    between atoms: C_10  and  N_11 
REMARK    3  A    between atoms: N_11  and  N_12 
REMARK       I    between atoms: N_12  and  C_13 
REMARK    4  A    between atoms: C_13  and  C_14 
REMARK    5  A    between atoms: C_14  and  C_15 
REMARK    6  A    between atoms: C_15  and  C_16 
REMARK    7  A    between atoms: C_16  and  C_17 
ROOT
HETATM    1  N   UNL     1      43.878 -11.511   8.215  1.00  0.00    -0.267 N 
HETATM    2  C   UNL     1      45.054 -10.793   8.179  1.00  0.00     0.236 C 
HETATM    3  O   UNL     1      45.932 -10.996   7.343  1.00  0.00    -0.272 OA
HETATM    4  H   UNL     1      43.225 -11.475   8.998  1.00  0.00     0.190 HD
ENDROOT
BRANCH   1   5
HETATM    5  N   UNL     1      43.738 -12.582   7.328  1.00  0.00    -0.262 N 
HETATM    6  C   UNL     1      42.836 -12.485   6.290  1.00  0.00     0.288 C 
HETATM    7  O   UNL     1      42.181 -11.461   6.094  1.00  0.00    -0.264 OA
HETATM    8  H   UNL     1      44.219 -13.443   7.578  1.00  0.00     0.190 HD
BRANCH   6   9
HETATM    9  C   UNL     1      42.719 -13.651   5.461  1.00  0.00     0.121 A 
HETATM   10  N   UNL     1      41.853 -13.701   4.406  1.00  0.00    -0.272 N 
HETATM   11  N   UNL     1      41.891 -14.848   3.715  1.00  0.00    -0.174 NA
HETATM   12  H   UNL     1      41.218 -12.967   4.103  1.00  0.00     0.189 HD
HETATM   13  C   UNL     1      42.807 -15.598   4.348  1.00  0.00     0.089 A 
HETATM   14  C   UNL     1      43.348 -14.881   5.454  1.00  0.00     0.071 A 
BRANCH  13  15
HETATM   15  C   UNL     1      43.155 -16.946   3.887  1.00  0.00    -0.006 A 
HETATM   16  C   UNL     1      42.655 -17.430   2.669  1.00  0.00     0.014 A 
HETATM   17  C   UNL     1      42.994 -18.705   2.210  1.00  0.00     0.001 A 
HETATM   18  C   UNL     1      43.834 -19.518   2.968  1.00  0.00     0.000 A 
HETATM   19  C   UNL     1      44.334 -19.056   4.184  1.00  0.00     0.001 A 
HETATM   20  C   UNL     1      43.997 -17.778   4.641  1.00  0.00     0.014 A 
ENDBRANCH  13  15
ENDBRANCH   6   9
ENDBRANCH   1   5
BRANCH   2  21
HETATM   21  C   UNL     1      45.134  -9.730   9.249  1.00  0.00     0.112 C 
BRANCH  21  22
HETATM   22  C   UNL     1      45.008  -8.331   8.655  1.00  0.00     0.093 C 
BRANCH  22  23
HETATM   23  C   UNL     1      43.558  -7.902   8.546  1.00  0.00     0.160 C 
HETATM   24  O   UNL     1      43.061  -7.568   7.474  1.00  0.00    -0.292 OA
BRANCH  23  25
HETATM   25  C   UNL     1      42.719  -7.886   9.784  1.00  0.00     0.013 A 
HETATM   26  C   UNL     1      41.807  -8.933   9.984  1.00  0.00     0.054 A 
HETATM   27  C   UNL     1      41.014  -8.962  11.130  1.00  0.00     0.103 A 
HETATM   28  C   UNL     1      41.104  -7.933  12.072  1.00  0.00     0.102 A 
HETATM   29  O   UNL     1      40.161 -10.027  11.263  1.00  0.00    -0.346 OA
HETATM   30  O   UNL     1      40.334  -7.881  13.205  1.00  0.00    -0.346 OA
HETATM   31  C   UNL     1      42.015  -6.897  11.887  1.00  0.00     0.040 A 
HETATM   32  C   UNL     1      39.223  -8.782  13.124  1.00  0.00     0.202 C 
HETATM   33  C   UNL     1      39.666 -10.138  12.602  1.00  0.00     0.202 C 
HETATM   34  C   UNL     1      42.821  -6.869  10.744  1.00  0.00     0.018 A 
ENDBRANCH  23  25
ENDBRANCH  22  23
ENDBRANCH  21  22
ENDBRANCH   2  21
TORSDOF 7
ENDMDL
MODEL 8
REMARK VINA RESULT:      -8.6      8.982     11.122
REMARK  7 active torsions:
REMARK  status: ('A' for Active; 'I' for Inactive)
REMARK    1  A    between atoms: C_4  and  C_5 
REMARK    2  A    between atoms: C_9  and  C_10 
REMARK       I    between atoms: C_10  and  N_11 
REMARK    3  A    between atoms: N_11  and  N_12 
REMARK       I    between atoms: N_12  and  C_13 
REMARK    4  A    between atoms: C_13  and  C_14 
REMARK    5  A    between atoms: C_14  and  C_15 
REMARK    6  A    between atoms: C_15  and  C_16 
REMARK    7  A    between atoms: C_16  and  C_17 
ROOT
HETATM    1  N   UNL     1      38.858 -13.663  -0.733  1.00  0.00    -0.267 N 
HETATM    2  C   UNL     1      38.548 -13.983  -2.038  1.00  0.00     0.236 C 
HETATM    3  O   UNL     1      38.950 -15.007  -2.586  1.00  0.00    -0.272 OA
HETATM    4  H   UNL     1      38.680 -12.745  -0.326  1.00  0.00     0.190 HD
ENDROOT
BRANCH   1   5
HETATM    5  N   UNL     1      39.757 -14.491  -0.054  1.00  0.00    -0.262 N 
HETATM    6  C   UNL     1      40.636 -13.932   0.850  1.00  0.00     0.288 C 
HETATM    7  O   UNL     1      40.620 -12.729   1.111  1.00  0.00    -0.264 OA
HETATM    8  H   UNL     1      39.809 -15.457  -0.366  1.00  0.00     0.190 HD
BRANCH   6   9
HETATM    9  C   UNL     1      41.559 -14.846   1.461  1.00  0.00     0.121 A 
HETATM   10  N   UNL     1      42.779 -14.438   1.920  1.00  0.00    -0.272 N 
HETATM   11  N   UNL     1      43.504 -15.409   2.492  1.00  0.00    -0.174 NA
HETATM   12  H   UNL     1      43.163 -13.499   1.880  1.00  0.00     0.189 HD
HETATM   13  C   UNL     1      42.742 -16.510   2.394  1.00  0.00     0.089 A 
HETATM   14  C   UNL     1      41.512 -16.197   1.747  1.00  0.00     0.071 A 
BRANCH  13  15
HETATM   15  C   UNL     1      43.184 -17.805   2.921  1.00  0.00    -0.006 A 
HETATM   16  C   UNL     1      43.707 -17.901   4.219  1.00  0.00     0.014 A 
HETATM   17  C   UNL     1      44.113 -19.133   4.738  1.00  0.00     0.001 A 
HETATM   18  C   UNL     1      44.007 -20.285   3.964  1.00  0.00     0.000 A 
HETATM   19  C   UNL     1      43.497 -20.207   2.670  1.00  0.00     0.001 A 
HETATM   20  C   UNL     1      43.087 -18.974   2.150  1.00  0.00     0.014 A 
ENDBRANCH  13  15
ENDBRANCH   6   9
ENDBRANCH   1   5
BRANCH   2  21
HETATM   21  C   UNL     1      37.652 -12.964  -2.702  1.00  0.00     0.112 C 
BRANCH  21  22
HETATM   22  C   UNL     1      37.633 -11.650  -1.926  1.00  0.00     0.093 C 
BRANCH  22  23
HETATM   23  C   UNL     1      38.239 -10.519  -2.733  1.00  0.00     0.160 C 
HETATM   24  O   UNL     1      37.677 -10.057  -3.723  1.00  0.00    -0.292 OA
BRANCH  23  25
HETATM   25  C   UNL     1      39.559  -9.961  -2.308  1.00  0.00     0.013 A 
HETATM   26  C   UNL     1      39.768  -8.579  -2.430  1.00  0.00     0.054 A 
HETATM   27  C   UNL     1      40.981  -8.016  -2.034  1.00  0.00     0.103 A 
HETATM   28  C   UNL     1      42.004  -8.829  -1.539  1.00  0.00     0.102 A 
HETATM   29  O   UNL     1      41.101  -6.656  -2.167  1.00  0.00    -0.346 OA
HETATM   30  O   UNL     1      43.230  -8.348  -1.160  1.00  0.00    -0.346 OA
HETATM   31  C   UNL     1      41.800 -10.200  -1.403  1.00  0.00     0.040 A 
HETATM   32  C   UNL     1      43.447  -7.020  -1.653  1.00  0.00     0.202 C 
HETATM   33  C   UNL     1      42.218  -6.155  -1.425  1.00  0.00     0.202 C 
HETATM   34  C   UNL     1      40.581 -10.768  -1.788  1.00  0.00     0.018 A 
ENDBRANCH  23  25
ENDBRANCH  22  23
ENDBRANCH  21  22
ENDBRANCH   2  21
TORSDOF 7
ENDMDL
MODEL 9
REMARK VINA RESULT:      -8.4      2.086      2.413
REMARK  7 active torsions:
REMARK  status: ('A' for Active; 'I' for Inactive)
REMARK    1  A    between atoms: C_4  and  C_5 
REMARK    2  A    between atoms: C_9  and  C_10 
REMARK       I    between atoms: C_10  and  N_11 
REMARK    3  A    between atoms: N_11  and  N_12 
REMARK       I    between atoms: N_12  and  C_13 
REMARK    4  A    between atoms: C_13  and  C_14 
REMARK    5  A    between atoms: C_14  and  C_15 
REMARK    6  A    between atoms: C_15  and  C_16 
REMARK    7  A    between atoms: C_16  and  C_17 
ROOT
HETATM    1  N   UNL     1      41.469 -10.731   7.042  1.00  0.00    -0.267 N 
HETATM    2  C   UNL     1      42.584 -10.105   7.558  1.00  0.00     0.236 C 
HETATM    3  O   UNL     1      43.729 -10.443   7.270  1.00  0.00    -0.272 OA
HETATM    4  H   UNL     1      40.526 -10.580   7.402  1.00  0.00     0.190 HD
ENDROOT
BRANCH   1   5
HETATM    5  N   UNL     1      41.665 -11.866   6.249  1.00  0.00    -0.262 N 
HETATM    6  C   UNL     1      40.619 -12.744   6.058  1.00  0.00     0.288 C 
HETATM    7  O   UNL     1      39.502 -12.533   6.529  1.00  0.00    -0.264 OA
HETATM    8  H   UNL     1      42.621 -12.058   5.960  1.00  0.00     0.190 HD
BRANCH   6   9
HETATM    9  C   UNL     1      40.924 -13.907   5.275  1.00  0.00     0.121 A 
HETATM   10  N   UNL     1      40.107 -14.329   4.264  1.00  0.00    -0.272 N 
HETATM   11  N   UNL     1      40.552 -15.411   3.611  1.00  0.00    -0.174 NA
HETATM   12  H   UNL     1      39.234 -13.902   3.967  1.00  0.00     0.189 HD
HETATM   13  C   UNL     1      41.703 -15.732   4.224  1.00  0.00     0.089 A 
HETATM   14  C   UNL     1      41.968 -14.811   5.279  1.00  0.00     0.071 A 
BRANCH  13  15
HETATM   15  C   UNL     1      42.517 -16.872   3.792  1.00  0.00    -0.006 A 
HETATM   16  C   UNL     1      43.536 -17.370   4.618  1.00  0.00     0.014 A 
HETATM   17  C   UNL     1      44.306 -18.467   4.225  1.00  0.00     0.001 A 
HETATM   18  C   UNL     1      44.071 -19.079   2.996  1.00  0.00     0.000 A 
HETATM   19  C   UNL     1      43.067 -18.593   2.160  1.00  0.00     0.001 A 
HETATM   20  C   UNL     1      42.294 -17.496   2.555  1.00  0.00     0.014 A 
ENDBRANCH  13  15
ENDBRANCH   6   9
ENDBRANCH   1   5
BRANCH   2  21
HETATM   21  C   UNL     1      42.246  -8.959   8.482  1.00  0.00     0.112 C 
BRANCH  21  22
HETATM   22  C   UNL     1      43.400  -8.650   9.430  1.00  0.00     0.093 C 
BRANCH  22  23
HETATM   23  C   UNL     1      43.111  -7.426  10.277  1.00  0.00     0.160 C 
HETATM   24  O   UNL     1      43.184  -6.289   9.816  1.00  0.00    -0.292 OA
BRANCH  23  25
HETATM   25  C   UNL     1      42.732  -7.617  11.710  1.00  0.00     0.013 A 
HETATM   26  C   UNL     1      42.247  -6.511  12.424  1.00  0.00     0.054 A 
HETATM   27  C   UNL     1      41.872  -6.649  13.759  1.00  0.00     0.103 A 
HETATM   28  C   UNL     1      42.003  -7.882  14.402  1.00  0.00     0.102 A 
HETATM   29  O   UNL     1      41.389  -5.526  14.383  1.00  0.00    -0.346 OA
HETATM   30  O   UNL     1      41.683  -8.083  15.719  1.00  0.00    -0.346 OA
HETATM   31  C   UNL     1      42.472  -8.988  13.697  1.00  0.00     0.040 A 
HETATM   32  C   UNL     1      41.546  -6.840  16.419  1.00  0.00     0.202 C 
HETATM   33  C   UNL     1      40.723  -5.853  15.607  1.00  0.00     0.202 C 
HETATM   34  C   UNL     1      42.839  -8.858  12.354  1.00  0.00     0.018 A 
ENDBRANCH  23  25
ENDBRANCH  22  23
ENDBRANCH  21  22
ENDBRANCH   2  21
TORSDOF 7
ENDMDL
MODEL 10
REMARK VINA RESULT:      -8.4      2.593      4.267
REMARK  7 active torsions:
REMARK  status: ('A' for Active; 'I' for Inactive)
REMARK    1  A    between atoms: C_4  and  C_5 
REMARK    2  A    between atoms: C_9  and  C_10 
REMARK       I    between atoms: C_10  and  N_11 
REMARK    3  A    between atoms: N_11  and  N_12 
REMARK       I    between atoms: N_12  and  C_13 
REMARK    4  A    between atoms: C_13  and  C_14 
REMARK    5  A    between atoms: C_14  and  C_15 
REMARK    6  A    between atoms: C_15  and  C_16 
REMARK    7  A    between atoms: C_16  and  C_17 
ROOT
HETATM    1  N   UNL     1      40.494 -11.814   4.761  1.00  0.00    -0.267 N 
HETATM    2  C   UNL     1      39.487 -11.536   5.662  1.00  0.00     0.236 C 
HETATM    3  O   UNL     1      39.132 -12.332   6.528  1.00  0.00    -0.272 OA
HETATM    4  H   UNL     1      40.678 -11.243   3.936  1.00  0.00     0.190 HD
ENDROOT
BRANCH   1   5
HETATM    5  N   UNL     1      41.048 -13.097   4.775  1.00  0.00    -0.262 N 
HETATM    6  C   UNL     1      42.382 -13.251   5.090  1.00  0.00     0.288 C 
HETATM    7  O   UNL     1      43.088 -12.295   5.405  1.00  0.00    -0.264 OA
HETATM    8  H   UNL     1      40.464 -13.848   4.416  1.00  0.00     0.190 HD
BRANCH   6   9
HETATM    9  C   UNL     1      42.880 -14.597   5.028  1.00  0.00     0.121 A 
HETATM   10  N   UNL     1      43.684 -15.112   6.005  1.00  0.00    -0.272 N 
HETATM   11  N   UNL     1      44.034 -16.391   5.813  1.00  0.00    -0.174 NA
HETATM   12  H   UNL     1      44.014 -14.634   6.838  1.00  0.00     0.189 HD
HETATM   13  C   UNL     1      43.453 -16.734   4.651  1.00  0.00     0.089 A 
HETATM   14  C   UNL     1      42.721 -15.630   4.126  1.00  0.00     0.071 A 
BRANCH  13  15
HETATM   15  C   UNL     1      43.589 -18.080   4.087  1.00  0.00    -0.006 A 
HETATM   16  C   UNL     1      44.024 -19.145   4.890  1.00  0.00     0.014 A 
HETATM   17  C   UNL     1      44.140 -20.436   4.368  1.00  0.00     0.001 A 
HETATM   18  C   UNL     1      43.827 -20.679   3.033  1.00  0.00     0.000 A 
HETATM   19  C   UNL     1      43.400 -19.631   2.219  1.00  0.00     0.001 A 
HETATM   20  C   UNL     1      43.281 -18.339   2.742  1.00  0.00     0.014 A 
ENDBRANCH  13  15
ENDBRANCH   6   9
ENDBRANCH   1   5
BRANCH   2  21
HETATM   21  C   UNL     1      38.895 -10.158   5.483  1.00  0.00     0.112 C 
BRANCH  21  22
HETATM   22  C   UNL     1      39.876  -9.071   5.910  1.00  0.00     0.093 C 
BRANCH  22  23
HETATM   23  C   UNL     1      39.733  -8.741   7.383  1.00  0.00     0.160 C 
HETATM   24  O   UNL     1      38.656  -8.408   7.870  1.00  0.00    -0.292 OA
BRANCH  23  25
HETATM   25  C   UNL     1      40.943  -8.824   8.258  1.00  0.00     0.013 A 
HETATM   26  C   UNL     1      42.047  -9.559   7.800  1.00  0.00     0.054 A 
HETATM   27  C   UNL     1      43.199  -9.651   8.580  1.00  0.00     0.103 A 
HETATM   28  C   UNL     1      43.250  -9.035   9.833  1.00  0.00     0.102 A 
HETATM   29  O   UNL     1      44.242 -10.371   8.055  1.00  0.00    -0.346 OA
HETATM   30  O   UNL     1      44.337  -9.109  10.664  1.00  0.00    -0.346 OA
HETATM   31  C   UNL     1      42.164  -8.293  10.289  1.00  0.00     0.040 A 
HETATM   32  C   UNL     1      45.234 -10.152  10.261  1.00  0.00     0.202 C 
HETATM   33  C   UNL     1      45.462 -10.114   8.758  1.00  0.00     0.202 C 
HETATM   34  C   UNL     1      41.010  -8.187   9.505  1.00  0.00     0.018 A 
ENDBRANCH  23  25
ENDBRANCH  22  23
ENDBRANCH  21  22
ENDBRANCH   2  21
TORSDOF 7
ENDMDL
