MODEL 1
REMARK VINA RESULT:      -8.8      0.000      0.000
REMARK  4 active torsions:
REMARK  status: ('A' for Active; 'I' for Inactive)
REMARK    1  A    between atoms: C_2  and  C_3 
REMARK    2  A    between atoms: C_3  and  N_4 
REMARK    3  A    between atoms: C_3  and  C_18 
REMARK       I    between atoms: N_4  and  C_5 
REMARK    4  A    between atoms: C_5  and  C_6 
ROOT
HETATM    1  N   UNL     1      40.609 -13.534   3.428  1.00  0.00    -0.344 N 
HETATM    2  C   UNL     1      40.640 -14.903   3.471  1.00  0.00     0.273 C 
HETATM    3  O   UNL     1      39.827 -15.630   2.926  1.00  0.00    -0.266 OA
HETATM    4  H   UNL     1      41.307 -13.025   3.970  1.00  0.00     0.163 HD
ENDROOT
BRANCH   1   5
HETATM    5  C   UNL     1      39.584 -12.758   2.765  1.00  0.00     0.158 C 
BRANCH   5   6
HETATM    6  C   UNL     1      39.482 -11.292   3.269  1.00  0.00     0.008 C 
HETATM    7  C   UNL     1      39.459 -11.167   4.798  1.00  0.00     0.012 C 
HETATM    8  C   UNL     1      38.271 -10.563   2.680  1.00  0.00     0.012 C 
ENDBRANCH   5   6
BRANCH   5   9
HETATM    9  C   UNL     1      39.899 -12.799   1.293  1.00  0.00     0.128 A 
HETATM   10  N   UNL     1      40.657 -11.948   0.622  1.00  0.00    -0.231 NA
HETATM   11  C   UNL     1      40.617 -12.369  -0.685  1.00  0.00     0.085 A 
HETATM   12  C   UNL     1      39.829 -13.506  -0.817  1.00  0.00     0.062 A 
HETATM   13  C   UNL     1      41.229 -11.822  -1.821  1.00  0.00     0.034 A 
HETATM   14  N   UNL     1      39.396 -13.767   0.458  1.00  0.00    -0.341 N 
HETATM   15  C   UNL     1      39.608 -14.147  -2.037  1.00  0.00     0.032 A 
HETATM   16  H   UNL     1      38.796 -14.532   0.732  1.00  0.00     0.167 HD
HETATM   17  C   UNL     1      40.224 -13.585  -3.162  1.00  0.00     0.002 A 
HETATM   18  C   UNL     1      41.021 -12.442  -3.059  1.00  0.00     0.002 A 
ENDBRANCH   5   9
ENDBRANCH   1   5
BRANCH   2  19
HETATM   19  C   UNL     1      41.803 -15.456   4.314  1.00  0.00     0.155 A 
HETATM   20  N   UNL     1      42.042 -14.805   5.421  1.00  0.00    -0.166 NA
HETATM   21  N   UNL     1      43.053 -15.235   6.222  1.00  0.00    -0.242 N 
HETATM   22  C   UNL     1      43.860 -16.321   5.990  1.00  0.00     0.272 A 
HETATM   23  H   UNL     1      43.216 -14.709   7.075  1.00  0.00     0.192 HD
HETATM   24  O   UNL     1      44.747 -16.657   6.767  1.00  0.00    -0.266 OA
HETATM   25  C   UNL     1      43.605 -17.061   4.743  1.00  0.00     0.046 A 
HETATM   26  C   UNL     1      42.589 -16.637   3.885  1.00  0.00     0.016 A 
HETATM   27  C   UNL     1      44.392 -18.178   4.431  1.00  0.00     0.018 A 
HETATM   28  C   UNL     1      42.381 -17.336   2.690  1.00  0.00     0.015 A 
HETATM   29  C   UNL     1      43.164 -18.453   2.377  1.00  0.00     0.001 A 
HETATM   30  C   UNL     1      44.167 -18.877   3.247  1.00  0.00     0.001 A 
ENDBRANCH   2  19
TORSDOF 4
ENDMDL
MODEL 2
REMARK VINA RESULT:      -8.6      3.866      7.668
REMARK  4 active torsions:
REMARK  status: ('A' for Active; 'I' for Inactive)
REMARK    1  A    between atoms: C_2  and  C_3 
REMARK    2  A    between atoms: C_3  and  N_4 
REMARK    3  A    between atoms: C_3  and  C_18 
REMARK       I    between atoms: N_4  and  C_5 
REMARK    4  A    between atoms: C_5  and  C_6 
ROOT
HETATM    1  N   UNL     1      42.385 -13.247   4.916  1.00  0.00    -0.344 N 
HETATM    2  C   UNL     1      41.313 -12.501   4.499  1.00  0.00     0.273 C 
HETATM    3  O   UNL     1      40.518 -11.956   5.246  1.00  0.00    -0.266 OA
HETATM    4  H   UNL     1      42.951 -13.705   4.203  1.00  0.00     0.163 HD
ENDROOT
BRANCH   1   5
HETATM    5  C   UNL     1      42.700 -13.526   6.300  1.00  0.00     0.158 C 
BRANCH   5   6
HETATM    6  C   UNL     1      43.452 -14.867   6.514  1.00  0.00     0.008 C 
HETATM    7  C   UNL     1      43.355 -15.825   5.319  1.00  0.00     0.012 C 
HETATM    8  C   UNL     1      42.994 -15.590   7.784  1.00  0.00     0.012 C 
ENDBRANCH   5   6
BRANCH   5   9
HETATM    9  C   UNL     1      43.520 -12.365   6.798  1.00  0.00     0.128 A 
HETATM   10  N   UNL     1      44.838 -12.262   6.779  1.00  0.00    -0.231 NA
HETATM   11  C   UNL     1      45.122 -11.054   7.367  1.00  0.00     0.085 A 
HETATM   12  C   UNL     1      43.957 -10.398   7.744  1.00  0.00     0.062 A 
HETATM   13  C   UNL     1      46.362 -10.451   7.620  1.00  0.00     0.034 A 
HETATM   14  N   UNL     1      42.951 -11.247   7.358  1.00  0.00    -0.341 N 
HETATM   15  C   UNL     1      43.948  -9.151   8.371  1.00  0.00     0.032 A 
HETATM   16  H   UNL     1      41.962 -11.083   7.480  1.00  0.00     0.167 HD
HETATM   17  C   UNL     1      45.195  -8.564   8.619  1.00  0.00     0.002 A 
HETATM   18  C   UNL     1      46.384  -9.201   8.251  1.00  0.00     0.002 A 
ENDBRANCH   5   9
ENDBRANCH   1   5
BRANCH   2  19
HETATM   19  C   UNL     1      41.182 -12.435   2.967  1.00  0.00     0.155 A 
HETATM   20  N   UNL     1      41.525 -11.295   2.431  1.00  0.00    -0.166 NA
HETATM   21  N   UNL     1      41.439 -11.160   1.080  1.00  0.00    -0.242 N 
HETATM   22  C   UNL     1      41.035 -12.129   0.197  1.00  0.00     0.272 A 
HETATM   23  H   UNL     1      41.712 -10.262   0.692  1.00  0.00     0.192 HD
HETATM   24  O   UNL     1      40.996 -11.938  -1.013  1.00  0.00    -0.266 OA
HETATM   25  C   UNL     1      40.641 -13.419   0.788  1.00  0.00     0.046 A 
HETATM   26  C   UNL     1      40.695 -13.588   2.173  1.00  0.00     0.016 A 
HETATM   27  C   UNL     1      40.209 -14.458  -0.048  1.00  0.00     0.018 A 
HETATM   28  C   UNL     1      40.289 -14.812   2.719  1.00  0.00     0.015 A 
HETATM   29  C   UNL     1      39.859 -15.851   1.886  1.00  0.00     0.001 A 
HETATM   30  C   UNL     1      39.822 -15.677   0.504  1.00  0.00     0.001 A 
ENDBRANCH   2  19
TORSDOF 4
ENDMDL
MODEL 3
REMARK VINA RESULT:      -8.6      1.698      1.844
REMARK  4 active torsions:
REMARK  status: ('A' for Active; 'I' for Inactive)
REMARK    1  A    between atoms: C_2  and  C_3 
REMARK    2  A    between atoms: C_3  and  N_4 
REMARK    3  A    between atoms: C_3  and  C_18 
REMARK       I    between atoms: N_4  and  C_5 
REMARK    4  A    between atoms: C_5  and  C_6 
ROOT
HETATM    1  N   UNL     1      41.805 -13.403   3.860  1.00  0.00    -0.344 N 
HETATM    2  C   UNL     1      41.076 -14.072   4.809  1.00  0.00     0.273 C 
HETATM    3  O   UNL     1      39.976 -13.727   5.205  1.00  0.00    -0.266 OA
HETATM    4  H   UNL     1      42.740 -13.751   3.648  1.00  0.00     0.163 HD
ENDROOT
BRANCH   1   5
HETATM    5  C   UNL     1      41.390 -12.172   3.226  1.00  0.00     0.158 C 
BRANCH   5   6
HETATM    6  C   UNL     1      42.440 -11.032   3.321  1.00  0.00     0.008 C 
HETATM    7  C   UNL     1      43.840 -11.516   3.721  1.00  0.00     0.012 C 
HETATM    8  C   UNL     1      41.997  -9.916   4.271  1.00  0.00     0.012 C 
ENDBRANCH   5   6
BRANCH   5   9
HETATM    9  C   UNL     1      41.090 -12.507   1.789  1.00  0.00     0.128 A 
HETATM   10  N   UNL     1      41.401 -11.784   0.727  1.00  0.00    -0.231 NA
HETATM   11  C   UNL     1      40.895 -12.471  -0.349  1.00  0.00     0.085 A 
HETATM   12  C   UNL     1      40.272 -13.645   0.059  1.00  0.00     0.062 A 
HETATM   13  C   UNL     1      40.925 -12.149  -1.713  1.00  0.00     0.034 A 
HETATM   14  N   UNL     1      40.423 -13.651   1.423  1.00  0.00    -0.341 N 
HETATM   15  C   UNL     1      39.664 -14.537  -0.826  1.00  0.00     0.032 A 
HETATM   16  H   UNL     1      40.086 -14.367   2.050  1.00  0.00     0.167 HD
HETATM   17  C   UNL     1      39.700 -14.197  -2.184  1.00  0.00     0.002 A 
HETATM   18  C   UNL     1      40.319 -13.024  -2.623  1.00  0.00     0.002 A 
ENDBRANCH   5   9
ENDBRANCH   1   5
BRANCH   2  19
HETATM   19  C   UNL     1      41.799 -15.312   5.365  1.00  0.00     0.155 A 
HETATM   20  N   UNL     1      41.774 -15.430   6.666  1.00  0.00    -0.166 NA
HETATM   21  N   UNL     1      42.390 -16.502   7.233  1.00  0.00    -0.242 N 
HETATM   22  C   UNL     1      43.037 -17.509   6.562  1.00  0.00     0.272 A 
HETATM   23  H   UNL     1      42.355 -16.566   8.245  1.00  0.00     0.192 HD
HETATM   24  O   UNL     1      43.559 -18.453   7.142  1.00  0.00    -0.266 OA
HETATM   25  C   UNL     1      43.077 -17.387   5.095  1.00  0.00     0.046 A 
HETATM   26  C   UNL     1      42.475 -16.288   4.478  1.00  0.00     0.016 A 
HETATM   27  C   UNL     1      43.726 -18.371   4.338  1.00  0.00     0.018 A 
HETATM   28  C   UNL     1      42.548 -16.175   3.084  1.00  0.00     0.015 A 
HETATM   29  C   UNL     1      43.193 -17.159   2.326  1.00  0.00     0.001 A 
HETATM   30  C   UNL     1      43.780 -18.258   2.951  1.00  0.00     0.001 A 
ENDBRANCH   2  19
TORSDOF 4
ENDMDL
MODEL 4
REMARK VINA RESULT:      -8.5      6.933      9.806
REMARK  4 active torsions:
REMARK  status: ('A' for Active; 'I' for Inactive)
REMARK    1  A    between atoms: C_2  and  C_3 
REMARK    2  A    between atoms: C_3  and  N_4 
REMARK    3  A    between atoms: C_3  and  C_18 
REMARK       I    between atoms: N_4  and  C_5 
REMARK    4  A    between atoms: C_5  and  C_6 
ROOT
HETATM    1  N   UNL     1      43.096 -10.157   9.071  1.00  0.00    -0.344 N 
HETATM    2  C   UNL     1      42.302  -9.070   9.333  1.00  0.00     0.273 C 
HETATM    3  O   UNL     1      42.330  -8.027   8.704  1.00  0.00    -0.266 OA
HETATM    4  H   UNL     1      43.029 -10.956   9.700  1.00  0.00     0.163 HD
ENDROOT
BRANCH   1   5
HETATM    5  C   UNL     1      44.106 -10.203   8.037  1.00  0.00     0.158 C 
BRANCH   5   6
HETATM    6  C   UNL     1      45.560 -10.233   8.581  1.00  0.00     0.008 C 
HETATM    7  C   UNL     1      45.656  -9.995  10.094  1.00  0.00     0.012 C 
HETATM    8  C   UNL     1      46.470  -9.241   7.851  1.00  0.00     0.012 C 
ENDBRANCH   5   6
BRANCH   5   9
HETATM    9  C   UNL     1      43.818 -11.427   7.208  1.00  0.00     0.128 A 
HETATM   10  N   UNL     1      43.961 -12.687   7.582  1.00  0.00    -0.231 NA
HETATM   11  C   UNL     1      43.614 -13.439   6.487  1.00  0.00     0.085 A 
HETATM   12  C   UNL     1      43.239 -12.625   5.424  1.00  0.00     0.062 A 
HETATM   13  C   UNL     1      43.600 -14.831   6.324  1.00  0.00     0.034 A 
HETATM   14  N   UNL     1      43.364 -11.350   5.914  1.00  0.00    -0.341 N 
HETATM   15  C   UNL     1      42.843 -13.123   4.181  1.00  0.00     0.032 A 
HETATM   16  H   UNL     1      43.171 -10.501   5.403  1.00  0.00     0.167 HD
HETATM   17  C   UNL     1      42.838 -14.515   4.035  1.00  0.00     0.002 A 
HETATM   18  C   UNL     1      43.209 -15.358   5.086  1.00  0.00     0.002 A 
ENDBRANCH   5   9
ENDBRANCH   1   5
BRANCH   2  19
HETATM   19  C   UNL     1      41.371  -9.279  10.541  1.00  0.00     0.155 A 
HETATM   20  N   UNL     1      40.238  -9.870  10.270  1.00  0.00    -0.166 NA
HETATM   21  N   UNL     1      39.363 -10.093  11.287  1.00  0.00    -0.242 N 
HETATM   22  C   UNL     1      39.558  -9.767  12.605  1.00  0.00     0.272 A 
HETATM   23  H   UNL     1      38.490 -10.553  11.046  1.00  0.00     0.192 HD
HETATM   24  O   UNL     1      38.725 -10.012  13.471  1.00  0.00    -0.266 OA
HETATM   25  C   UNL     1      40.829  -9.097  12.925  1.00  0.00     0.046 A 
HETATM   26  C   UNL     1      41.744  -8.831  11.904  1.00  0.00     0.016 A 
HETATM   27  C   UNL     1      41.100  -8.725  14.249  1.00  0.00     0.018 A 
HETATM   28  C   UNL     1      42.935  -8.166  12.221  1.00  0.00     0.015 A 
HETATM   29  C   UNL     1      43.208  -7.797  13.544  1.00  0.00     0.001 A 
HETATM   30  C   UNL     1      42.294  -8.078  14.557  1.00  0.00     0.001 A 
ENDBRANCH   2  19
TORSDOF 4
ENDMDL
MODEL 5
REMARK VINA RESULT:      -8.4      1.620      2.287
REMARK  4 active torsions:
REMARK  status: ('A' for Active; 'I' for Inactive)
REMARK    1  A    between atoms: C_2  and  C_3 
REMARK    2  A    between atoms: C_3  and  N_4 
REMARK    3  A    between atoms: C_3  and  C_18 
REMARK       I    between atoms: N_4  and  C_5 
REMARK    4  A    between atoms: C_5  and  C_6 
ROOT
HETATM    1  N   UNL     1      40.990 -14.189   3.102  1.00  0.00    -0.344 N 
HETATM    2  C   UNL     1      40.664 -15.511   2.944  1.00  0.00     0.273 C 
HETATM    3  O   UNL     1      39.599 -15.912   2.506  1.00  0.00    -0.266 OA
HETATM    4  H   UNL     1      41.888 -13.970   3.533  1.00  0.00     0.163 HD
ENDROOT
BRANCH   1   5
HETATM    5  C   UNL     1      40.103 -13.085   2.810  1.00  0.00     0.158 C 
BRANCH   5   6
HETATM    6  C   UNL     1      40.478 -11.768   3.542  1.00  0.00     0.008 C 
HETATM    7  C   UNL     1      41.010 -11.984   4.965  1.00  0.00     0.012 C 
HETATM    8  C   UNL     1      39.312 -10.776   3.579  1.00  0.00     0.012 C 
ENDBRANCH   5   6
BRANCH   5   9
HETATM    9  C   UNL     1      40.128 -12.896   1.316  1.00  0.00     0.128 A 
HETATM   10  N   UNL     1      41.036 -12.235   0.618  1.00  0.00    -0.231 NA
HETATM   11  C   UNL     1      40.619 -12.304  -0.689  1.00  0.00     0.085 A 
HETATM   12  C   UNL     1      39.440 -13.031  -0.796  1.00  0.00     0.062 A 
HETATM   13  C   UNL     1      41.200 -11.762  -1.843  1.00  0.00     0.034 A 
HETATM   14  N   UNL     1      39.156 -13.408   0.492  1.00  0.00    -0.341 N 
HETATM   15  C   UNL     1      38.787 -13.256  -2.010  1.00  0.00     0.032 A 
HETATM   16  H   UNL     1      38.359 -13.955   0.784  1.00  0.00     0.167 HD
HETATM   17  C   UNL     1      39.378 -12.704  -3.152  1.00  0.00     0.002 A 
HETATM   18  C   UNL     1      40.564 -11.969  -3.074  1.00  0.00     0.002 A 
ENDBRANCH   5   9
ENDBRANCH   1   5
BRANCH   2  19
HETATM   19  C   UNL     1      41.776 -16.468   3.407  1.00  0.00     0.155 A 
HETATM   20  N   UNL     1      42.282 -17.223   2.469  1.00  0.00    -0.166 NA
HETATM   21  N   UNL     1      43.273 -18.094   2.800  1.00  0.00    -0.242 N 
HETATM   22  C   UNL     1      43.822 -18.255   4.047  1.00  0.00     0.272 A 
HETATM   23  H   UNL     1      43.646 -18.669   2.050  1.00  0.00     0.192 HD
HETATM   24  O   UNL     1      44.725 -19.054   4.267  1.00  0.00    -0.266 OA
HETATM   25  C   UNL     1      43.259 -17.413   5.115  1.00  0.00     0.046 A 
HETATM   26  C   UNL     1      42.225 -16.523   4.818  1.00  0.00     0.016 A 
HETATM   27  C   UNL     1      43.761 -17.523   6.419  1.00  0.00     0.018 A 
HETATM   28  C   UNL     1      41.682 -15.751   5.853  1.00  0.00     0.015 A 
HETATM   29  C   UNL     1      42.185 -15.858   7.155  1.00  0.00     0.001 A 
HETATM   30  C   UNL     1      43.225 -16.741   7.438  1.00  0.00     0.001 A 
ENDBRANCH   2  19
TORSDOF 4
ENDMDL
MODEL 6
REMARK VINA RESULT:      -8.4     15.222     18.202
REMARK  4 active torsions:
REMARK  status: ('A' for Active; 'I' for Inactive)
REMARK    1  A    between atoms: C_2  and  C_3 
REMARK    2  A    between atoms: C_3  and  N_4 
REMARK    3  A    between atoms: C_3  and  C_18 
REMARK       I    between atoms: N_4  and  C_5 
REMARK    4  A    between atoms: C_5  and  C_6 
ROOT
HETATM    1  N   UNL     1      48.276 -29.905   1.908  1.00  0.00    -0.344 N 
HETATM    2  C   UNL     1      47.556 -28.744   2.026  1.00  0.00     0.273 C 
HETATM    3  O   UNL     1      47.993 -27.704   2.487  1.00  0.00    -0.266 OA
HETATM    4  H   UNL     1      47.790 -30.732   1.562  1.00  0.00     0.163 HD
ENDROOT
BRANCH   1   5
HETATM    5  C   UNL     1      49.643 -30.069   2.350  1.00  0.00     0.158 C 
BRANCH   5   6
HETATM    6  C   UNL     1      49.800 -31.031   3.559  1.00  0.00     0.008 C 
HETATM    7  C   UNL     1      48.475 -31.366   4.256  1.00  0.00     0.012 C 
HETATM    8  C   UNL     1      50.799 -30.501   4.592  1.00  0.00     0.012 C 
ENDBRANCH   5   6
BRANCH   5   9
HETATM    9  C   UNL     1      50.423 -30.568   1.162  1.00  0.00     0.128 A 
HETATM   10  N   UNL     1      50.458 -30.027  -0.044  1.00  0.00    -0.231 NA
HETATM   11  C   UNL     1      51.267 -30.847  -0.792  1.00  0.00     0.085 A 
HETATM   12  C   UNL     1      51.746 -31.904  -0.028  1.00  0.00     0.062 A 
HETATM   13  C   UNL     1      51.635 -30.753  -2.141  1.00  0.00     0.034 A 
HETATM   14  N   UNL     1      51.206 -31.695   1.215  1.00  0.00    -0.341 N 
HETATM   15  C   UNL     1      52.588 -32.896  -0.535  1.00  0.00     0.032 A 
HETATM   16  H   UNL     1      51.347 -32.280   2.026  1.00  0.00     0.167 HD
HETATM   17  C   UNL     1      52.943 -32.788  -1.885  1.00  0.00     0.002 A 
HETATM   18  C   UNL     1      52.476 -31.736  -2.678  1.00  0.00     0.002 A 
ENDBRANCH   5   9
ENDBRANCH   1   5
BRANCH   2  19
HETATM   19  C   UNL     1      46.102 -28.883   1.542  1.00  0.00     0.155 A 
HETATM   20  N   UNL     1      45.219 -29.072   2.487  1.00  0.00    -0.166 NA
HETATM   21  N   UNL     1      43.911 -29.201   2.138  1.00  0.00    -0.242 N 
HETATM   22  C   UNL     1      43.405 -29.134   0.865  1.00  0.00     0.272 A 
HETATM   23  H   UNL     1      43.249 -29.348   2.894  1.00  0.00     0.192 HD
HETATM   24  O   UNL     1      42.208 -29.247   0.628  1.00  0.00    -0.266 OA
HETATM   25  C   UNL     1      44.389 -28.925  -0.212  1.00  0.00     0.046 A 
HETATM   26  C   UNL     1      45.744 -28.810   0.106  1.00  0.00     0.016 A 
HETATM   27  C   UNL     1      43.952 -28.853  -1.541  1.00  0.00     0.018 A 
HETATM   28  C   UNL     1      46.667 -28.641  -0.933  1.00  0.00     0.015 A 
HETATM   29  C   UNL     1      46.233 -28.566  -2.262  1.00  0.00     0.001 A 
HETATM   30  C   UNL     1      44.877 -28.669  -2.566  1.00  0.00     0.001 A 
ENDBRANCH   2  19
TORSDOF 4
ENDMDL
MODEL 7
REMARK VINA RESULT:      -8.4      2.306      7.526
REMARK  4 active torsions:
REMARK  status: ('A' for Active; 'I' for Inactive)
REMARK    1  A    between atoms: C_2  and  C_3 
REMARK    2  A    between atoms: C_3  and  N_4 
REMARK    3  A    between atoms: C_3  and  C_18 
REMARK       I    between atoms: N_4  and  C_5 
REMARK    4  A    between atoms: C_5  and  C_6 
ROOT
HETATM    1  N   UNL     1      42.323 -14.464   3.638  1.00  0.00    -0.344 N 
HETATM    2  C   UNL     1      42.542 -13.339   2.887  1.00  0.00     0.273 C 
HETATM    3  O   UNL     1      43.553 -12.660   2.937  1.00  0.00    -0.266 OA
HETATM    4  H   UNL     1      41.415 -14.920   3.557  1.00  0.00     0.163 HD
ENDROOT
BRANCH   1   5
HETATM    5  C   UNL     1      43.244 -14.980   4.626  1.00  0.00     0.158 C 
BRANCH   5   6
HETATM    6  C   UNL     1      42.772 -14.778   6.092  1.00  0.00     0.008 C 
HETATM    7  C   UNL     1      41.264 -14.526   6.223  1.00  0.00     0.012 C 
HETATM    8  C   UNL     1      43.540 -13.656   6.797  1.00  0.00     0.012 C 
ENDBRANCH   5   6
BRANCH   5   9
HETATM    9  C   UNL     1      43.430 -16.443   4.319  1.00  0.00     0.128 A 
HETATM   10  N   UNL     1      43.326 -17.021   3.135  1.00  0.00    -0.231 NA
HETATM   11  C   UNL     1      43.541 -18.359   3.357  1.00  0.00     0.085 A 
HETATM   12  C   UNL     1      43.793 -18.605   4.701  1.00  0.00     0.062 A 
HETATM   13  C   UNL     1      43.531 -19.431   2.453  1.00  0.00     0.034 A 
HETATM   14  N   UNL     1      43.730 -17.367   5.289  1.00  0.00    -0.341 N 
HETATM   15  C   UNL     1      44.042 -19.881   5.213  1.00  0.00     0.032 A 
HETATM   16  H   UNL     1      43.867 -17.174   6.270  1.00  0.00     0.167 HD
HETATM   17  C   UNL     1      44.024 -20.939   4.297  1.00  0.00     0.002 A 
HETATM   18  C   UNL     1      43.774 -20.722   2.939  1.00  0.00     0.002 A 
ENDBRANCH   5   9
ENDBRANCH   1   5
BRANCH   2  19
HETATM   19  C   UNL     1      41.356 -12.982   1.973  1.00  0.00     0.155 A 
HETATM   20  N   UNL     1      41.331 -13.611   0.828  1.00  0.00    -0.166 NA
HETATM   21  N   UNL     1      40.312 -13.351  -0.034  1.00  0.00    -0.242 N 
HETATM   22  C   UNL     1      39.268 -12.488   0.187  1.00  0.00     0.272 A 
HETATM   23  H   UNL     1      40.320 -13.853  -0.917  1.00  0.00     0.192 HD
HETATM   24  O   UNL     1      38.375 -12.315  -0.634  1.00  0.00    -0.266 OA
HETATM   25  C   UNL     1      39.284 -11.770   1.472  1.00  0.00     0.046 A 
HETATM   26  C   UNL     1      40.327 -11.993   2.374  1.00  0.00     0.016 A 
HETATM   27  C   UNL     1      38.257 -10.864   1.770  1.00  0.00     0.018 A 
HETATM   28  C   UNL     1      40.341 -11.279   3.578  1.00  0.00     0.015 A 
HETATM   29  C   UNL     1      39.315 -10.377   3.879  1.00  0.00     0.001 A 
HETATM   30  C   UNL     1      38.272 -10.171   2.978  1.00  0.00     0.001 A 
ENDBRANCH   2  19
TORSDOF 4
ENDMDL
MODEL 8
REMARK VINA RESULT:      -8.3      2.546      6.920
REMARK  4 active torsions:
REMARK  status: ('A' for Active; 'I' for Inactive)
REMARK    1  A    between atoms: C_2  and  C_3 
REMARK    2  A    between atoms: C_3  and  N_4 
REMARK    3  A    between atoms: C_3  and  C_18 
REMARK       I    between atoms: N_4  and  C_5 
REMARK    4  A    between atoms: C_5  and  C_6 
ROOT
HETATM    1  N   UNL     1      42.620 -14.054   3.819  1.00  0.00    -0.344 N 
HETATM    2  C   UNL     1      43.090 -12.812   3.479  1.00  0.00     0.273 C 
HETATM    3  O   UNL     1      44.021 -12.251   4.030  1.00  0.00    -0.266 OA
HETATM    4  H   UNL     1      41.797 -14.402   3.328  1.00  0.00     0.163 HD
ENDROOT
BRANCH   1   5
HETATM    5  C   UNL     1      43.136 -14.856   4.907  1.00  0.00     0.158 C 
BRANCH   5   6
HETATM    6  C   UNL     1      42.236 -14.851   6.173  1.00  0.00     0.008 C 
HETATM    7  C   UNL     1      41.048 -13.885   6.079  1.00  0.00     0.012 C 
HETATM    8  C   UNL     1      43.033 -14.556   7.447  1.00  0.00     0.012 C 
ENDBRANCH   5   6
BRANCH   5   9
HETATM    9  C   UNL     1      43.302 -16.253   4.371  1.00  0.00     0.128 A 
HETATM   10  N   UNL     1      42.998 -16.675   3.156  1.00  0.00    -0.231 NA
HETATM   11  C   UNL     1      43.286 -18.018   3.148  1.00  0.00     0.085 A 
HETATM   12  C   UNL     1      43.788 -18.425   4.378  1.00  0.00     0.062 A 
HETATM   13  C   UNL     1      43.140 -18.960   2.120  1.00  0.00     0.034 A 
HETATM   14  N   UNL     1      43.801 -17.280   5.134  1.00  0.00    -0.341 N 
HETATM   15  C   UNL     1      44.161 -19.742   4.655  1.00  0.00     0.032 A 
HETATM   16  H   UNL     1      44.110 -17.211   6.093  1.00  0.00     0.167 HD
HETATM   17  C   UNL     1      44.004 -20.670   3.619  1.00  0.00     0.002 A 
HETATM   18  C   UNL     1      43.503 -20.289   2.371  1.00  0.00     0.002 A 
ENDBRANCH   5   9
ENDBRANCH   1   5
BRANCH   2  19
HETATM   19  C   UNL     1      42.300 -12.161   2.330  1.00  0.00     0.155 A 
HETATM   20  N   UNL     1      42.428 -10.864   2.237  1.00  0.00    -0.166 NA
HETATM   21  N   UNL     1      41.761 -10.215   1.244  1.00  0.00    -0.242 N 
HETATM   22  C   UNL     1      40.961 -10.799   0.294  1.00  0.00     0.272 A 
HETATM   23  H   UNL     1      41.879  -9.208   1.197  1.00  0.00     0.192 HD
HETATM   24  O   UNL     1      40.402 -10.148  -0.581  1.00  0.00    -0.266 OA
HETATM   25  C   UNL     1      40.805 -12.260   0.390  1.00  0.00     0.046 A 
HETATM   26  C   UNL     1      41.455 -12.958   1.409  1.00  0.00     0.016 A 
HETATM   27  C   UNL     1      39.997 -12.930  -0.539  1.00  0.00     0.018 A 
HETATM   28  C   UNL     1      41.271 -14.343   1.501  1.00  0.00     0.015 A 
HETATM   29  C   UNL     1      40.467 -15.014   0.573  1.00  0.00     0.001 A 
HETATM   30  C   UNL     1      39.833 -14.310  -0.449  1.00  0.00     0.001 A 
ENDBRANCH   2  19
TORSDOF 4
ENDMDL
MODEL 9
REMARK VINA RESULT:      -8.2      3.609      6.121
REMARK  4 active torsions:
REMARK  status: ('A' for Active; 'I' for Inactive)
REMARK    1  A    between atoms: C_2  and  C_3 
REMARK    2  A    between atoms: C_3  and  N_4 
REMARK    3  A    between atoms: C_3  and  C_18 
REMARK       I    between atoms: N_4  and  C_5 
REMARK    4  A    between atoms: C_5  and  C_6 
ROOT
HETATM    1  N   UNL     1      42.440 -13.611   5.317  1.00  0.00    -0.344 N 
HETATM    2  C   UNL     1      42.787 -14.543   4.374  1.00  0.00     0.273 C 
HETATM    3  O   UNL     1      42.874 -14.317   3.179  1.00  0.00    -0.266 OA
HETATM    4  H   UNL     1      42.341 -13.925   6.282  1.00  0.00     0.163 HD
ENDROOT
BRANCH   1   5
HETATM    5  C   UNL     1      42.088 -12.239   5.023  1.00  0.00     0.158 C 
BRANCH   5   6
HETATM    6  C   UNL     1      40.571 -11.937   5.154  1.00  0.00     0.008 C 
HETATM    7  C   UNL     1      39.825 -12.918   6.069  1.00  0.00     0.012 C 
HETATM    8  C   UNL     1      39.873 -11.881   3.792  1.00  0.00     0.012 C 
ENDBRANCH   5   6
BRANCH   5   9
HETATM    9  C   UNL     1      42.890 -11.378   5.963  1.00  0.00     0.128 A 
HETATM   10  N   UNL     1      42.454 -10.330   6.641  1.00  0.00    -0.231 NA
HETATM   11  C   UNL     1      43.545  -9.853   7.326  1.00  0.00     0.085 A 
HETATM   12  C   UNL     1      44.669 -10.631   7.073  1.00  0.00     0.062 A 
HETATM   13  C   UNL     1      43.652  -8.751   8.185  1.00  0.00     0.034 A 
HETATM   14  N   UNL     1      44.221 -11.602   6.214  1.00  0.00    -0.341 N 
HETATM   15  C   UNL     1      45.921 -10.372   7.634  1.00  0.00     0.032 A 
HETATM   16  H   UNL     1      44.782 -12.345   5.821  1.00  0.00     0.167 HD
HETATM   17  C   UNL     1      46.011  -9.265   8.486  1.00  0.00     0.002 A 
HETATM   18  C   UNL     1      44.897  -8.466   8.759  1.00  0.00     0.002 A 
ENDBRANCH   5   9
ENDBRANCH   1   5
BRANCH   2  19
HETATM   19  C   UNL     1      43.034 -15.941   4.968  1.00  0.00     0.155 A 
HETATM   20  N   UNL     1      43.008 -16.000   6.273  1.00  0.00    -0.166 NA
HETATM   21  N   UNL     1      43.215 -17.203   6.872  1.00  0.00    -0.242 N 
HETATM   22  C   UNL     1      43.436 -18.397   6.232  1.00  0.00     0.272 A 
HETATM   23  H   UNL     1      43.192 -17.218   7.887  1.00  0.00     0.192 HD
HETATM   24  O   UNL     1      43.602 -19.447   6.842  1.00  0.00    -0.266 OA
HETATM   25  C   UNL     1      43.471 -18.344   4.761  1.00  0.00     0.046 A 
HETATM   26  C   UNL     1      43.285 -17.123   4.110  1.00  0.00     0.016 A 
HETATM   27  C   UNL     1      43.699 -19.520   4.033  1.00  0.00     0.018 A 
HETATM   28  C   UNL     1      43.351 -17.088   2.712  1.00  0.00     0.015 A 
HETATM   29  C   UNL     1      43.575 -18.262   1.983  1.00  0.00     0.001 A 
HETATM   30  C   UNL     1      43.747 -19.478   2.642  1.00  0.00     0.001 A 
ENDBRANCH   2  19
TORSDOF 4
ENDMDL
MODEL 10
REMARK VINA RESULT:      -8.1      4.198      7.300
REMARK  4 active torsions:
REMARK  status: ('A' for Active; 'I' for Inactive)
REMARK    1  A    between atoms: C_2  and  C_3 
REMARK    2  A    between atoms: C_3  and  N_4 
REMARK    3  A    between atoms: C_3  and  C_18 
REMARK       I    between atoms: N_4  and  C_5 
REMARK    4  A    between atoms: C_5  and  C_6 
ROOT
HETATM    1  N   UNL     1      42.111 -12.214   6.312  1.00  0.00    -0.344 N 
HETATM    2  C   UNL     1      43.042 -12.802   5.496  1.00  0.00     0.273 C 
HETATM    3  O   UNL     1      43.725 -12.203   4.684  1.00  0.00    -0.266 OA
HETATM    4  H   UNL     1      41.555 -12.821   6.914  1.00  0.00     0.163 HD
ENDROOT
BRANCH   1   5
HETATM    5  C   UNL     1      41.780 -10.806   6.296  1.00  0.00     0.158 C 
BRANCH   5   6
HETATM    6  C   UNL     1      40.273 -10.519   6.051  1.00  0.00     0.008 C 
HETATM    7  C   UNL     1      39.397 -11.778   6.062  1.00  0.00     0.012 C 
HETATM    8  C   UNL     1      40.037  -9.744   4.752  1.00  0.00     0.012 C 
ENDBRANCH   5   6
BRANCH   5   9
HETATM    9  C   UNL     1      42.226 -10.243   7.619  1.00  0.00     0.128 A 
HETATM   10  N   UNL     1      43.455 -10.250   8.108  1.00  0.00    -0.231 NA
HETATM   11  C   UNL     1      43.363  -9.663   9.346  1.00  0.00     0.085 A 
HETATM   12  C   UNL     1      42.056  -9.277   9.617  1.00  0.00     0.062 A 
HETATM   13  C   UNL     1      44.361  -9.428  10.302  1.00  0.00     0.034 A 
HETATM   14  N   UNL     1      41.355  -9.645   8.497  1.00  0.00    -0.341 N 
HETATM   15  C   UNL     1      41.672  -8.659  10.809  1.00  0.00     0.032 A 
HETATM   16  H   UNL     1      40.365  -9.512   8.351  1.00  0.00     0.167 HD
HETATM   17  C   UNL     1      42.680  -8.435  11.754  1.00  0.00     0.002 A 
HETATM   18  C   UNL     1      44.003  -8.812  11.508  1.00  0.00     0.002 A 
ENDBRANCH   5   9
ENDBRANCH   1   5
BRANCH   2  19
HETATM   19  C   UNL     1      43.130 -14.327   5.680  1.00  0.00     0.155 A 
HETATM   20  N   UNL     1      43.206 -14.732   6.920  1.00  0.00    -0.166 NA
HETATM   21  N   UNL     1      43.284 -16.068   7.163  1.00  0.00    -0.242 N 
HETATM   22  C   UNL     1      43.271 -17.063   6.218  1.00  0.00     0.272 A 
HETATM   23  H   UNL     1      43.344 -16.352   8.136  1.00  0.00     0.192 HD
HETATM   24  O   UNL     1      43.332 -18.250   6.515  1.00  0.00    -0.266 OA
HETATM   25  C   UNL     1      43.189 -16.621   4.816  1.00  0.00     0.046 A 
HETATM   26  C   UNL     1      43.131 -15.257   4.525  1.00  0.00     0.016 A 
HETATM   27  C   UNL     1      43.179 -17.577   3.791  1.00  0.00     0.018 A 
HETATM   28  C   UNL     1      43.082 -14.855   3.185  1.00  0.00     0.015 A 
HETATM   29  C   UNL     1      43.069 -15.808   2.160  1.00  0.00     0.001 A 
HETATM   30  C   UNL     1      43.114 -17.168   2.461  1.00  0.00     0.001 A 
ENDBRANCH   2  19
TORSDOF 4
ENDMDL
