MODEL 1
REMARK VINA RESULT:     -10.0      0.000      0.000
REMARK  6 active torsions:
REMARK  status: ('A' for Active; 'I' for Inactive)
REMARK    1  A    between atoms: C_2  and  C_3 
REMARK    2  A    between atoms: C_6  and  N_7 
REMARK    3  A    between atoms: C_8  and  C_10 
REMARK    4  A    between atoms: C_8  and  O_9 
REMARK       I    between atoms: C_10  and  N_11 
REMARK    5  A    between atoms: N_11  and  C_12 
REMARK    6  A    between atoms: C_12  and  C_13 
ROOT
HETATM    1  N   UNL     1      42.357 -12.475   4.382  1.00  0.00    -0.254 N 
HETATM    2  C   UNL     1      41.331 -13.531   4.502  1.00  0.00     0.256 C 
HETATM    3  C   UNL     1      40.948 -14.173   3.178  1.00  0.00     0.034 A 
HETATM    4  C   UNL     1      41.252 -13.504   2.001  1.00  0.00     0.048 A 
HETATM    5  N   UNL     1      41.945 -12.309   2.070  1.00  0.00    -0.308 N 
HETATM    6  C   UNL     1      42.502 -11.775   3.193  1.00  0.00     0.330 C 
HETATM    7  O   UNL     1      43.132 -10.726   3.048  1.00  0.00    -0.246 OA
HETATM    8  C   UNL     1      40.234 -15.382   3.089  1.00  0.00     0.015 A 
HETATM    9  C   UNL     1      39.872 -15.909   1.846  1.00  0.00     0.001 A 
HETATM   10  C   UNL     1      40.192 -15.222   0.679  1.00  0.00     0.002 A 
HETATM   11  C   UNL     1      40.874 -14.009   0.755  1.00  0.00     0.030 A 
HETATM   12  H   UNL     1      42.123 -11.775   1.230  1.00  0.00     0.170 HD
ENDROOT
BRANCH   2  13
HETATM   13  C   UNL     1      41.815 -14.683   5.486  1.00  0.00     0.279 C 
HETATM   14  N   UNL     1      42.854 -15.476   5.046  1.00  0.00    -0.352 N 
HETATM   15  H   UNL     1      43.395 -15.150   4.253  1.00  0.00     0.162 HD
HETATM   16  O   UNL     1      41.209 -14.897   6.541  1.00  0.00    -0.268 OA
BRANCH  14  17
HETATM   17  C   UNL     1      43.454 -16.470   5.905  1.00  0.00     0.161 C 
BRANCH  17  18
HETATM   18  C   UNL     1      43.649 -17.783   5.191  1.00  0.00    -0.038 A 
HETATM   19  C   UNL     1      43.591 -17.845   3.787  1.00  0.00     0.048 A 
HETATM   20  C   UNL     1      43.711 -19.078   3.183  1.00  0.00     0.105 A 
HETATM   21  C   UNL     1      43.873 -20.230   3.914  1.00  0.00     0.105 A 
HETATM   22  O   UNL     1      43.673 -19.314   1.844  1.00  0.00    -0.323 OA
HETATM   23  O   UNL     1      43.957 -21.336   3.128  1.00  0.00    -0.323 OA
HETATM   24  C   UNL     1      43.927 -20.214   5.290  1.00  0.00     0.040 A 
HETATM   25  C   UNL     1      43.820 -20.748   1.817  1.00  0.00     0.352 A 
HETATM   26  C   UNL     1      43.809 -18.976   5.931  1.00  0.00     0.012 A 
ENDBRANCH  17  18
ENDBRANCH  14  17
ENDBRANCH   2  13
BRANCH   2  27
HETATM   27  O   UNL     1      40.134 -12.927   4.996  1.00  0.00    -0.359 OA
HETATM   28  H   UNL     1      40.171 -12.004   4.682  1.00  0.00     0.213 HD
ENDBRANCH   2  27
BRANCH   1  29
HETATM   29  C   UNL     1      43.074 -12.031   5.555  1.00  0.00     0.043 A 
HETATM   30  C   UNL     1      44.400 -12.405   5.813  1.00  0.00     0.030 A 
HETATM   31  C   UNL     1      45.113 -11.863   6.890  1.00  0.00     0.009 A 
HETATM   32  C   UNL     1      44.513 -10.935   7.745  1.00  0.00    -0.058 A 
HETATM   33  C   UNL     1      43.184 -10.574   7.516  1.00  0.00     0.009 A 
HETATM   34  C   UNL     1      42.476 -11.118   6.439  1.00  0.00     0.030 A 
BRANCH  32  35
HETATM   35  C   UNL     1      45.295 -10.307   8.870  1.00  0.00     0.034 C 
HETATM   36  C   UNL     1      45.847  -8.946   8.472  1.00  0.00     0.010 C 
ENDBRANCH  32  35
ENDBRANCH   1  29
TORSDOF 6
ENDMDL
MODEL 2
REMARK VINA RESULT:      -9.6      2.423      3.670
REMARK  6 active torsions:
REMARK  status: ('A' for Active; 'I' for Inactive)
REMARK    1  A    between atoms: C_2  and  C_3 
REMARK    2  A    between atoms: C_6  and  N_7 
REMARK    3  A    between atoms: C_8  and  C_10 
REMARK    4  A    between atoms: C_8  and  O_9 
REMARK       I    between atoms: C_10  and  N_11 
REMARK    5  A    between atoms: N_11  and  C_12 
REMARK    6  A    between atoms: C_12  and  C_13 
ROOT
HETATM    1  N   UNL     1      40.050 -12.887   3.164  1.00  0.00    -0.254 N 
HETATM    2  C   UNL     1      40.018 -13.782   1.990  1.00  0.00     0.256 C 
HETATM    3  C   UNL     1      39.511 -13.118   0.721  1.00  0.00     0.034 A 
HETATM    4  C   UNL     1      38.785 -11.940   0.830  1.00  0.00     0.048 A 
HETATM    5  N   UNL     1      38.600 -11.381   2.082  1.00  0.00    -0.308 N 
HETATM    6  C   UNL     1      39.193 -11.798   3.235  1.00  0.00     0.330 C 
HETATM    7  O   UNL     1      38.950 -11.138   4.247  1.00  0.00    -0.246 OA
HETATM    8  C   UNL     1      39.680 -13.676  -0.559  1.00  0.00     0.015 A 
HETATM    9  C   UNL     1      39.159 -13.044  -1.691  1.00  0.00     0.001 A 
HETATM   10  C   UNL     1      38.437 -11.861  -1.557  1.00  0.00     0.002 A 
HETATM   11  C   UNL     1      38.239 -11.312  -0.292  1.00  0.00     0.030 A 
HETATM   12  H   UNL     1      38.023 -10.558   2.191  1.00  0.00     0.170 HD
ENDROOT
BRANCH   2  13
HETATM   13  C   UNL     1      41.462 -14.377   1.691  1.00  0.00     0.279 C 
HETATM   14  N   UNL     1      41.613 -15.740   1.838  1.00  0.00    -0.352 N 
HETATM   15  H   UNL     1      40.772 -16.306   1.895  1.00  0.00     0.162 HD
HETATM   16  O   UNL     1      42.408 -13.623   1.438  1.00  0.00    -0.268 OA
BRANCH  14  17
HETATM   17  C   UNL     1      42.843 -16.403   1.475  1.00  0.00     0.161 C 
BRANCH  17  18
HETATM   18  C   UNL     1      43.289 -17.376   2.535  1.00  0.00    -0.038 A 
HETATM   19  C   UNL     1      43.335 -18.755   2.262  1.00  0.00     0.048 A 
HETATM   20  C   UNL     1      43.687 -19.612   3.283  1.00  0.00     0.105 A 
HETATM   21  C   UNL     1      43.981 -19.153   4.545  1.00  0.00     0.105 A 
HETATM   22  O   UNL     1      43.774 -20.966   3.189  1.00  0.00    -0.323 OA
HETATM   23  O   UNL     1      44.289 -20.160   5.403  1.00  0.00    -0.323 OA
HETATM   24  C   UNL     1      43.941 -17.812   4.855  1.00  0.00     0.040 A 
HETATM   25  C   UNL     1      44.148 -21.307   4.539  1.00  0.00     0.352 A 
HETATM   26  C   UNL     1      43.588 -16.918   3.839  1.00  0.00     0.012 A 
ENDBRANCH  17  18
ENDBRANCH  14  17
ENDBRANCH   2  13
BRANCH   2  27
HETATM   27  O   UNL     1      39.095 -14.838   2.266  1.00  0.00    -0.359 OA
HETATM   28  H   UNL     1      39.650 -15.631   2.386  1.00  0.00     0.213 HD
ENDBRANCH   2  27
BRANCH   1  29
HETATM   29  C   UNL     1      40.826 -13.252   4.328  1.00  0.00     0.043 A 
HETATM   30  C   UNL     1      40.474 -14.322   5.161  1.00  0.00     0.030 A 
HETATM   31  C   UNL     1      41.307 -14.733   6.210  1.00  0.00     0.009 A 
HETATM   32  C   UNL     1      42.515 -14.076   6.458  1.00  0.00    -0.058 A 
HETATM   33  C   UNL     1      42.865 -12.991   5.653  1.00  0.00     0.009 A 
HETATM   34  C   UNL     1      42.030 -12.584   4.607  1.00  0.00     0.030 A 
BRANCH  32  35
HETATM   35  C   UNL     1      43.439 -14.552   7.547  1.00  0.00     0.034 C 
HETATM   36  C   UNL     1      43.132 -15.987   7.952  1.00  0.00     0.010 C 
ENDBRANCH  32  35
ENDBRANCH   1  29
TORSDOF 6
ENDMDL
MODEL 3
REMARK VINA RESULT:      -9.4      2.913      5.913
REMARK  6 active torsions:
REMARK  status: ('A' for Active; 'I' for Inactive)
REMARK    1  A    between atoms: C_2  and  C_3 
REMARK    2  A    between atoms: C_6  and  N_7 
REMARK    3  A    between atoms: C_8  and  C_10 
REMARK    4  A    between atoms: C_8  and  O_9 
REMARK       I    between atoms: C_10  and  N_11 
REMARK    5  A    between atoms: N_11  and  C_12 
REMARK    6  A    between atoms: C_12  and  C_13 
ROOT
HETATM    1  N   UNL     1      40.108 -13.660   0.773  1.00  0.00    -0.254 N 
HETATM    2  C   UNL     1      40.054 -12.326   1.405  1.00  0.00     0.256 C 
HETATM    3  C   UNL     1      38.875 -11.478   0.957  1.00  0.00     0.034 A 
HETATM    4  C   UNL     1      38.220 -11.816  -0.219  1.00  0.00     0.048 A 
HETATM    5  N   UNL     1      38.623 -12.946  -0.908  1.00  0.00    -0.308 N 
HETATM    6  C   UNL     1      39.525 -13.867  -0.468  1.00  0.00     0.330 C 
HETATM    7  O   UNL     1      39.714 -14.842  -1.199  1.00  0.00    -0.246 OA
HETATM    8  C   UNL     1      38.458 -10.320   1.638  1.00  0.00     0.015 A 
HETATM    9  C   UNL     1      37.392  -9.552   1.160  1.00  0.00     0.001 A 
HETATM   10  C   UNL     1      36.748  -9.914  -0.019  1.00  0.00     0.002 A 
HETATM   11  C   UNL     1      37.169 -11.043  -0.719  1.00  0.00     0.030 A 
HETATM   12  H   UNL     1      38.201 -13.176  -1.798  1.00  0.00     0.170 HD
ENDROOT
BRANCH   2  13
HETATM   13  C   UNL     1      39.995 -12.451   2.989  1.00  0.00     0.279 C 
HETATM   14  N   UNL     1      41.177 -12.249   3.670  1.00  0.00    -0.352 N 
HETATM   15  H   UNL     1      41.944 -11.813   3.169  1.00  0.00     0.162 HD
HETATM   16  O   UNL     1      38.953 -12.809   3.549  1.00  0.00    -0.268 OA
BRANCH  14  17
HETATM   17  C   UNL     1      41.216 -12.217   5.113  1.00  0.00     0.161 C 
BRANCH  17  18
HETATM   18  C   UNL     1      41.590 -13.556   5.694  1.00  0.00    -0.038 A 
HETATM   19  C   UNL     1      42.941 -13.920   5.834  1.00  0.00     0.048 A 
HETATM   20  C   UNL     1      43.232 -15.180   6.310  1.00  0.00     0.105 A 
HETATM   21  C   UNL     1      42.244 -16.077   6.636  1.00  0.00     0.105 A 
HETATM   22  O   UNL     1      44.479 -15.688   6.499  1.00  0.00    -0.323 OA
HETATM   23  O   UNL     1      42.744 -17.264   7.071  1.00  0.00    -0.323 OA
HETATM   24  C   UNL     1      40.910 -15.764   6.507  1.00  0.00     0.040 A 
HETATM   25  C   UNL     1      44.162 -17.013   6.974  1.00  0.00     0.352 A 
HETATM   26  C   UNL     1      40.583 -14.491   6.027  1.00  0.00     0.012 A 
ENDBRANCH  17  18
ENDBRANCH  14  17
ENDBRANCH   2  13
BRANCH   2  27
HETATM   27  O   UNL     1      41.221 -11.603   1.008  1.00  0.00    -0.359 OA
HETATM   28  H   UNL     1      41.660 -12.176   0.352  1.00  0.00     0.213 HD
ENDBRANCH   2  27
BRANCH   1  29
HETATM   29  C   UNL     1      40.936 -14.695   1.346  1.00  0.00     0.043 A 
HETATM   30  C   UNL     1      42.331 -14.707   1.206  1.00  0.00     0.030 A 
HETATM   31  C   UNL     1      43.122 -15.651   1.873  1.00  0.00     0.009 A 
HETATM   32  C   UNL     1      42.536 -16.617   2.694  1.00  0.00    -0.058 A 
HETATM   33  C   UNL     1      41.146 -16.635   2.821  1.00  0.00     0.009 A 
HETATM   34  C   UNL     1      40.360 -15.690   2.153  1.00  0.00     0.030 A 
BRANCH  32  35
HETATM   35  C   UNL     1      43.388 -17.597   3.458  1.00  0.00     0.034 C 
HETATM   36  C   UNL     1      43.640 -18.863   2.651  1.00  0.00     0.010 C 
ENDBRANCH  32  35
ENDBRANCH   1  29
TORSDOF 6
ENDMDL
MODEL 4
REMARK VINA RESULT:      -9.4      2.803      6.706
REMARK  6 active torsions:
REMARK  status: ('A' for Active; 'I' for Inactive)
REMARK    1  A    between atoms: C_2  and  C_3 
REMARK    2  A    between atoms: C_6  and  N_7 
REMARK    3  A    between atoms: C_8  and  C_10 
REMARK    4  A    between atoms: C_8  and  O_9 
REMARK       I    between atoms: C_10  and  N_11 
REMARK    5  A    between atoms: N_11  and  C_12 
REMARK    6  A    between atoms: C_12  and  C_13 
ROOT
HETATM    1  N   UNL     1      42.701 -15.518   4.699  1.00  0.00    -0.254 N 
HETATM    2  C   UNL     1      42.681 -16.109   3.345  1.00  0.00     0.256 C 
HETATM    3  C   UNL     1      43.091 -17.571   3.304  1.00  0.00     0.034 A 
HETATM    4  C   UNL     1      43.795 -18.096   4.378  1.00  0.00     0.048 A 
HETATM    5  N   UNL     1      44.044 -17.289   5.474  1.00  0.00    -0.308 N 
HETATM    6  C   UNL     1      43.535 -16.042   5.676  1.00  0.00     0.330 C 
HETATM    7  O   UNL     1      43.825 -15.497   6.743  1.00  0.00    -0.246 OA
HETATM    8  C   UNL     1      42.856 -18.405   2.195  1.00  0.00     0.015 A 
HETATM    9  C   UNL     1      43.290 -19.733   2.192  1.00  0.00     0.001 A 
HETATM   10  C   UNL     1      43.990 -20.238   3.284  1.00  0.00     0.002 A 
HETATM   11  C   UNL     1      44.254 -19.416   4.377  1.00  0.00     0.030 A 
HETATM   12  H   UNL     1      44.607 -17.632   6.240  1.00  0.00     0.170 HD
ENDROOT
BRANCH   2  13
HETATM   13  C   UNL     1      41.235 -15.985   2.694  1.00  0.00     0.279 C 
HETATM   14  N   UNL     1      41.153 -15.314   1.492  1.00  0.00    -0.352 N 
HETATM   15  H   UNL     1      42.015 -15.146   0.984  1.00  0.00     0.162 HD
HETATM   16  O   UNL     1      40.240 -16.391   3.303  1.00  0.00    -0.268 OA
BRANCH  14  17
HETATM   17  C   UNL     1      39.916 -15.248   0.752  1.00  0.00     0.161 C 
BRANCH  17  18
HETATM   18  C   UNL     1      39.996 -14.266  -0.389  1.00  0.00    -0.038 A 
HETATM   19  C   UNL     1      40.689 -13.052  -0.236  1.00  0.00     0.048 A 
HETATM   20  C   UNL     1      40.681 -12.158  -1.285  1.00  0.00     0.105 A 
HETATM   21  C   UNL     1      40.009 -12.422  -2.455  1.00  0.00     0.105 A 
HETATM   22  O   UNL     1      41.294 -10.944  -1.299  1.00  0.00    -0.323 OA
HETATM   23  O   UNL     1      40.115 -11.407  -3.353  1.00  0.00    -0.323 OA
HETATM   24  C   UNL     1      39.312 -13.594  -2.642  1.00  0.00     0.040 A 
HETATM   25  C   UNL     1      40.923 -10.470  -2.610  1.00  0.00     0.352 A 
HETATM   26  C   UNL     1      39.304 -14.522  -1.595  1.00  0.00     0.012 A 
ENDBRANCH  17  18
ENDBRANCH  14  17
ENDBRANCH   2  13
BRANCH   2  27
HETATM   27  O   UNL     1      43.644 -15.417   2.548  1.00  0.00    -0.359 OA
HETATM   28  H   UNL     1      43.188 -15.235   1.705  1.00  0.00     0.213 HD
ENDBRANCH   2  27
BRANCH   1  29
HETATM   29  C   UNL     1      42.009 -14.276   4.953  1.00  0.00     0.043 A 
HETATM   30  C   UNL     1      40.833 -14.211   5.714  1.00  0.00     0.030 A 
HETATM   31  C   UNL     1      40.250 -12.983   6.050  1.00  0.00     0.009 A 
HETATM   32  C   UNL     1      40.825 -11.782   5.625  1.00  0.00    -0.058 A 
HETATM   33  C   UNL     1      41.981 -11.833   4.844  1.00  0.00     0.009 A 
HETATM   34  C   UNL     1      42.560 -13.062   4.511  1.00  0.00     0.030 A 
BRANCH  32  35
HETATM   35  C   UNL     1      40.233 -10.459   6.033  1.00  0.00     0.034 C 
HETATM   36  C   UNL     1      39.175 -10.631   7.114  1.00  0.00     0.010 C 
ENDBRANCH  32  35
ENDBRANCH   1  29
TORSDOF 6
ENDMDL
MODEL 5
REMARK VINA RESULT:      -9.4      2.722      4.366
REMARK  6 active torsions:
REMARK  status: ('A' for Active; 'I' for Inactive)
REMARK    1  A    between atoms: C_2  and  C_3 
REMARK    2  A    between atoms: C_6  and  N_7 
REMARK    3  A    between atoms: C_8  and  C_10 
REMARK    4  A    between atoms: C_8  and  O_9 
REMARK       I    between atoms: C_10  and  N_11 
REMARK    5  A    between atoms: N_11  and  C_12 
REMARK    6  A    between atoms: C_12  and  C_13 
ROOT
HETATM    1  N   UNL     1      41.069 -12.142   1.262  1.00  0.00    -0.254 N 
HETATM    2  C   UNL     1      40.090 -13.176   0.872  1.00  0.00     0.256 C 
HETATM    3  C   UNL     1      39.896 -13.307  -0.630  1.00  0.00     0.034 A 
HETATM    4  C   UNL     1      40.300 -12.261  -1.448  1.00  0.00     0.048 A 
HETATM    5  N   UNL     1      40.920 -11.165  -0.874  1.00  0.00    -0.308 N 
HETATM    6  C   UNL     1      41.316 -11.063   0.425  1.00  0.00     0.330 C 
HETATM    7  O   UNL     1      41.906 -10.027   0.740  1.00  0.00    -0.246 OA
HETATM    8  C   UNL     1      39.258 -14.408  -1.230  1.00  0.00     0.015 A 
HETATM    9  C   UNL     1      39.069 -14.460  -2.614  1.00  0.00     0.001 A 
HETATM   10  C   UNL     1      39.488 -13.401  -3.413  1.00  0.00     0.002 A 
HETATM   11  C   UNL     1      40.095 -12.291  -2.829  1.00  0.00     0.030 A 
HETATM   12  H   UNL     1      41.167 -10.366  -1.443  1.00  0.00     0.170 HD
ENDROOT
BRANCH   2  13
HETATM   13  C   UNL     1      40.513 -14.600   1.439  1.00  0.00     0.279 C 
HETATM   14  N   UNL     1      39.891 -15.015   2.597  1.00  0.00    -0.352 N 
HETATM   15  H   UNL     1      39.055 -14.519   2.889  1.00  0.00     0.162 HD
HETATM   16  O   UNL     1      41.426 -15.238   0.904  1.00  0.00    -0.268 OA
BRANCH  14  17
HETATM   17  C   UNL     1      40.106 -16.338   3.132  1.00  0.00     0.161 C 
BRANCH  17  18
HETATM   18  C   UNL     1      41.224 -16.359   4.143  1.00  0.00    -0.038 A 
HETATM   19  C   UNL     1      40.960 -16.107   5.501  1.00  0.00     0.048 A 
HETATM   20  C   UNL     1      42.024 -16.073   6.377  1.00  0.00     0.105 A 
HETATM   21  C   UNL     1      43.317 -16.268   5.955  1.00  0.00     0.105 A 
HETATM   22  O   UNL     1      41.944 -15.839   7.715  1.00  0.00    -0.323 OA
HETATM   23  O   UNL     1      44.214 -16.180   6.972  1.00  0.00    -0.323 OA
HETATM   24  C   UNL     1      43.618 -16.509   4.633  1.00  0.00     0.040 A 
HETATM   25  C   UNL     1      43.337 -15.900   8.084  1.00  0.00     0.352 A 
HETATM   26  C   UNL     1      42.559 -16.551   3.720  1.00  0.00     0.012 A 
ENDBRANCH  17  18
ENDBRANCH  14  17
ENDBRANCH   2  13
BRANCH   2  27
HETATM   27  O   UNL     1      38.815 -12.794   1.392  1.00  0.00    -0.359 OA
HETATM   28  H   UNL     1      38.327 -12.441   0.624  1.00  0.00     0.213 HD
ENDBRANCH   2  27
BRANCH   1  29
HETATM   29  C   UNL     1      41.622 -12.140   2.597  1.00  0.00     0.043 A 
HETATM   30  C   UNL     1      40.885 -11.729   3.716  1.00  0.00     0.030 A 
HETATM   31  C   UNL     1      41.400 -11.853   5.013  1.00  0.00     0.009 A 
HETATM   32  C   UNL     1      42.674 -12.386   5.224  1.00  0.00    -0.058 A 
HETATM   33  C   UNL     1      43.430 -12.774   4.116  1.00  0.00     0.009 A 
HETATM   34  C   UNL     1      42.911 -12.648   2.823  1.00  0.00     0.030 A 
BRANCH  32  35
HETATM   35  C   UNL     1      43.208 -12.574   6.620  1.00  0.00     0.034 C 
HETATM   36  C   UNL     1      44.721 -12.418   6.664  1.00  0.00     0.010 C 
ENDBRANCH  32  35
ENDBRANCH   1  29
TORSDOF 6
ENDMDL
MODEL 6
REMARK VINA RESULT:      -9.2      2.622      7.602
REMARK  6 active torsions:
REMARK  status: ('A' for Active; 'I' for Inactive)
REMARK    1  A    between atoms: C_2  and  C_3 
REMARK    2  A    between atoms: C_6  and  N_7 
REMARK    3  A    between atoms: C_8  and  C_10 
REMARK    4  A    between atoms: C_8  and  O_9 
REMARK       I    between atoms: C_10  and  N_11 
REMARK    5  A    between atoms: N_11  and  C_12 
REMARK    6  A    between atoms: C_12  and  C_13 
ROOT
HETATM    1  N   UNL     1      40.998 -13.793   2.472  1.00  0.00    -0.254 N 
HETATM    2  C   UNL     1      41.366 -12.575   3.222  1.00  0.00     0.256 C 
HETATM    3  C   UNL     1      40.271 -11.523   3.267  1.00  0.00     0.034 A 
HETATM    4  C   UNL     1      39.243 -11.590   2.337  1.00  0.00     0.048 A 
HETATM    5  N   UNL     1      39.219 -12.645   1.443  1.00  0.00    -0.308 N 
HETATM    6  C   UNL     1      40.039 -13.732   1.471  1.00  0.00     0.330 C 
HETATM    7  O   UNL     1      39.829 -14.601   0.622  1.00  0.00    -0.246 OA
HETATM    8  C   UNL     1      40.284 -10.437   4.162  1.00  0.00     0.015 A 
HETATM    9  C   UNL     1      39.272  -9.474   4.135  1.00  0.00     0.001 A 
HETATM   10  C   UNL     1      38.249  -9.566   3.196  1.00  0.00     0.002 A 
HETATM   11  C   UNL     1      38.239 -10.621   2.285  1.00  0.00     0.030 A 
HETATM   12  H   UNL     1      38.514 -12.681   0.718  1.00  0.00     0.170 HD
ENDROOT
BRANCH   2  13
HETATM   13  C   UNL     1      41.769 -12.931   4.719  1.00  0.00     0.279 C 
HETATM   14  N   UNL     1      43.109 -12.851   5.034  1.00  0.00    -0.352 N 
HETATM   15  H   UNL     1      43.719 -12.359   4.390  1.00  0.00     0.162 HD
HETATM   16  O   UNL     1      40.919 -13.349   5.511  1.00  0.00    -0.268 OA
BRANCH  14  17
HETATM   17  C   UNL     1      43.573 -13.031   6.390  1.00  0.00     0.161 C 
BRANCH  17  18
HETATM   18  C   UNL     1      44.092 -11.745   6.980  1.00  0.00    -0.038 A 
HETATM   19  C   UNL     1      43.199 -10.770   7.459  1.00  0.00     0.048 A 
HETATM   20  C   UNL     1      43.719  -9.584   7.930  1.00  0.00     0.105 A 
HETATM   21  C   UNL     1      45.071  -9.336   7.933  1.00  0.00     0.105 A 
HETATM   22  O   UNL     1      42.998  -8.540   8.421  1.00  0.00    -0.323 OA
HETATM   23  O   UNL     1      45.371  -8.105   8.425  1.00  0.00    -0.323 OA
HETATM   24  C   UNL     1      45.978 -10.261   7.467  1.00  0.00     0.040 A 
HETATM   25  C   UNL     1      44.051  -7.603   8.724  1.00  0.00     0.352 A 
HETATM   26  C   UNL     1      45.480 -11.475   6.983  1.00  0.00     0.012 A 
ENDBRANCH  17  18
ENDBRANCH  14  17
ENDBRANCH   2  13
BRANCH   2  27
HETATM   27  O   UNL     1      42.464 -11.958   2.546  1.00  0.00    -0.359 OA
HETATM   28  H   UNL     1      43.098 -12.682   2.385  1.00  0.00     0.213 HD
ENDBRANCH   2  27
BRANCH   1  29
HETATM   29  C   UNL     1      41.770 -15.002   2.638  1.00  0.00     0.043 A 
HETATM   30  C   UNL     1      41.399 -16.016   3.532  1.00  0.00     0.030 A 
HETATM   31  C   UNL     1      42.095 -17.231   3.584  1.00  0.00     0.009 A 
HETATM   32  C   UNL     1      43.189 -17.461   2.746  1.00  0.00    -0.058 A 
HETATM   33  C   UNL     1      43.586 -16.450   1.870  1.00  0.00     0.009 A 
HETATM   34  C   UNL     1      42.888 -15.238   1.821  1.00  0.00     0.030 A 
BRANCH  32  35
HETATM   35  C   UNL     1      43.902 -18.788   2.760  1.00  0.00     0.034 C 
HETATM   36  C   UNL     1      43.142 -19.838   1.963  1.00  0.00     0.010 C 
ENDBRANCH  32  35
ENDBRANCH   1  29
TORSDOF 6
ENDMDL
MODEL 7
REMARK VINA RESULT:      -9.2      3.265      7.240
REMARK  6 active torsions:
REMARK  status: ('A' for Active; 'I' for Inactive)
REMARK    1  A    between atoms: C_2  and  C_3 
REMARK    2  A    between atoms: C_6  and  N_7 
REMARK    3  A    between atoms: C_8  and  C_10 
REMARK    4  A    between atoms: C_8  and  O_9 
REMARK       I    between atoms: C_10  and  N_11 
REMARK    5  A    between atoms: N_11  and  C_12 
REMARK    6  A    between atoms: C_12  and  C_13 
ROOT
HETATM    1  N   UNL     1      42.376 -14.376   3.900  1.00  0.00    -0.254 N 
HETATM    2  C   UNL     1      42.585 -15.238   2.719  1.00  0.00     0.256 C 
HETATM    3  C   UNL     1      43.047 -16.646   3.057  1.00  0.00     0.034 A 
HETATM    4  C   UNL     1      43.593 -16.885   4.310  1.00  0.00     0.048 A 
HETATM    5  N   UNL     1      43.643 -15.851   5.227  1.00  0.00    -0.308 N 
HETATM    6  C   UNL     1      43.067 -14.626   5.077  1.00  0.00     0.330 C 
HETATM    7  O   UNL     1      43.170 -13.850   6.030  1.00  0.00    -0.246 OA
HETATM    8  C   UNL     1      43.014 -17.708   2.135  1.00  0.00     0.015 A 
HETATM    9  C   UNL     1      43.488 -18.975   2.484  1.00  0.00     0.001 A 
HETATM   10  C   UNL     1      44.028 -19.192   3.748  1.00  0.00     0.002 A 
HETATM   11  C   UNL     1      44.092 -18.142   4.662  1.00  0.00     0.030 A 
HETATM   12  H   UNL     1      44.092 -15.987   6.123  1.00  0.00     0.170 HD
ENDROOT
BRANCH   2  13
HETATM   13  C   UNL     1      41.254 -15.350   1.857  1.00  0.00     0.279 C 
HETATM   14  N   UNL     1      41.247 -14.697   0.642  1.00  0.00    -0.352 N 
HETATM   15  H   UNL     1      42.138 -14.389   0.265  1.00  0.00     0.162 HD
HETATM   16  O   UNL     1      40.258 -15.916   2.318  1.00  0.00    -0.268 OA
BRANCH  14  17
HETATM   17  C   UNL     1      40.142 -14.832  -0.277  1.00  0.00     0.161 C 
BRANCH  17  18
HETATM   18  C   UNL     1      39.454 -13.514  -0.524  1.00  0.00    -0.038 A 
HETATM   19  C   UNL     1      38.533 -13.378  -1.578  1.00  0.00     0.048 A 
HETATM   20  C   UNL     1      37.979 -12.137  -1.805  1.00  0.00     0.105 A 
HETATM   21  C   UNL     1      38.311 -11.044  -1.041  1.00  0.00     0.105 A 
HETATM   22  O   UNL     1      37.081 -11.835  -2.781  1.00  0.00    -0.323 OA
HETATM   23  O   UNL     1      37.665  -9.917  -1.438  1.00  0.00    -0.323 OA
HETATM   24  C   UNL     1      39.214 -11.133  -0.005  1.00  0.00     0.040 A 
HETATM   25  C   UNL     1      36.893 -10.424  -2.548  1.00  0.00     0.352 A 
HETATM   26  C   UNL     1      39.792 -12.381   0.251  1.00  0.00     0.012 A 
ENDBRANCH  17  18
ENDBRANCH  14  17
ENDBRANCH   2  13
BRANCH   2  27
HETATM   27  O   UNL     1      43.636 -14.666   1.937  1.00  0.00    -0.359 OA
HETATM   28  H   UNL     1      44.182 -15.426   1.658  1.00  0.00     0.213 HD
ENDBRANCH   2  27
BRANCH   1  29
HETATM   29  C   UNL     1      41.612 -13.156   3.776  1.00  0.00     0.043 A 
HETATM   30  C   UNL     1      40.315 -13.025   4.292  1.00  0.00     0.030 A 
HETATM   31  C   UNL     1      39.642 -11.797   4.268  1.00  0.00     0.009 A 
HETATM   32  C   UNL     1      40.249 -10.665   3.718  1.00  0.00    -0.058 A 
HETATM   33  C   UNL     1      41.529 -10.787   3.176  1.00  0.00     0.009 A 
HETATM   34  C   UNL     1      42.197 -12.016   3.202  1.00  0.00     0.030 A 
BRANCH  32  35
HETATM   35  C   UNL     1      39.551  -9.330   3.743  1.00  0.00     0.034 C 
HETATM   36  C   UNL     1      38.284  -9.348   2.900  1.00  0.00     0.010 C 
ENDBRANCH  32  35
ENDBRANCH   1  29
TORSDOF 6
ENDMDL
MODEL 8
REMARK VINA RESULT:      -8.9      2.229      7.927
REMARK  6 active torsions:
REMARK  status: ('A' for Active; 'I' for Inactive)
REMARK    1  A    between atoms: C_2  and  C_3 
REMARK    2  A    between atoms: C_6  and  N_7 
REMARK    3  A    between atoms: C_8  and  C_10 
REMARK    4  A    between atoms: C_8  and  O_9 
REMARK       I    between atoms: C_10  and  N_11 
REMARK    5  A    between atoms: N_11  and  C_12 
REMARK    6  A    between atoms: C_12  and  C_13 
ROOT
HETATM    1  N   UNL     1      41.899 -15.406   3.045  1.00  0.00    -0.254 N 
HETATM    2  C   UNL     1      41.330 -15.215   4.394  1.00  0.00     0.256 C 
HETATM    3  C   UNL     1      42.271 -15.607   5.522  1.00  0.00     0.034 A 
HETATM    4  C   UNL     1      43.347 -16.434   5.235  1.00  0.00     0.048 A 
HETATM    5  N   UNL     1      43.561 -16.823   3.925  1.00  0.00    -0.308 N 
HETATM    6  C   UNL     1      42.893 -16.351   2.835  1.00  0.00     0.330 C 
HETATM    7  O   UNL     1      43.264 -16.775   1.738  1.00  0.00    -0.246 OA
HETATM    8  C   UNL     1      42.063 -15.230   6.862  1.00  0.00     0.015 A 
HETATM    9  C   UNL     1      42.937 -15.651   7.868  1.00  0.00     0.001 A 
HETATM   10  C   UNL     1      44.013 -16.477   7.554  1.00  0.00     0.002 A 
HETATM   11  C   UNL     1      44.213 -16.881   6.235  1.00  0.00     0.030 A 
HETATM   12  H   UNL     1      44.302 -17.474   3.702  1.00  0.00     0.170 HD
ENDROOT
BRANCH   2  13
HETATM   13  C   UNL     1      40.898 -13.700   4.618  1.00  0.00     0.279 C 
HETATM   14  N   UNL     1      41.916 -12.787   4.798  1.00  0.00    -0.352 N 
HETATM   15  H   UNL     1      42.858 -13.073   4.551  1.00  0.00     0.162 HD
HETATM   16  O   UNL     1      39.704 -13.401   4.719  1.00  0.00    -0.268 OA
BRANCH  14  17
HETATM   17  C   UNL     1      41.647 -11.372   4.886  1.00  0.00     0.161 C 
BRANCH  17  18
HETATM   18  C   UNL     1      42.363 -10.736   6.049  1.00  0.00    -0.038 A 
HETATM   19  C   UNL     1      43.493 -11.354   6.614  1.00  0.00     0.048 A 
HETATM   20  C   UNL     1      44.076 -10.769   7.717  1.00  0.00     0.105 A 
HETATM   21  C   UNL     1      43.576  -9.616   8.273  1.00  0.00     0.105 A 
HETATM   22  O   UNL     1      45.165 -11.237   8.383  1.00  0.00    -0.323 OA
HETATM   23  O   UNL     1      44.288  -9.214   9.360  1.00  0.00    -0.323 OA
HETATM   24  C   UNL     1      42.468  -8.983   7.756  1.00  0.00     0.040 A 
HETATM   25  C   UNL     1      45.288 -10.251   9.428  1.00  0.00     0.352 A 
HETATM   26  C   UNL     1      41.855  -9.554   6.636  1.00  0.00     0.012 A 
ENDBRANCH  17  18
ENDBRANCH  14  17
ENDBRANCH   2  13
BRANCH   2  27
HETATM   27  O   UNL     1      40.197 -16.077   4.521  1.00  0.00    -0.359 OA
HETATM   28  H   UNL     1      39.575 -15.590   5.094  1.00  0.00     0.213 HD
ENDBRANCH   2  27
BRANCH   1  29
HETATM   29  C   UNL     1      41.288 -14.760   1.907  1.00  0.00     0.043 A 
HETATM   30  C   UNL     1      41.720 -13.517   1.425  1.00  0.00     0.030 A 
HETATM   31  C   UNL     1      41.195 -12.969   0.248  1.00  0.00     0.009 A 
HETATM   32  C   UNL     1      40.214 -13.650  -0.477  1.00  0.00    -0.058 A 
HETATM   33  C   UNL     1      39.754 -14.876   0.005  1.00  0.00     0.009 A 
HETATM   34  C   UNL     1      40.282 -15.419   1.181  1.00  0.00     0.030 A 
BRANCH  32  35
HETATM   35  C   UNL     1      39.689 -13.090  -1.774  1.00  0.00     0.034 C 
HETATM   36  C   UNL     1      38.421 -13.806  -2.216  1.00  0.00     0.010 C 
ENDBRANCH  32  35
ENDBRANCH   1  29
TORSDOF 6
ENDMDL
MODEL 9
REMARK VINA RESULT:      -8.5      2.810      7.576
REMARK  6 active torsions:
REMARK  status: ('A' for Active; 'I' for Inactive)
REMARK    1  A    between atoms: C_2  and  C_3 
REMARK    2  A    between atoms: C_6  and  N_7 
REMARK    3  A    between atoms: C_8  and  C_10 
REMARK    4  A    between atoms: C_8  and  O_9 
REMARK       I    between atoms: C_10  and  N_11 
REMARK    5  A    between atoms: N_11  and  C_12 
REMARK    6  A    between atoms: C_12  and  C_13 
ROOT
HETATM    1  N   UNL     1      40.632 -14.366   2.329  1.00  0.00    -0.254 N 
HETATM    2  C   UNL     1      41.310 -14.232   3.634  1.00  0.00     0.256 C 
HETATM    3  C   UNL     1      42.266 -15.369   3.952  1.00  0.00     0.034 A 
HETATM    4  C   UNL     1      42.141 -16.561   3.252  1.00  0.00     0.048 A 
HETATM    5  N   UNL     1      41.193 -16.651   2.249  1.00  0.00    -0.308 N 
HETATM    6  C   UNL     1      40.445 -15.620   1.765  1.00  0.00     0.330 C 
HETATM    7  O   UNL     1      39.690 -15.883   0.827  1.00  0.00    -0.246 OA
HETATM    8  C   UNL     1      43.229 -15.300   4.976  1.00  0.00     0.015 A 
HETATM    9  C   UNL     1      44.058 -16.390   5.255  1.00  0.00     0.001 A 
HETATM   10  C   UNL     1      43.917 -17.573   4.535  1.00  0.00     0.002 A 
HETATM   11  C   UNL     1      42.948 -17.665   3.538  1.00  0.00     0.030 A 
HETATM   12  H   UNL     1      41.044 -17.528   1.768  1.00  0.00     0.170 HD
ENDROOT
BRANCH   2  13
HETATM   13  C   UNL     1      42.124 -12.868   3.712  1.00  0.00     0.279 C 
HETATM   14  N   UNL     1      41.657 -11.919   4.598  1.00  0.00    -0.352 N 
HETATM   15  H   UNL     1      40.988 -12.216   5.300  1.00  0.00     0.162 HD
HETATM   16  O   UNL     1      43.063 -12.656   2.938  1.00  0.00    -0.268 OA
BRANCH  14  17
HETATM   17  C   UNL     1      42.386 -10.697   4.841  1.00  0.00     0.161 C 
BRANCH  17  18
HETATM   18  C   UNL     1      43.239 -10.790   6.080  1.00  0.00    -0.038 A 
HETATM   19  C   UNL     1      42.790 -10.244   7.296  1.00  0.00     0.048 A 
HETATM   20  C   UNL     1      43.632 -10.296   8.386  1.00  0.00     0.105 A 
HETATM   21  C   UNL     1      44.886 -10.854   8.307  1.00  0.00     0.105 A 
HETATM   22  O   UNL     1      43.356  -9.813   9.627  1.00  0.00    -0.323 OA
HETATM   23  O   UNL     1      45.556 -10.791   9.487  1.00  0.00    -0.323 OA
HETATM   24  C   UNL     1      45.366 -11.392   7.134  1.00  0.00     0.040 A 
HETATM   25  C   UNL     1      44.584 -10.123  10.317  1.00  0.00     0.352 A 
HETATM   26  C   UNL     1      44.533 -11.355   6.011  1.00  0.00     0.012 A 
ENDBRANCH  17  18
ENDBRANCH  14  17
ENDBRANCH   2  13
BRANCH   2  27
HETATM   27  O   UNL     1      40.311 -14.273   4.655  1.00  0.00    -0.359 OA
HETATM   28  H   UNL     1      39.667 -13.584   4.403  1.00  0.00     0.213 HD
ENDBRANCH   2  27
BRANCH   1  29
HETATM   29  C   UNL     1      39.985 -13.221   1.732  1.00  0.00     0.043 A 
HETATM   30  C   UNL     1      40.409 -12.665   0.517  1.00  0.00     0.030 A 
HETATM   31  C   UNL     1      39.691 -11.634  -0.102  1.00  0.00     0.009 A 
HETATM   32  C   UNL     1      38.529 -11.125   0.483  1.00  0.00    -0.058 A 
HETATM   33  C   UNL     1      38.110 -11.651   1.706  1.00  0.00     0.009 A 
HETATM   34  C   UNL     1      38.830 -12.680   2.321  1.00  0.00     0.030 A 
BRANCH  32  35
HETATM   35  C   UNL     1      37.723 -10.057  -0.209  1.00  0.00     0.034 C 
HETATM   36  C   UNL     1      38.015 -10.019  -1.702  1.00  0.00     0.010 C 
ENDBRANCH  32  35
ENDBRANCH   1  29
TORSDOF 6
ENDMDL
MODEL 10
REMARK VINA RESULT:      -8.5      2.586      3.759
REMARK  6 active torsions:
REMARK  status: ('A' for Active; 'I' for Inactive)
REMARK    1  A    between atoms: C_2  and  C_3 
REMARK    2  A    between atoms: C_6  and  N_7 
REMARK    3  A    between atoms: C_8  and  C_10 
REMARK    4  A    between atoms: C_8  and  O_9 
REMARK       I    between atoms: C_10  and  N_11 
REMARK    5  A    between atoms: N_11  and  C_12 
REMARK    6  A    between atoms: C_12  and  C_13 
ROOT
HETATM    1  N   UNL     1      39.317 -11.711   2.546  1.00  0.00    -0.254 N 
HETATM    2  C   UNL     1      39.747 -13.034   2.050  1.00  0.00     0.256 C 
HETATM    3  C   UNL     1      39.501 -13.246   0.565  1.00  0.00     0.034 A 
HETATM    4  C   UNL     1      38.594 -12.422  -0.085  1.00  0.00     0.048 A 
HETATM    5  N   UNL     1      37.991 -11.400   0.626  1.00  0.00    -0.308 N 
HETATM    6  C   UNL     1      38.309 -11.015   1.893  1.00  0.00     0.330 C 
HETATM    7  O   UNL     1      37.700 -10.042   2.341  1.00  0.00    -0.246 OA
HETATM    8  C   UNL     1      40.096 -14.287  -0.172  1.00  0.00     0.015 A 
HETATM    9  C   UNL     1      39.806 -14.463  -1.527  1.00  0.00     0.001 A 
HETATM   10  C   UNL     1      38.895 -13.620  -2.158  1.00  0.00     0.002 A 
HETATM   11  C   UNL     1      38.277 -12.603  -1.433  1.00  0.00     0.030 A 
HETATM   12  H   UNL     1      37.282 -10.826   0.189  1.00  0.00     0.170 HD
ENDROOT
BRANCH   2  13
HETATM   13  C   UNL     1      41.294 -13.270   2.331  1.00  0.00     0.279 C 
HETATM   14  N   UNL     1      41.614 -14.253   3.244  1.00  0.00    -0.352 N 
HETATM   15  H   UNL     1      40.888 -14.914   3.502  1.00  0.00     0.162 HD
HETATM   16  O   UNL     1      42.141 -12.531   1.820  1.00  0.00    -0.268 OA
BRANCH  14  17
HETATM   17  C   UNL     1      42.985 -14.636   3.485  1.00  0.00     0.161 C 
BRANCH  17  18
HETATM   18  C   UNL     1      43.166 -16.132   3.439  1.00  0.00    -0.038 A 
HETATM   19  C   UNL     1      43.511 -16.844   4.601  1.00  0.00     0.048 A 
HETATM   20  C   UNL     1      43.729 -18.200   4.496  1.00  0.00     0.105 A 
HETATM   21  C   UNL     1      43.626 -18.860   3.295  1.00  0.00     0.105 A 
HETATM   22  O   UNL     1      44.073 -19.031   5.517  1.00  0.00    -0.323 OA
HETATM   23  O   UNL     1      43.893 -20.187   3.407  1.00  0.00    -0.323 OA
HETATM   24  C   UNL     1      43.297 -18.199   2.132  1.00  0.00     0.040 A 
HETATM   25  C   UNL     1      44.184 -20.287   4.817  1.00  0.00     0.352 A 
HETATM   26  C   UNL     1      43.070 -16.821   2.208  1.00  0.00     0.012 A 
ENDBRANCH  17  18
ENDBRANCH  14  17
ENDBRANCH   2  13
BRANCH   2  27
HETATM   27  O   UNL     1      38.965 -14.029   2.714  1.00  0.00    -0.359 OA
HETATM   28  H   UNL     1      38.954 -14.789   2.102  1.00  0.00     0.213 HD
ENDBRANCH   2  27
BRANCH   1  29
HETATM   29  C   UNL     1      39.798 -11.228   3.820  1.00  0.00     0.043 A 
HETATM   30  C   UNL     1      40.707 -10.167   3.928  1.00  0.00     0.030 A 
HETATM   31  C   UNL     1      41.063  -9.637   5.174  1.00  0.00     0.009 A 
HETATM   32  C   UNL     1      40.521 -10.161   6.351  1.00  0.00    -0.058 A 
HETATM   33  C   UNL     1      39.635 -11.236   6.260  1.00  0.00     0.009 A 
HETATM   34  C   UNL     1      39.283 -11.762   5.013  1.00  0.00     0.030 A 
BRANCH  32  35
HETATM   35  C   UNL     1      40.857  -9.556   7.689  1.00  0.00     0.034 C 
HETATM   36  C   UNL     1      39.643  -9.523   8.606  1.00  0.00     0.010 C 
ENDBRANCH  32  35
ENDBRANCH   1  29
TORSDOF 6
ENDMDL
