MODEL 1
REMARK VINA RESULT:      -9.0      0.000      0.000
REMARK  6 active torsions:
REMARK  status: ('A' for Active; 'I' for Inactive)
REMARK    1  A    between atoms: C_3  and  O_4 
REMARK    2  A    between atoms: O_4  and  C_5 
REMARK    3  A    between atoms: C_5  and  C_6 
REMARK       I    between atoms: C_6  and  N_7 
REMARK    4  A    between atoms: N_7  and  C_8 
REMARK    5  A    between atoms: C_15  and  C_16 
REMARK       I    between atoms: C_16  and  N_17 
REMARK    6  A    between atoms: C_23  and  C_24 
ROOT
HETATM    1  C   UNL     1      41.729 -14.620   2.194  1.00  0.00     0.246 C 
HETATM    2  N   UNL     1      41.774 -13.857   1.034  1.00  0.00    -0.325 N 
HETATM    3  O   UNL     1      40.723 -15.058   2.738  1.00  0.00    -0.271 OA
HETATM    4  H   UNL     1      42.695 -13.653   0.667  1.00  0.00     0.169 HD
ENDROOT
BRANCH   2   5
HETATM    5  C   UNL     1      40.683 -13.325   0.312  1.00  0.00     0.035 A 
HETATM    6  C   UNL     1      40.075 -13.974  -0.772  1.00  0.00     0.046 A 
HETATM    7  C   UNL     1      38.966 -13.379  -1.413  1.00  0.00     0.030 A 
HETATM    8  C   UNL     1      38.499 -12.157  -0.946  1.00  0.00     0.063 A 
HETATM    9  C   UNL     1      38.109 -13.710  -2.505  1.00  0.00     0.156 A 
HETATM   10  N   UNL     1      37.433 -11.847  -1.745  1.00  0.00    -0.277 N 
HETATM   11  C   UNL     1      39.079 -11.479   0.126  1.00  0.00     0.034 A 
HETATM   12  H   UNL     1      36.843 -11.025  -1.689  1.00  0.00     0.189 HD
HETATM   13  N   UNL     1      37.170 -12.755  -2.698  1.00  0.00    -0.168 NA
HETATM   14  C   UNL     1      40.183 -12.087   0.741  1.00  0.00     0.032 A 
BRANCH   9  15
HETATM   15  C   UNL     1      38.167 -14.903  -3.363  1.00  0.00     0.270 C 
HETATM   16  N   UNL     1      38.336 -16.075  -2.678  1.00  0.00    -0.365 N 
HETATM   17  H   UNL     1      38.402 -16.042  -1.667  1.00  0.00     0.159 HD
HETATM   18  H   UNL     1      38.375 -16.946  -3.182  1.00  0.00     0.159 HD
HETATM   19  O   UNL     1      38.073 -14.893  -4.586  1.00  0.00    -0.266 OA
ENDBRANCH   9  15
ENDBRANCH   2   5
BRANCH   1  20
HETATM   20  C   UNL     1      43.111 -14.840   2.809  1.00  0.00     0.278 C 
BRANCH  20  21
HETATM   21  O   UNL     1      43.027 -14.820   4.230  1.00  0.00    -0.342 OA
BRANCH  21  22
HETATM   22  C   UNL     1      43.257 -16.034   4.831  1.00  0.00     0.075 A 
HETATM   23  C   UNL     1      43.070 -16.102   6.220  1.00  0.00    -0.029 A 
HETATM   24  C   UNL     1      42.666 -14.892   7.014  1.00  0.00     0.051 C 
HETATM   25  C   UNL     1      43.251 -17.330   6.873  1.00  0.00     0.010 A 
HETATM   26  C   UNL     1      43.621 -18.471   6.158  1.00  0.00     0.008 A 
HETATM   27  C   UNL     1      43.806 -18.415   4.771  1.00  0.00    -0.052 A 
HETATM   28  C   UNL     1      43.615 -17.185   4.118  1.00  0.00     0.044 A 
BRANCH  27  29
HETATM   29  C   UNL     1      44.210 -19.666   4.009  1.00  0.00     0.010 C 
HETATM   30  C   UNL     1      43.918 -20.943   4.803  1.00  0.00     0.015 C 
HETATM   31  C   UNL     1      43.538 -19.713   2.635  1.00  0.00     0.015 C 
ENDBRANCH  27  29
ENDBRANCH  21  22
ENDBRANCH  20  21
ENDBRANCH   1  20
TORSDOF 6
ENDMDL
MODEL 2
REMARK VINA RESULT:      -8.9      5.359      8.240
REMARK  6 active torsions:
REMARK  status: ('A' for Active; 'I' for Inactive)
REMARK    1  A    between atoms: C_3  and  O_4 
REMARK    2  A    between atoms: O_4  and  C_5 
REMARK    3  A    between atoms: C_5  and  C_6 
REMARK       I    between atoms: C_6  and  N_7 
REMARK    4  A    between atoms: N_7  and  C_8 
REMARK    5  A    between atoms: C_15  and  C_16 
REMARK       I    between atoms: C_16  and  N_17 
REMARK    6  A    between atoms: C_23  and  C_24 
ROOT
HETATM    1  C   UNL     1      43.517 -15.512   6.987  1.00  0.00     0.246 C 
HETATM    2  N   UNL     1      43.879 -14.344   6.329  1.00  0.00    -0.325 N 
HETATM    3  O   UNL     1      42.594 -15.644   7.782  1.00  0.00    -0.271 OA
HETATM    4  H   UNL     1      44.610 -14.429   5.634  1.00  0.00     0.169 HD
ENDROOT
BRANCH   2   5
HETATM    5  C   UNL     1      43.352 -13.048   6.524  1.00  0.00     0.035 A 
HETATM    6  C   UNL     1      44.043 -12.014   7.172  1.00  0.00     0.046 A 
HETATM    7  C   UNL     1      43.447 -10.740   7.290  1.00  0.00     0.030 A 
HETATM    8  C   UNL     1      42.181 -10.539   6.753  1.00  0.00     0.063 A 
HETATM    9  C   UNL     1      43.812  -9.481   7.857  1.00  0.00     0.156 A 
HETATM   10  N   UNL     1      41.881  -9.230   7.012  1.00  0.00    -0.277 N 
HETATM   11  C   UNL     1      41.461 -11.543   6.106  1.00  0.00     0.034 A 
HETATM   12  H   UNL     1      41.035  -8.733   6.757  1.00  0.00     0.189 HD
HETATM   13  N   UNL     1      42.836  -8.561   7.678  1.00  0.00    -0.168 NA
HETATM   14  C   UNL     1      42.071 -12.801   6.008  1.00  0.00     0.032 A 
BRANCH   9  15
HETATM   15  C   UNL     1      45.057  -9.140   8.561  1.00  0.00     0.270 C 
HETATM   16  N   UNL     1      45.177  -9.718   9.795  1.00  0.00    -0.365 N 
HETATM   17  H   UNL     1      44.432 -10.322  10.123  1.00  0.00     0.159 HD
HETATM   18  H   UNL     1      46.004  -9.551  10.345  1.00  0.00     0.159 HD
HETATM   19  O   UNL     1      45.936  -8.409   8.117  1.00  0.00    -0.266 OA
ENDBRANCH   9  15
ENDBRANCH   2   5
BRANCH   1  20
HETATM   20  C   UNL     1      44.447 -16.683   6.666  1.00  0.00     0.278 C 
BRANCH  20  21
HETATM   21  O   UNL     1      43.688 -17.828   6.294  1.00  0.00    -0.342 OA
BRANCH  21  22
HETATM   22  C   UNL     1      43.586 -18.028   4.938  1.00  0.00     0.075 A 
HETATM   23  C   UNL     1      43.861 -19.318   4.463  1.00  0.00    -0.029 A 
HETATM   24  C   UNL     1      44.280 -20.421   5.394  1.00  0.00     0.051 C 
HETATM   25  C   UNL     1      43.728 -19.583   3.091  1.00  0.00     0.010 A 
HETATM   26  C   UNL     1      43.336 -18.577   2.206  1.00  0.00     0.008 A 
HETATM   27  C   UNL     1      43.054 -17.287   2.670  1.00  0.00    -0.052 A 
HETATM   28  C   UNL     1      43.179 -17.027   4.046  1.00  0.00     0.044 A 
BRANCH  27  29
HETATM   29  C   UNL     1      42.630 -16.205   1.692  1.00  0.00     0.010 C 
HETATM   30  C   UNL     1      41.146 -15.853   1.831  1.00  0.00     0.015 C 
HETATM   31  C   UNL     1      43.503 -14.956   1.842  1.00  0.00     0.015 C 
ENDBRANCH  27  29
ENDBRANCH  21  22
ENDBRANCH  20  21
ENDBRANCH   1  20
TORSDOF 6
ENDMDL
MODEL 3
REMARK VINA RESULT:      -8.8      1.921      2.899
REMARK  6 active torsions:
REMARK  status: ('A' for Active; 'I' for Inactive)
REMARK    1  A    between atoms: C_3  and  O_4 
REMARK    2  A    between atoms: O_4  and  C_5 
REMARK    3  A    between atoms: C_5  and  C_6 
REMARK       I    between atoms: C_6  and  N_7 
REMARK    4  A    between atoms: N_7  and  C_8 
REMARK    5  A    between atoms: C_15  and  C_16 
REMARK       I    between atoms: C_16  and  N_17 
REMARK    6  A    between atoms: C_23  and  C_24 
ROOT
HETATM    1  C   UNL     1      40.693 -15.154   0.786  1.00  0.00     0.246 C 
HETATM    2  N   UNL     1      40.735 -14.388  -0.372  1.00  0.00    -0.325 N 
HETATM    3  O   UNL     1      39.696 -15.657   1.290  1.00  0.00    -0.271 OA
HETATM    4  H   UNL     1      41.655 -14.125  -0.703  1.00  0.00     0.169 HD
ENDROOT
BRANCH   2   5
HETATM    5  C   UNL     1      39.642 -13.925  -1.137  1.00  0.00     0.035 A 
HETATM    6  C   UNL     1      39.006 -12.694  -0.922  1.00  0.00     0.046 A 
HETATM    7  C   UNL     1      37.940 -12.300  -1.761  1.00  0.00     0.030 A 
HETATM    8  C   UNL     1      37.550 -13.147  -2.791  1.00  0.00     0.063 A 
HETATM    9  C   UNL     1      37.071 -11.172  -1.862  1.00  0.00     0.156 A 
HETATM   10  N   UNL     1      36.523 -12.501  -3.422  1.00  0.00    -0.277 N 
HETATM   11  C   UNL     1      38.156 -14.380  -3.034  1.00  0.00     0.034 A 
HETATM   12  H   UNL     1      35.997 -12.824  -4.226  1.00  0.00     0.189 HD
HETATM   13  N   UNL     1      36.203 -11.311  -2.889  1.00  0.00    -0.168 NA
HETATM   14  C   UNL     1      39.206 -14.751  -2.183  1.00  0.00     0.032 A 
BRANCH   9  15
HETATM   15  C   UNL     1      37.050  -9.976  -1.005  1.00  0.00     0.270 C 
HETATM   16  N   UNL     1      36.297 -10.115   0.128  1.00  0.00    -0.365 N 
HETATM   17  H   UNL     1      35.830 -10.999   0.296  1.00  0.00     0.159 HD
HETATM   18  H   UNL     1      36.234  -9.351   0.781  1.00  0.00     0.159 HD
HETATM   19  O   UNL     1      37.641  -8.929  -1.248  1.00  0.00    -0.266 OA
ENDBRANCH   9  15
ENDBRANCH   2   5
BRANCH   1  20
HETATM   20  C   UNL     1      42.061 -15.287   1.455  1.00  0.00     0.278 C 
BRANCH  20  21
HETATM   21  O   UNL     1      41.911 -15.389   2.867  1.00  0.00    -0.342 OA
BRANCH  21  22
HETATM   22  C   UNL     1      42.714 -16.334   3.458  1.00  0.00     0.075 A 
HETATM   23  C   UNL     1      43.286 -15.999   4.695  1.00  0.00    -0.029 A 
HETATM   24  C   UNL     1      43.054 -14.656   5.325  1.00  0.00     0.051 C 
HETATM   25  C   UNL     1      44.078 -16.948   5.358  1.00  0.00     0.010 A 
HETATM   26  C   UNL     1      44.306 -18.206   4.797  1.00  0.00     0.008 A 
HETATM   27  C   UNL     1      43.735 -18.552   3.566  1.00  0.00    -0.052 A 
HETATM   28  C   UNL     1      42.935 -17.603   2.908  1.00  0.00     0.044 A 
BRANCH  27  29
HETATM   29  C   UNL     1      43.995 -19.925   2.969  1.00  0.00     0.010 C 
HETATM   30  C   UNL     1      43.974 -21.027   4.032  1.00  0.00     0.015 C 
HETATM   31  C   UNL     1      43.001 -20.232   1.847  1.00  0.00     0.015 C 
ENDBRANCH  27  29
ENDBRANCH  21  22
ENDBRANCH  20  21
ENDBRANCH   1  20
TORSDOF 6
ENDMDL
MODEL 4
REMARK VINA RESULT:      -8.7      4.977      8.732
REMARK  6 active torsions:
REMARK  status: ('A' for Active; 'I' for Inactive)
REMARK    1  A    between atoms: C_3  and  O_4 
REMARK    2  A    between atoms: O_4  and  C_5 
REMARK    3  A    between atoms: C_5  and  C_6 
REMARK       I    between atoms: C_6  and  N_7 
REMARK    4  A    between atoms: N_7  and  C_8 
REMARK    5  A    between atoms: C_15  and  C_16 
REMARK       I    between atoms: C_16  and  N_17 
REMARK    6  A    between atoms: C_23  and  C_24 
ROOT
HETATM    1  C   UNL     1      42.449 -14.277   6.813  1.00  0.00     0.246 C 
HETATM    2  N   UNL     1      42.483 -12.932   6.467  1.00  0.00    -0.325 N 
HETATM    3  O   UNL     1      43.242 -14.862   7.540  1.00  0.00    -0.271 OA
HETATM    4  H   UNL     1      41.697 -12.587   5.930  1.00  0.00     0.169 HD
ENDROOT
BRANCH   2   5
HETATM    5  C   UNL     1      43.491 -11.991   6.772  1.00  0.00     0.035 A 
HETATM    6  C   UNL     1      43.245 -10.760   7.396  1.00  0.00     0.046 A 
HETATM    7  C   UNL     1      44.323  -9.896   7.692  1.00  0.00     0.030 A 
HETATM    8  C   UNL     1      45.611 -10.295   7.359  1.00  0.00     0.063 A 
HETATM    9  C   UNL     1      44.477  -8.611   8.294  1.00  0.00     0.156 A 
HETATM   10  N   UNL     1      46.424  -9.275   7.770  1.00  0.00    -0.277 N 
HETATM   11  C   UNL     1      45.896 -11.510   6.734  1.00  0.00     0.034 A 
HETATM   12  H   UNL     1      47.433  -9.225   7.692  1.00  0.00     0.189 HD
HETATM   13  N   UNL     1      45.778  -8.241   8.334  1.00  0.00    -0.168 NA
HETATM   14  C   UNL     1      44.808 -12.345   6.445  1.00  0.00     0.032 A 
BRANCH   9  15
HETATM   15  C   UNL     1      43.422  -7.736   8.825  1.00  0.00     0.270 C 
HETATM   16  N   UNL     1      43.006  -8.064  10.086  1.00  0.00    -0.365 N 
HETATM   17  H   UNL     1      43.440  -8.853  10.551  1.00  0.00     0.159 HD
HETATM   18  H   UNL     1      42.293  -7.512  10.535  1.00  0.00     0.159 HD
HETATM   19  O   UNL     1      42.932  -6.785   8.225  1.00  0.00    -0.266 OA
ENDBRANCH   9  15
ENDBRANCH   2   5
BRANCH   1  20
HETATM   20  C   UNL     1      41.306 -15.032   6.133  1.00  0.00     0.278 C 
BRANCH  20  21
HETATM   21  O   UNL     1      41.082 -14.515   4.826  1.00  0.00    -0.342 OA
BRANCH  21  22
HETATM   22  C   UNL     1      41.789 -15.151   3.833  1.00  0.00     0.075 A 
HETATM   23  C   UNL     1      41.867 -14.502   2.592  1.00  0.00    -0.029 A 
HETATM   24  C   UNL     1      41.182 -13.186   2.354  1.00  0.00     0.051 C 
HETATM   25  C   UNL     1      42.614 -15.091   1.561  1.00  0.00     0.010 A 
HETATM   26  C   UNL     1      43.264 -16.311   1.758  1.00  0.00     0.008 A 
HETATM   27  C   UNL     1      43.196 -16.964   2.994  1.00  0.00    -0.052 A 
HETATM   28  C   UNL     1      42.455 -16.367   4.028  1.00  0.00     0.044 A 
BRANCH  27  29
HETATM   29  C   UNL     1      43.909 -18.292   3.190  1.00  0.00     0.010 C 
HETATM   30  C   UNL     1      43.935 -18.719   4.660  1.00  0.00     0.015 C 
HETATM   31  C   UNL     1      43.287 -19.383   2.316  1.00  0.00     0.015 C 
ENDBRANCH  27  29
ENDBRANCH  21  22
ENDBRANCH  20  21
ENDBRANCH   1  20
TORSDOF 6
ENDMDL
MODEL 5
REMARK VINA RESULT:      -8.7      5.155      9.184
REMARK  6 active torsions:
REMARK  status: ('A' for Active; 'I' for Inactive)
REMARK    1  A    between atoms: C_3  and  O_4 
REMARK    2  A    between atoms: O_4  and  C_5 
REMARK    3  A    between atoms: C_5  and  C_6 
REMARK       I    between atoms: C_6  and  N_7 
REMARK    4  A    between atoms: N_7  and  C_8 
REMARK    5  A    between atoms: C_15  and  C_16 
REMARK       I    between atoms: C_16  and  N_17 
REMARK    6  A    between atoms: C_23  and  C_24 
ROOT
HETATM    1  C   UNL     1      42.843 -14.261   6.585  1.00  0.00     0.246 C 
HETATM    2  N   UNL     1      43.187 -12.966   6.219  1.00  0.00    -0.325 N 
HETATM    3  O   UNL     1      43.046 -14.789   7.672  1.00  0.00    -0.271 OA
HETATM    4  H   UNL     1      42.864 -12.655   5.312  1.00  0.00     0.169 HD
ENDROOT
BRANCH   2   5
HETATM    5  C   UNL     1      43.946 -12.035   6.963  1.00  0.00     0.035 A 
HETATM    6  C   UNL     1      43.581 -11.572   8.235  1.00  0.00     0.046 A 
HETATM    7  C   UNL     1      44.420 -10.665   8.918  1.00  0.00     0.030 A 
HETATM    8  C   UNL     1      45.600 -10.256   8.310  1.00  0.00     0.063 A 
HETATM    9  C   UNL     1      44.399  -9.989  10.176  1.00  0.00     0.156 A 
HETATM   10  N   UNL     1      46.191  -9.404   9.201  1.00  0.00    -0.277 N 
HETATM   11  C   UNL     1      45.995 -10.691   7.044  1.00  0.00     0.034 A 
HETATM   12  H   UNL     1      47.074  -8.917   9.092  1.00  0.00     0.189 HD
HETATM   13  N   UNL     1      45.497  -9.215  10.335  1.00  0.00    -0.168 NA
HETATM   14  C   UNL     1      45.141 -11.585   6.384  1.00  0.00     0.032 A 
BRANCH   9  15
HETATM   15  C   UNL     1      43.363 -10.062  11.217  1.00  0.00     0.270 C 
HETATM   16  N   UNL     1      43.381 -11.223  11.941  1.00  0.00    -0.365 N 
HETATM   17  H   UNL     1      44.082 -11.921  11.723  1.00  0.00     0.159 HD
HETATM   18  H   UNL     1      42.715 -11.356  12.685  1.00  0.00     0.159 HD
HETATM   19  O   UNL     1      42.540  -9.184  11.450  1.00  0.00    -0.266 OA
ENDBRANCH   9  15
ENDBRANCH   2   5
BRANCH   1  20
HETATM   20  C   UNL     1      42.197 -15.045   5.442  1.00  0.00     0.278 C 
BRANCH  20  21
HETATM   21  O   UNL     1      43.088 -15.128   4.336  1.00  0.00    -0.342 OA
BRANCH  21  22
HETATM   22  C   UNL     1      43.294 -16.403   3.865  1.00  0.00     0.075 A 
HETATM   23  C   UNL     1      43.199 -16.591   2.478  1.00  0.00    -0.029 A 
HETATM   24  C   UNL     1      42.857 -15.455   1.556  1.00  0.00     0.051 C 
HETATM   25  C   UNL     1      43.443 -17.866   1.945  1.00  0.00     0.010 A 
HETATM   26  C   UNL     1      43.768 -18.938   2.779  1.00  0.00     0.008 A 
HETATM   27  C   UNL     1      43.870 -18.759   4.163  1.00  0.00    -0.052 A 
HETATM   28  C   UNL     1      43.634 -17.479   4.694  1.00  0.00     0.044 A 
BRANCH  27  29
HETATM   29  C   UNL     1      44.223 -19.937   5.055  1.00  0.00     0.010 C 
HETATM   30  C   UNL     1      43.492 -19.879   6.400  1.00  0.00     0.015 C 
HETATM   31  C   UNL     1      43.950 -21.265   4.345  1.00  0.00     0.015 C 
ENDBRANCH  27  29
ENDBRANCH  21  22
ENDBRANCH  20  21
ENDBRANCH   1  20
TORSDOF 6
ENDMDL
MODEL 6
REMARK VINA RESULT:      -8.6      1.362      2.253
REMARK  6 active torsions:
REMARK  status: ('A' for Active; 'I' for Inactive)
REMARK    1  A    between atoms: C_3  and  O_4 
REMARK    2  A    between atoms: O_4  and  C_5 
REMARK    3  A    between atoms: C_5  and  C_6 
REMARK       I    between atoms: C_6  and  N_7 
REMARK    4  A    between atoms: N_7  and  C_8 
REMARK    5  A    between atoms: C_15  and  C_16 
REMARK       I    between atoms: C_16  and  N_17 
REMARK    6  A    between atoms: C_23  and  C_24 
ROOT
HETATM    1  C   UNL     1      40.688 -14.764   3.354  1.00  0.00     0.246 C 
HETATM    2  N   UNL     1      40.791 -13.534   2.716  1.00  0.00    -0.325 N 
HETATM    3  O   UNL     1      39.886 -15.654   3.095  1.00  0.00    -0.271 OA
HETATM    4  H   UNL     1      41.570 -12.950   2.993  1.00  0.00     0.169 HD
ENDROOT
BRANCH   2   5
HETATM    5  C   UNL     1      39.929 -13.001   1.732  1.00  0.00     0.035 A 
HETATM    6  C   UNL     1      39.838 -13.498   0.425  1.00  0.00     0.046 A 
HETATM    7  C   UNL     1      38.922 -12.921  -0.482  1.00  0.00     0.030 A 
HETATM    8  C   UNL     1      38.123 -11.870  -0.049  1.00  0.00     0.063 A 
HETATM    9  C   UNL     1      38.547 -13.134  -1.843  1.00  0.00     0.156 A 
HETATM   10  N   UNL     1      37.349 -11.536  -1.126  1.00  0.00    -0.277 N 
HETATM   11  C   UNL     1      38.188 -11.345   1.242  1.00  0.00     0.034 A 
HETATM   12  H   UNL     1      36.642 -10.810  -1.172  1.00  0.00     0.189 HD
HETATM   13  N   UNL     1      37.577 -12.272  -2.226  1.00  0.00    -0.168 NA
HETATM   14  C   UNL     1      39.111 -11.931   2.120  1.00  0.00     0.032 A 
BRANCH   9  15
HETATM   15  C   UNL     1      39.090 -14.130  -2.779  1.00  0.00     0.270 C 
HETATM   16  N   UNL     1      38.317 -15.251  -2.911  1.00  0.00    -0.365 N 
HETATM   17  H   UNL     1      37.455 -15.312  -2.382  1.00  0.00     0.159 HD
HETATM   18  H   UNL     1      38.605 -15.983  -3.540  1.00  0.00     0.159 HD
HETATM   19  O   UNL     1      40.137 -14.006  -3.405  1.00  0.00    -0.266 OA
ENDBRANCH   9  15
ENDBRANCH   2   5
BRANCH   1  20
HETATM   20  C   UNL     1      41.677 -14.913   4.511  1.00  0.00     0.278 C 
BRANCH  20  21
HETATM   21  O   UNL     1      42.988 -15.148   4.012  1.00  0.00    -0.342 OA
BRANCH  21  22
HETATM   22  C   UNL     1      43.274 -16.469   3.762  1.00  0.00     0.075 A 
HETATM   23  C   UNL     1      43.376 -16.855   2.417  1.00  0.00    -0.029 A 
HETATM   24  C   UNL     1      43.150 -15.873   1.303  1.00  0.00     0.051 C 
HETATM   25  C   UNL     1      43.709 -18.184   2.112  1.00  0.00     0.010 A 
HETATM   26  C   UNL     1      43.929 -19.115   3.129  1.00  0.00     0.008 A 
HETATM   27  C   UNL     1      43.836 -18.739   4.474  1.00  0.00    -0.052 A 
HETATM   28  C   UNL     1      43.510 -17.406   4.777  1.00  0.00     0.044 A 
BRANCH  27  29
HETATM   29  C   UNL     1      44.077 -19.766   5.567  1.00  0.00     0.010 C 
HETATM   30  C   UNL     1      43.304 -19.436   6.847  1.00  0.00     0.015 C 
HETATM   31  C   UNL     1      43.743 -21.178   5.078  1.00  0.00     0.015 C 
ENDBRANCH  27  29
ENDBRANCH  21  22
ENDBRANCH  20  21
ENDBRANCH   1  20
TORSDOF 6
ENDMDL
MODEL 7
REMARK VINA RESULT:      -8.6      5.146      8.790
REMARK  6 active torsions:
REMARK  status: ('A' for Active; 'I' for Inactive)
REMARK    1  A    between atoms: C_3  and  O_4 
REMARK    2  A    between atoms: O_4  and  C_5 
REMARK    3  A    between atoms: C_5  and  C_6 
REMARK       I    between atoms: C_6  and  N_7 
REMARK    4  A    between atoms: N_7  and  C_8 
REMARK    5  A    between atoms: C_15  and  C_16 
REMARK       I    between atoms: C_16  and  N_17 
REMARK    6  A    between atoms: C_23  and  C_24 
ROOT
HETATM    1  C   UNL     1      42.306 -13.361   5.641  1.00  0.00     0.246 C 
HETATM    2  N   UNL     1      43.310 -14.312   5.511  1.00  0.00    -0.325 N 
HETATM    3  O   UNL     1      41.211 -13.379   5.092  1.00  0.00    -0.271 OA
HETATM    4  H   UNL     1      44.120 -14.194   6.107  1.00  0.00     0.169 HD
ENDROOT
BRANCH   2   5
HETATM    5  C   UNL     1      43.336 -15.422   4.638  1.00  0.00     0.035 A 
HETATM    6  C   UNL     1      43.536 -16.743   5.062  1.00  0.00     0.046 A 
HETATM    7  C   UNL     1      43.512 -17.793   4.118  1.00  0.00     0.030 A 
HETATM    8  C   UNL     1      43.284 -17.488   2.782  1.00  0.00     0.063 A 
HETATM    9  C   UNL     1      43.668 -19.212   4.152  1.00  0.00     0.156 A 
HETATM   10  N   UNL     1      43.309 -18.689   2.127  1.00  0.00    -0.277 N 
HETATM   11  C   UNL     1      43.086 -16.187   2.321  1.00  0.00     0.034 A 
HETATM   12  H   UNL     1      43.174 -18.849   1.135  1.00  0.00     0.189 HD
HETATM   13  N   UNL     1      43.541 -19.749   2.917  1.00  0.00    -0.168 NA
HETATM   14  C   UNL     1      43.121 -15.162   3.276  1.00  0.00     0.032 A 
BRANCH   9  15
HETATM   15  C   UNL     1      43.935 -20.058   5.325  1.00  0.00     0.270 C 
HETATM   16  N   UNL     1      44.757 -21.122   5.070  1.00  0.00    -0.365 N 
HETATM   17  H   UNL     1      45.116 -21.244   4.131  1.00  0.00     0.159 HD
HETATM   18  H   UNL     1      45.005 -21.750   5.818  1.00  0.00     0.159 HD
HETATM   19  O   UNL     1      43.483 -19.862   6.448  1.00  0.00    -0.266 OA
ENDBRANCH   9  15
ENDBRANCH   2   5
BRANCH   1  20
HETATM   20  C   UNL     1      42.715 -12.189   6.534  1.00  0.00     0.278 C 
BRANCH  20  21
HETATM   21  O   UNL     1      43.910 -12.502   7.240  1.00  0.00    -0.342 OA
BRANCH  21  22
HETATM   22  C   UNL     1      44.484 -11.434   7.889  1.00  0.00     0.075 A 
HETATM   23  C   UNL     1      45.576 -10.819   7.259  1.00  0.00    -0.029 A 
HETATM   24  C   UNL     1      46.111 -11.327   5.950  1.00  0.00     0.051 C 
HETATM   25  C   UNL     1      46.168  -9.699   7.861  1.00  0.00     0.010 A 
HETATM   26  C   UNL     1      45.687  -9.204   9.075  1.00  0.00     0.008 A 
HETATM   27  C   UNL     1      44.595  -9.807   9.709  1.00  0.00    -0.052 A 
HETATM   28  C   UNL     1      43.998 -10.924   9.099  1.00  0.00     0.044 A 
BRANCH  27  29
HETATM   29  C   UNL     1      44.086  -9.256  11.030  1.00  0.00     0.010 C 
HETATM   30  C   UNL     1      43.218  -8.009  10.837  1.00  0.00     0.015 C 
HETATM   31  C   UNL     1      43.331 -10.329  11.819  1.00  0.00     0.015 C 
ENDBRANCH  27  29
ENDBRANCH  21  22
ENDBRANCH  20  21
ENDBRANCH   1  20
TORSDOF 6
ENDMDL
MODEL 8
REMARK VINA RESULT:      -8.5      2.731      3.628
REMARK  6 active torsions:
REMARK  status: ('A' for Active; 'I' for Inactive)
REMARK    1  A    between atoms: C_3  and  O_4 
REMARK    2  A    between atoms: O_4  and  C_5 
REMARK    3  A    between atoms: C_5  and  C_6 
REMARK       I    between atoms: C_6  and  N_7 
REMARK    4  A    between atoms: N_7  and  C_8 
REMARK    5  A    between atoms: C_15  and  C_16 
REMARK       I    between atoms: C_16  and  N_17 
REMARK    6  A    between atoms: C_23  and  C_24 
ROOT
HETATM    1  C   UNL     1      40.303 -14.445   1.561  1.00  0.00     0.246 C 
HETATM    2  N   UNL     1      40.842 -14.364   0.284  1.00  0.00    -0.325 N 
HETATM    3  O   UNL     1      39.468 -13.692   2.048  1.00  0.00    -0.271 OA
HETATM    4  H   UNL     1      41.453 -15.122   0.007  1.00  0.00     0.169 HD
ENDROOT
BRANCH   2   5
HETATM    5  C   UNL     1      40.643 -13.342  -0.671  1.00  0.00     0.035 A 
HETATM    6  C   UNL     1      41.209 -12.064  -0.574  1.00  0.00     0.046 A 
HETATM    7  C   UNL     1      40.981 -11.116  -1.596  1.00  0.00     0.030 A 
HETATM    8  C   UNL     1      40.198 -11.481  -2.684  1.00  0.00     0.063 A 
HETATM    9  C   UNL     1      41.365  -9.765  -1.852  1.00  0.00     0.156 A 
HETATM   10  N   UNL     1      40.167 -10.379  -3.494  1.00  0.00    -0.277 N 
HETATM   11  C   UNL     1      39.614 -12.741  -2.815  1.00  0.00     0.034 A 
HETATM   12  H   UNL     1      39.691 -10.285  -4.384  1.00  0.00     0.189 HD
HETATM   13  N   UNL     1      40.855  -9.325  -3.025  1.00  0.00    -0.168 NA
HETATM   14  C   UNL     1      39.850 -13.660  -1.783  1.00  0.00     0.032 A 
BRANCH   9  15
HETATM   15  C   UNL     1      42.197  -8.893  -1.010  1.00  0.00     0.270 C 
HETATM   16  N   UNL     1      41.612  -8.536   0.174  1.00  0.00    -0.365 N 
HETATM   17  H   UNL     1      40.685  -8.889   0.383  1.00  0.00     0.159 HD
HETATM   18  H   UNL     1      42.113  -7.949   0.820  1.00  0.00     0.159 HD
HETATM   19  O   UNL     1      43.320  -8.499  -1.304  1.00  0.00    -0.266 OA
ENDBRANCH   9  15
ENDBRANCH   2   5
BRANCH   1  20
HETATM   20  C   UNL     1      40.905 -15.583   2.385  1.00  0.00     0.278 C 
BRANCH  20  21
HETATM   21  O   UNL     1      42.261 -15.294   2.708  1.00  0.00    -0.342 OA
BRANCH  21  22
HETATM   22  C   UNL     1      42.920 -16.308   3.360  1.00  0.00     0.075 A 
HETATM   23  C   UNL     1      43.348 -16.050   4.671  1.00  0.00    -0.029 A 
HETATM   24  C   UNL     1      43.122 -14.712   5.317  1.00  0.00     0.051 C 
HETATM   25  C   UNL     1      43.987 -17.069   5.393  1.00  0.00     0.010 A 
HETATM   26  C   UNL     1      44.205 -18.323   4.817  1.00  0.00     0.008 A 
HETATM   27  C   UNL     1      43.776 -18.593   3.512  1.00  0.00    -0.052 A 
HETATM   28  C   UNL     1      43.129 -17.573   2.794  1.00  0.00     0.044 A 
BRANCH  27  29
HETATM   29  C   UNL     1      44.023 -19.962   2.902  1.00  0.00     0.010 C 
HETATM   30  C   UNL     1      43.882 -21.085   3.933  1.00  0.00     0.015 C 
HETATM   31  C   UNL     1      43.101 -20.203   1.704  1.00  0.00     0.015 C 
ENDBRANCH  27  29
ENDBRANCH  21  22
ENDBRANCH  20  21
ENDBRANCH   1  20
TORSDOF 6
ENDMDL
MODEL 9
REMARK VINA RESULT:      -8.4      3.514      5.385
REMARK  6 active torsions:
REMARK  status: ('A' for Active; 'I' for Inactive)
REMARK    1  A    between atoms: C_3  and  O_4 
REMARK    2  A    between atoms: O_4  and  C_5 
REMARK    3  A    between atoms: C_5  and  C_6 
REMARK       I    between atoms: C_6  and  N_7 
REMARK    4  A    between atoms: N_7  and  C_8 
REMARK    5  A    between atoms: C_15  and  C_16 
REMARK       I    between atoms: C_16  and  N_17 
REMARK    6  A    between atoms: C_23  and  C_24 
ROOT
HETATM    1  C   UNL     1      40.380 -14.694   2.129  1.00  0.00     0.246 C 
HETATM    2  N   UNL     1      40.688 -13.340   2.127  1.00  0.00    -0.325 N 
HETATM    3  O   UNL     1      39.336 -15.203   2.521  1.00  0.00    -0.271 OA
HETATM    4  H   UNL     1      41.559 -13.079   1.682  1.00  0.00     0.169 HD
ENDROOT
BRANCH   2   5
HETATM    5  C   UNL     1      39.931 -12.284   2.681  1.00  0.00     0.035 A 
HETATM    6  C   UNL     1      39.886 -11.993   4.052  1.00  0.00     0.046 A 
HETATM    7  C   UNL     1      39.126 -10.896   4.511  1.00  0.00     0.030 A 
HETATM    8  C   UNL     1      38.439 -10.121   3.584  1.00  0.00     0.063 A 
HETATM    9  C   UNL     1      38.838 -10.299   5.776  1.00  0.00     0.156 A 
HETATM   10  N   UNL     1      37.816  -9.148   4.315  1.00  0.00    -0.277 N 
HETATM   11  C   UNL     1      38.456 -10.381   2.213  1.00  0.00     0.034 A 
HETATM   12  H   UNL     1      37.229  -8.399   3.965  1.00  0.00     0.189 HD
HETATM   13  N   UNL     1      38.029  -9.224   5.638  1.00  0.00    -0.168 NA
HETATM   14  C   UNL     1      39.212 -11.481   1.784  1.00  0.00     0.032 A 
BRANCH   9  15
HETATM   15  C   UNL     1      39.311 -10.730   7.100  1.00  0.00     0.270 C 
HETATM   16  N   UNL     1      40.673 -10.763   7.223  1.00  0.00    -0.365 N 
HETATM   17  H   UNL     1      41.239 -10.494   6.427  1.00  0.00     0.159 HD
HETATM   18  H   UNL     1      41.087 -11.035   8.100  1.00  0.00     0.159 HD
HETATM   19  O   UNL     1      38.583 -11.039   8.038  1.00  0.00    -0.266 OA
ENDBRANCH   9  15
ENDBRANCH   2   5
BRANCH   1  20
HETATM   20  C   UNL     1      41.532 -15.562   1.623  1.00  0.00     0.278 C 
BRANCH  20  21
HETATM   21  O   UNL     1      42.733 -15.239   2.314  1.00  0.00    -0.342 OA
BRANCH  21  22
HETATM   22  C   UNL     1      43.150 -16.194   3.210  1.00  0.00     0.075 A 
HETATM   23  C   UNL     1      43.241 -15.808   4.556  1.00  0.00    -0.029 A 
HETATM   24  C   UNL     1      42.927 -14.404   4.989  1.00  0.00     0.051 C 
HETATM   25  C   UNL     1      43.620 -16.760   5.514  1.00  0.00     0.010 A 
HETATM   26  C   UNL     1      43.912 -18.073   5.139  1.00  0.00     0.008 A 
HETATM   27  C   UNL     1      43.819 -18.470   3.800  1.00  0.00    -0.052 A 
HETATM   28  C   UNL     1      43.431 -17.516   2.843  1.00  0.00     0.044 A 
BRANCH  27  29
HETATM   29  C   UNL     1      44.142 -19.902   3.410  1.00  0.00     0.010 C 
HETATM   30  C   UNL     1      43.843 -20.888   4.542  1.00  0.00     0.015 C 
HETATM   31  C   UNL     1      43.405 -20.302   2.129  1.00  0.00     0.015 C 
ENDBRANCH  27  29
ENDBRANCH  21  22
ENDBRANCH  20  21
ENDBRANCH   1  20
TORSDOF 6
ENDMDL
MODEL 10
REMARK VINA RESULT:      -8.2      4.922      8.177
REMARK  6 active torsions:
REMARK  status: ('A' for Active; 'I' for Inactive)
REMARK    1  A    between atoms: C_3  and  O_4 
REMARK    2  A    between atoms: O_4  and  C_5 
REMARK    3  A    between atoms: C_5  and  C_6 
REMARK       I    between atoms: C_6  and  N_7 
REMARK    4  A    between atoms: N_7  and  C_8 
REMARK    5  A    between atoms: C_15  and  C_16 
REMARK       I    between atoms: C_16  and  N_17 
REMARK    6  A    between atoms: C_23  and  C_24 
ROOT
HETATM    1  C   UNL     1      40.950 -13.443   5.808  1.00  0.00     0.246 C 
HETATM    2  N   UNL     1      41.932 -12.495   5.551  1.00  0.00    -0.325 N 
HETATM    3  O   UNL     1      39.961 -13.295   6.517  1.00  0.00    -0.271 OA
HETATM    4  H   UNL     1      42.634 -12.750   4.868  1.00  0.00     0.169 HD
ENDROOT
BRANCH   2   5
HETATM    5  C   UNL     1      42.069 -11.219   6.140  1.00  0.00     0.035 A 
HETATM    6  C   UNL     1      43.184 -10.824   6.893  1.00  0.00     0.046 A 
HETATM    7  C   UNL     1      43.249  -9.513   7.416  1.00  0.00     0.030 A 
HETATM    8  C   UNL     1      42.199  -8.639   7.163  1.00  0.00     0.063 A 
HETATM    9  C   UNL     1      44.174  -8.762   8.201  1.00  0.00     0.156 A 
HETATM   10  N   UNL     1      42.547  -7.468   7.778  1.00  0.00    -0.277 N 
HETATM   11  C   UNL     1      41.072  -8.996   6.422  1.00  0.00     0.034 A 
HETATM   12  H   UNL     1      42.016  -6.604   7.797  1.00  0.00     0.189 HD
HETATM   13  N   UNL     1      43.727  -7.504   8.416  1.00  0.00    -0.168 NA
HETATM   14  C   UNL     1      41.029 -10.304   5.921  1.00  0.00     0.032 A 
BRANCH   9  15
HETATM   15  C   UNL     1      45.463  -9.215   8.747  1.00  0.00     0.270 C 
HETATM   16  N   UNL     1      46.465  -9.296   7.819  1.00  0.00    -0.365 N 
HETATM   17  H   UNL     1      46.260  -9.044   6.860  1.00  0.00     0.159 HD
HETATM   18  H   UNL     1      47.386  -9.586   8.106  1.00  0.00     0.159 HD
HETATM   19  O   UNL     1      45.664  -9.502   9.922  1.00  0.00    -0.266 OA
ENDBRANCH   9  15
ENDBRANCH   2   5
BRANCH   1  20
HETATM   20  C   UNL     1      41.239 -14.788   5.140  1.00  0.00     0.278 C 
BRANCH  20  21
HETATM   21  O   UNL     1      42.623 -14.895   4.826  1.00  0.00    -0.342 OA
BRANCH  21  22
HETATM   22  C   UNL     1      42.971 -16.054   4.175  1.00  0.00     0.075 A 
HETATM   23  C   UNL     1      42.964 -16.024   2.773  1.00  0.00    -0.029 A 
HETATM   24  C   UNL     1      42.563 -14.787   2.020  1.00  0.00     0.051 C 
HETATM   25  C   UNL     1      43.355 -17.170   2.064  1.00  0.00     0.010 A 
HETATM   26  C   UNL     1      43.738 -18.331   2.740  1.00  0.00     0.008 A 
HETATM   27  C   UNL     1      43.753 -18.370   4.139  1.00  0.00    -0.052 A 
HETATM   28  C   UNL     1      43.370 -17.217   4.846  1.00  0.00     0.044 A 
BRANCH  27  29
HETATM   29  C   UNL     1      44.171 -19.642   4.857  1.00  0.00     0.010 C 
HETATM   30  C   UNL     1      43.513 -19.767   6.234  1.00  0.00     0.015 C 
HETATM   31  C   UNL     1      43.882 -20.877   4.001  1.00  0.00     0.015 C 
ENDBRANCH  27  29
ENDBRANCH  21  22
ENDBRANCH  20  21
ENDBRANCH   1  20
TORSDOF 6
ENDMDL
