MODEL 1
REMARK VINA RESULT:      -8.0      0.000      0.000
REMARK  5 active torsions:
REMARK  status: ('A' for Active; 'I' for Inactive)
REMARK    1  A    between atoms: C_6  and  N_7 
REMARK       I    between atoms: N_7  and  C_8 
REMARK    2  A    between atoms: C_8  and  C_9 
REMARK    3  A    between atoms: C_9  and  O_10 
REMARK    4  A    between atoms: O_10  and  C_11 
REMARK    5  A    between atoms: C_19  and  C_20 
ROOT
HETATM    1  C   UNL     1      43.168 -20.203   1.620  1.00  0.00     0.073 C 
HETATM    2  C   UNL     1      43.596 -19.496   2.853  1.00  0.00     0.065 A 
HETATM    3  N   UNL     1      44.269 -20.160   3.803  1.00  0.00    -0.177 NA
HETATM    4  N   UNL     1      44.495 -19.231   4.748  1.00  0.00    -0.262 N 
HETATM    5  H   UNL     1      44.995 -19.486   5.597  1.00  0.00     0.191 HD
HETATM    6  C   UNL     1      43.981 -17.996   4.446  1.00  0.00     0.137 A 
HETATM    7  C   UNL     1      43.393 -18.132   3.203  1.00  0.00     0.046 A 
ENDROOT
BRANCH   6   8
HETATM    8  N   UNL     1      44.063 -16.899   5.284  1.00  0.00    -0.309 N 
HETATM    9  C   UNL     1      42.968 -16.445   6.011  1.00  0.00     0.252 C 
HETATM   10  O   UNL     1      41.864 -16.989   5.998  1.00  0.00    -0.270 OA
HETATM   11  H   UNL     1      44.949 -16.407   5.326  1.00  0.00     0.170 HD
BRANCH   9  12
HETATM   12  C   UNL     1      43.293 -15.201   6.870  1.00  0.00     0.217 C 
HETATM   13  C   UNL     1      43.167 -15.595   8.342  1.00  0.00     0.050 C 
BRANCH  12  14
HETATM   14  O   UNL     1      42.424 -14.090   6.662  1.00  0.00    -0.337 OA
BRANCH  14  15
HETATM   15  C   UNL     1      42.840 -13.243   5.670  1.00  0.00     0.070 A 
HETATM   16  C   UNL     1      42.100 -13.248   4.489  1.00  0.00     0.037 A 
HETATM   17  C   UNL     1      42.450 -12.396   3.442  1.00  0.00     0.003 A 
HETATM   18  C   UNL     1      43.531 -11.527   3.584  1.00  0.00     0.000 A 
HETATM   19  C   UNL     1      44.252 -11.500   4.778  1.00  0.00     0.003 A 
HETATM   20  C   UNL     1      43.902 -12.352   5.827  1.00  0.00     0.037 A 
ENDBRANCH  14  15
ENDBRANCH  12  14
ENDBRANCH   9  12
ENDBRANCH   6   8
BRANCH   7  21
HETATM   21  C   UNL     1      42.714 -17.070   2.489  1.00  0.00    -0.020 A 
HETATM   22  C   UNL     1      43.448 -16.129   1.754  1.00  0.00     0.014 A 
HETATM   23  C   UNL     1      42.790 -15.104   1.068  1.00  0.00     0.020 A 
HETATM   24  C   UNL     1      41.400 -15.024   1.113  1.00  0.00     0.011 A 
HETATM   25 BR   UNL     1      40.510 -13.638   0.186  1.00  0.00    -0.051 Br
HETATM   26  C   UNL     1      40.660 -15.959   1.835  1.00  0.00     0.020 A 
HETATM   27  C   UNL     1      41.317 -16.983   2.522  1.00  0.00     0.014 A 
ENDBRANCH   7  21
TORSDOF 5
ENDMDL
MODEL 2
REMARK VINA RESULT:      -7.7      3.756      5.623
REMARK  5 active torsions:
REMARK  status: ('A' for Active; 'I' for Inactive)
REMARK    1  A    between atoms: C_6  and  N_7 
REMARK       I    between atoms: N_7  and  C_8 
REMARK    2  A    between atoms: C_8  and  C_9 
REMARK    3  A    between atoms: C_9  and  O_10 
REMARK    4  A    between atoms: O_10  and  C_11 
REMARK    5  A    between atoms: C_19  and  C_20 
ROOT
HETATM    1  C   UNL     1      40.231 -13.850  -1.568  1.00  0.00     0.073 C 
HETATM    2  C   UNL     1      39.702 -13.368  -0.267  1.00  0.00     0.065 A 
HETATM    3  N   UNL     1      38.804 -12.374  -0.239  1.00  0.00    -0.177 NA
HETATM    4  N   UNL     1      38.547 -12.207   1.070  1.00  0.00    -0.262 N 
HETATM    5  H   UNL     1      37.887 -11.493   1.368  1.00  0.00     0.191 HD
HETATM    6  C   UNL     1      39.256 -13.051   1.886  1.00  0.00     0.137 A 
HETATM    7  C   UNL     1      40.017 -13.835   1.039  1.00  0.00     0.046 A 
ENDROOT
BRANCH   6   8
HETATM    8  N   UNL     1      39.179 -13.036   3.267  1.00  0.00    -0.309 N 
HETATM    9  C   UNL     1      39.585 -11.936   4.015  1.00  0.00     0.252 C 
HETATM   10  O   UNL     1      40.007 -10.891   3.521  1.00  0.00    -0.270 OA
HETATM   11  H   UNL     1      38.847 -13.877   3.726  1.00  0.00     0.170 HD
BRANCH   9  12
HETATM   12  C   UNL     1      39.416 -12.151   5.536  1.00  0.00     0.217 C 
HETATM   13  C   UNL     1      38.762 -10.900   6.122  1.00  0.00     0.050 C 
BRANCH  12  14
HETATM   14  O   UNL     1      40.635 -12.352   6.248  1.00  0.00    -0.337 OA
BRANCH  14  15
HETATM   15  C   UNL     1      41.148 -13.615   6.116  1.00  0.00     0.070 A 
HETATM   16  C   UNL     1      40.272 -14.675   6.341  1.00  0.00     0.037 A 
HETATM   17  C   UNL     1      40.716 -15.989   6.204  1.00  0.00     0.003 A 
HETATM   18  C   UNL     1      42.033 -16.243   5.824  1.00  0.00     0.000 A 
HETATM   19  C   UNL     1      42.901 -15.181   5.569  1.00  0.00     0.003 A 
HETATM   20  C   UNL     1      42.458 -13.865   5.705  1.00  0.00     0.037 A 
ENDBRANCH  14  15
ENDBRANCH  12  14
ENDBRANCH   9  12
ENDBRANCH   6   8
BRANCH   7  21
HETATM   21  C   UNL     1      40.933 -14.871   1.472  1.00  0.00    -0.020 A 
HETATM   22  C   UNL     1      40.444 -16.104   1.925  1.00  0.00     0.014 A 
HETATM   23  C   UNL     1      41.330 -17.100   2.344  1.00  0.00     0.020 A 
HETATM   24  C   UNL     1      42.703 -16.866   2.304  1.00  0.00     0.011 A 
HETATM   25 BR   UNL     1      43.901 -18.214   2.870  1.00  0.00    -0.051 Br
HETATM   26  C   UNL     1      43.200 -15.646   1.848  1.00  0.00     0.020 A 
HETATM   27  C   UNL     1      42.315 -14.649   1.431  1.00  0.00     0.014 A 
ENDBRANCH   7  21
TORSDOF 5
ENDMDL
MODEL 3
REMARK VINA RESULT:      -7.6      2.029      3.013
REMARK  5 active torsions:
REMARK  status: ('A' for Active; 'I' for Inactive)
REMARK    1  A    between atoms: C_6  and  N_7 
REMARK       I    between atoms: N_7  and  C_8 
REMARK    2  A    between atoms: C_8  and  C_9 
REMARK    3  A    between atoms: C_9  and  O_10 
REMARK    4  A    between atoms: O_10  and  C_11 
REMARK    5  A    between atoms: C_19  and  C_20 
ROOT
HETATM    1  C   UNL     1      43.206 -19.316   2.389  1.00  0.00     0.073 C 
HETATM    2  C   UNL     1      43.522 -18.266   3.389  1.00  0.00     0.065 A 
HETATM    3  N   UNL     1      44.297 -18.559   4.442  1.00  0.00    -0.177 NA
HETATM    4  N   UNL     1      44.376 -17.400   5.118  1.00  0.00    -0.262 N 
HETATM    5  H   UNL     1      44.914 -17.353   5.981  1.00  0.00     0.191 HD
HETATM    6  C   UNL     1      43.672 -16.373   4.543  1.00  0.00     0.137 A 
HETATM    7  C   UNL     1      43.107 -16.905   3.400  1.00  0.00     0.046 A 
ENDROOT
BRANCH   6   8
HETATM    8  N   UNL     1      43.583 -15.101   5.080  1.00  0.00    -0.309 N 
HETATM    9  C   UNL     1      43.565 -14.882   6.453  1.00  0.00     0.252 C 
HETATM   10  O   UNL     1      43.660 -15.778   7.291  1.00  0.00    -0.270 OA
HETATM   11  H   UNL     1      43.493 -14.326   4.433  1.00  0.00     0.170 HD
BRANCH   9  12
HETATM   12  C   UNL     1      43.450 -13.384   6.819  1.00  0.00     0.217 C 
HETATM   13  C   UNL     1      42.234 -12.810   6.092  1.00  0.00     0.050 C 
BRANCH  12  14
HETATM   14  O   UNL     1      44.572 -12.591   6.439  1.00  0.00    -0.337 OA
BRANCH  14  15
HETATM   15  C   UNL     1      44.865 -11.589   7.326  1.00  0.00     0.070 A 
HETATM   16  C   UNL     1      45.997 -10.822   7.056  1.00  0.00     0.037 A 
HETATM   17  C   UNL     1      46.346  -9.770   7.901  1.00  0.00     0.003 A 
HETATM   18  C   UNL     1      45.551  -9.474   9.008  1.00  0.00     0.000 A 
HETATM   19  C   UNL     1      44.401 -10.223   9.261  1.00  0.00     0.003 A 
HETATM   20  C   UNL     1      44.050 -11.276   8.414  1.00  0.00     0.037 A 
ENDBRANCH  14  15
ENDBRANCH  12  14
ENDBRANCH   9  12
ENDBRANCH   6   8
BRANCH   7  21
HETATM   21  C   UNL     1      42.265 -16.172   2.475  1.00  0.00    -0.020 A 
HETATM   22  C   UNL     1      40.898 -16.465   2.377  1.00  0.00     0.014 A 
HETATM   23  C   UNL     1      40.090 -15.759   1.483  1.00  0.00     0.020 A 
HETATM   24  C   UNL     1      40.647 -14.756   0.692  1.00  0.00     0.011 A 
HETATM   25 BR   UNL     1      39.553 -13.801  -0.518  1.00  0.00    -0.051 Br
HETATM   26  C   UNL     1      42.003 -14.451   0.786  1.00  0.00     0.020 A 
HETATM   27  C   UNL     1      42.813 -15.159   1.679  1.00  0.00     0.014 A 
ENDBRANCH   7  21
TORSDOF 5
ENDMDL
MODEL 4
REMARK VINA RESULT:      -7.3      3.967      6.919
REMARK  5 active torsions:
REMARK  status: ('A' for Active; 'I' for Inactive)
REMARK    1  A    between atoms: C_6  and  N_7 
REMARK       I    between atoms: N_7  and  C_8 
REMARK    2  A    between atoms: C_8  and  C_9 
REMARK    3  A    between atoms: C_9  and  O_10 
REMARK    4  A    between atoms: O_10  and  C_11 
REMARK    5  A    between atoms: C_19  and  C_20 
ROOT
HETATM    1  C   UNL     1      43.925 -12.992   7.018  1.00  0.00     0.073 C 
HETATM    2  C   UNL     1      42.934 -12.968   5.914  1.00  0.00     0.065 A 
HETATM    3  N   UNL     1      42.330 -11.818   5.584  1.00  0.00    -0.177 NA
HETATM    4  N   UNL     1      41.523 -12.158   4.564  1.00  0.00    -0.262 N 
HETATM    5  H   UNL     1      40.936 -11.451   4.128  1.00  0.00     0.191 HD
HETATM    6  C   UNL     1      41.577 -13.487   4.233  1.00  0.00     0.137 A 
HETATM    7  C   UNL     1      42.503 -14.047   5.093  1.00  0.00     0.046 A 
ENDROOT
BRANCH   6   8
HETATM    8  N   UNL     1      40.810 -14.068   3.239  1.00  0.00    -0.309 N 
HETATM    9  C   UNL     1      40.962 -13.729   1.899  1.00  0.00     0.252 C 
HETATM   10  O   UNL     1      41.799 -12.925   1.487  1.00  0.00    -0.270 OA
HETATM   11  H   UNL     1      40.098 -14.731   3.524  1.00  0.00     0.170 HD
BRANCH   9  12
HETATM   12  C   UNL     1      39.992 -14.497   0.972  1.00  0.00     0.217 C 
HETATM   13  C   UNL     1      39.938 -15.950   1.443  1.00  0.00     0.050 C 
BRANCH  12  14
HETATM   14  O   UNL     1      40.374 -14.520  -0.401  1.00  0.00    -0.337 OA
BRANCH  14  15
HETATM   15  C   UNL     1      39.389 -14.099  -1.254  1.00  0.00     0.070 A 
HETATM   16  C   UNL     1      39.094 -14.932  -2.332  1.00  0.00     0.037 A 
HETATM   17  C   UNL     1      38.088 -14.581  -3.231  1.00  0.00     0.003 A 
HETATM   18  C   UNL     1      37.364 -13.404  -3.041  1.00  0.00     0.000 A 
HETATM   19  C   UNL     1      37.639 -12.586  -1.944  1.00  0.00     0.003 A 
HETATM   20  C   UNL     1      38.646 -12.937  -1.043  1.00  0.00     0.037 A 
ENDBRANCH  14  15
ENDBRANCH  12  14
ENDBRANCH   9  12
ENDBRANCH   6   8
BRANCH   7  21
HETATM   21  C   UNL     1      42.879 -15.447   5.106  1.00  0.00    -0.020 A 
HETATM   22  C   UNL     1      42.714 -16.213   6.267  1.00  0.00     0.014 A 
HETATM   23  C   UNL     1      43.081 -17.562   6.277  1.00  0.00     0.020 A 
HETATM   24  C   UNL     1      43.606 -18.144   5.125  1.00  0.00     0.011 A 
HETATM   25 BR   UNL     1      44.102 -19.968   5.139  1.00  0.00    -0.051 Br
HETATM   26  C   UNL     1      43.768 -17.392   3.963  1.00  0.00     0.020 A 
HETATM   27  C   UNL     1      43.404 -16.043   3.953  1.00  0.00     0.014 A 
ENDBRANCH   7  21
TORSDOF 5
ENDMDL
MODEL 5
REMARK VINA RESULT:      -7.2      2.915      4.341
REMARK  5 active torsions:
REMARK  status: ('A' for Active; 'I' for Inactive)
REMARK    1  A    between atoms: C_6  and  N_7 
REMARK       I    between atoms: N_7  and  C_8 
REMARK    2  A    between atoms: C_8  and  C_9 
REMARK    3  A    between atoms: C_9  and  O_10 
REMARK    4  A    between atoms: O_10  and  C_11 
REMARK    5  A    between atoms: C_19  and  C_20 
ROOT
HETATM    1  C   UNL     1      43.973 -18.239   4.379  1.00  0.00     0.073 C 
HETATM    2  C   UNL     1      43.822 -16.988   5.163  1.00  0.00     0.065 A 
HETATM    3  N   UNL     1      44.385 -16.888   6.375  1.00  0.00    -0.177 NA
HETATM    4  N   UNL     1      44.058 -15.649   6.782  1.00  0.00    -0.262 N 
HETATM    5  H   UNL     1      44.365 -15.320   7.694  1.00  0.00     0.191 HD
HETATM    6  C   UNL     1      43.296 -14.952   5.880  1.00  0.00     0.137 A 
HETATM    7  C   UNL     1      43.131 -15.798   4.800  1.00  0.00     0.046 A 
ENDROOT
BRANCH   6   8
HETATM    8  N   UNL     1      42.816 -13.673   6.099  1.00  0.00    -0.309 N 
HETATM    9  C   UNL     1      43.650 -12.631   6.492  1.00  0.00     0.252 C 
HETATM   10  O   UNL     1      44.866 -12.748   6.642  1.00  0.00    -0.270 OA
HETATM   11  H   UNL     1      41.819 -13.524   5.998  1.00  0.00     0.170 HD
BRANCH   9  12
HETATM   12  C   UNL     1      42.892 -11.298   6.686  1.00  0.00     0.217 C 
HETATM   13  C   UNL     1      42.161 -10.974   5.383  1.00  0.00     0.050 C 
BRANCH  12  14
HETATM   14  O   UNL     1      43.724 -10.179   6.984  1.00  0.00    -0.337 OA
BRANCH  14  15
HETATM   15  C   UNL     1      43.823  -9.907   8.322  1.00  0.00     0.070 A 
HETATM   16  C   UNL     1      45.091 -10.012   8.891  1.00  0.00     0.037 A 
HETATM   17  C   UNL     1      45.275  -9.729  10.244  1.00  0.00     0.003 A 
HETATM   18  C   UNL     1      44.193  -9.324  11.024  1.00  0.00     0.000 A 
HETATM   19  C   UNL     1      42.930  -9.190  10.447  1.00  0.00     0.003 A 
HETATM   20  C   UNL     1      42.745  -9.471   9.092  1.00  0.00     0.037 A 
ENDBRANCH  14  15
ENDBRANCH  12  14
ENDBRANCH   9  12
ENDBRANCH   6   8
BRANCH   7  21
HETATM   21  C   UNL     1      42.380 -15.475   3.603  1.00  0.00    -0.020 A 
HETATM   22  C   UNL     1      41.100 -16.009   3.405  1.00  0.00     0.014 A 
HETATM   23  C   UNL     1      40.380 -15.698   2.248  1.00  0.00     0.020 A 
HETATM   24  C   UNL     1      40.938 -14.849   1.294  1.00  0.00     0.011 A 
HETATM   25 BR   UNL     1      39.964 -14.428  -0.270  1.00  0.00    -0.051 Br
HETATM   26  C   UNL     1      42.208 -14.307   1.485  1.00  0.00     0.020 A 
HETATM   27  C   UNL     1      42.929 -14.619   2.640  1.00  0.00     0.014 A 
ENDBRANCH   7  21
TORSDOF 5
ENDMDL
MODEL 6
REMARK VINA RESULT:      -7.2      2.270      5.529
REMARK  5 active torsions:
REMARK  status: ('A' for Active; 'I' for Inactive)
REMARK    1  A    between atoms: C_6  and  N_7 
REMARK       I    between atoms: N_7  and  C_8 
REMARK    2  A    between atoms: C_8  and  C_9 
REMARK    3  A    between atoms: C_9  and  O_10 
REMARK    4  A    between atoms: O_10  and  C_11 
REMARK    5  A    between atoms: C_19  and  C_20 
ROOT
HETATM    1  C   UNL     1      41.758  -9.840   5.602  1.00  0.00     0.073 C 
HETATM    2  C   UNL     1      42.517 -10.970   6.192  1.00  0.00     0.065 A 
HETATM    3  N   UNL     1      43.184 -10.798   7.341  1.00  0.00    -0.177 NA
HETATM    4  N   UNL     1      43.737 -12.001   7.577  1.00  0.00    -0.262 N 
HETATM    5  H   UNL     1      44.312 -12.139   8.405  1.00  0.00     0.191 HD
HETATM    6  C   UNL     1      43.458 -12.938   6.616  1.00  0.00     0.137 A 
HETATM    7  C   UNL     1      42.650 -12.297   5.696  1.00  0.00     0.046 A 
ENDROOT
BRANCH   6   8
HETATM    8  N   UNL     1      43.947 -14.232   6.633  1.00  0.00    -0.309 N 
HETATM    9  C   UNL     1      43.195 -15.296   7.118  1.00  0.00     0.252 C 
HETATM   10  O   UNL     1      42.041 -15.186   7.533  1.00  0.00    -0.270 OA
HETATM   11  H   UNL     1      44.896 -14.378   6.310  1.00  0.00     0.170 HD
BRANCH   9  12
HETATM   12  C   UNL     1      43.948 -16.644   7.047  1.00  0.00     0.217 C 
HETATM   13  C   UNL     1      45.169 -16.458   6.146  1.00  0.00     0.050 C 
BRANCH  12  14
HETATM   14  O   UNL     1      43.190 -17.721   6.501  1.00  0.00    -0.337 OA
BRANCH  14  15
HETATM   15  C   UNL     1      43.269 -17.815   5.137  1.00  0.00     0.070 A 
HETATM   16  C   UNL     1      44.027 -18.867   4.623  1.00  0.00     0.037 A 
HETATM   17  C   UNL     1      44.135 -19.040   3.245  1.00  0.00     0.003 A 
HETATM   18  C   UNL     1      43.471 -18.171   2.379  1.00  0.00     0.000 A 
HETATM   19  C   UNL     1      42.688 -17.138   2.895  1.00  0.00     0.003 A 
HETATM   20  C   UNL     1      42.578 -16.964   4.275  1.00  0.00     0.037 A 
ENDBRANCH  14  15
ENDBRANCH  12  14
ENDBRANCH   9  12
ENDBRANCH   6   8
BRANCH   7  21
HETATM   21  C   UNL     1      42.115 -12.910   4.496  1.00  0.00    -0.020 A 
HETATM   22  C   UNL     1      42.900 -13.007   3.340  1.00  0.00     0.014 A 
HETATM   23  C   UNL     1      42.380 -13.596   2.184  1.00  0.00     0.020 A 
HETATM   24  C   UNL     1      41.078 -14.092   2.187  1.00  0.00     0.011 A 
HETATM   25 BR   UNL     1      40.374 -14.888   0.624  1.00  0.00    -0.051 Br
HETATM   26  C   UNL     1      40.290 -14.007   3.334  1.00  0.00     0.020 A 
HETATM   27  C   UNL     1      40.809 -13.416   4.490  1.00  0.00     0.014 A 
ENDBRANCH   7  21
TORSDOF 5
ENDMDL
MODEL 7
REMARK VINA RESULT:      -7.1      3.783      6.841
REMARK  5 active torsions:
REMARK  status: ('A' for Active; 'I' for Inactive)
REMARK    1  A    between atoms: C_6  and  N_7 
REMARK       I    between atoms: N_7  and  C_8 
REMARK    2  A    between atoms: C_8  and  C_9 
REMARK    3  A    between atoms: C_9  and  O_10 
REMARK    4  A    between atoms: O_10  and  C_11 
REMARK    5  A    between atoms: C_19  and  C_20 
ROOT
HETATM    1  C   UNL     1      38.855 -11.385  -1.112  1.00  0.00     0.073 C 
HETATM    2  C   UNL     1      39.203 -12.736  -0.605  1.00  0.00     0.065 A 
HETATM    3  N   UNL     1      39.029 -13.809  -1.389  1.00  0.00    -0.177 NA
HETATM    4  N   UNL     1      39.443 -14.836  -0.628  1.00  0.00    -0.262 N 
HETATM    5  H   UNL     1      39.407 -15.784  -0.996  1.00  0.00     0.191 HD
HETATM    6  C   UNL     1      39.867 -14.465   0.622  1.00  0.00     0.137 A 
HETATM    7  C   UNL     1      39.732 -13.091   0.668  1.00  0.00     0.046 A 
ENDROOT
BRANCH   6   8
HETATM    8  N   UNL     1      40.304 -15.356   1.586  1.00  0.00    -0.309 N 
HETATM    9  C   UNL     1      41.652 -15.507   1.891  1.00  0.00     0.252 C 
HETATM   10  O   UNL     1      42.551 -14.851   1.364  1.00  0.00    -0.270 OA
HETATM   11  H   UNL     1      39.605 -15.929   2.046  1.00  0.00     0.170 HD
BRANCH   9  12
HETATM   12  C   UNL     1      41.903 -16.564   2.991  1.00  0.00     0.217 C 
HETATM   13  C   UNL     1      41.385 -16.003   4.315  1.00  0.00     0.050 C 
BRANCH  12  14
HETATM   14  O   UNL     1      43.274 -16.900   3.192  1.00  0.00    -0.337 OA
BRANCH  14  15
HETATM   15  C   UNL     1      43.506 -18.248   3.267  1.00  0.00     0.070 A 
HETATM   16  C   UNL     1      43.968 -18.738   4.487  1.00  0.00     0.037 A 
HETATM   17  C   UNL     1      44.205 -20.103   4.646  1.00  0.00     0.003 A 
HETATM   18  C   UNL     1      43.964 -20.979   3.588  1.00  0.00     0.000 A 
HETATM   19  C   UNL     1      43.473 -20.491   2.377  1.00  0.00     0.003 A 
HETATM   20  C   UNL     1      43.233 -19.125   2.217  1.00  0.00     0.037 A 
ENDBRANCH  14  15
ENDBRANCH  12  14
ENDBRANCH   9  12
ENDBRANCH   6   8
BRANCH   7  21
HETATM   21  C   UNL     1      40.061 -12.264   1.812  1.00  0.00    -0.020 A 
HETATM   22  C   UNL     1      39.195 -12.203   2.912  1.00  0.00     0.014 A 
HETATM   23  C   UNL     1      39.513 -11.403   4.013  1.00  0.00     0.020 A 
HETATM   24  C   UNL     1      40.699 -10.670   4.015  1.00  0.00     0.011 A 
HETATM   25 BR   UNL     1      41.129  -9.588   5.504  1.00  0.00    -0.051 Br
HETATM   26  C   UNL     1      41.570 -10.729   2.929  1.00  0.00     0.020 A 
HETATM   27  C   UNL     1      41.251 -11.527   1.827  1.00  0.00     0.014 A 
ENDBRANCH   7  21
TORSDOF 5
ENDMDL
MODEL 8
REMARK VINA RESULT:      -7.0      3.492      7.306
REMARK  5 active torsions:
REMARK  status: ('A' for Active; 'I' for Inactive)
REMARK    1  A    between atoms: C_6  and  N_7 
REMARK       I    between atoms: N_7  and  C_8 
REMARK    2  A    between atoms: C_8  and  C_9 
REMARK    3  A    between atoms: C_9  and  O_10 
REMARK    4  A    between atoms: O_10  and  C_11 
REMARK    5  A    between atoms: C_19  and  C_20 
ROOT
HETATM    1  C   UNL     1      41.422  -9.124   4.119  1.00  0.00     0.073 C 
HETATM    2  C   UNL     1      41.691 -10.580   4.022  1.00  0.00     0.065 A 
HETATM    3  N   UNL     1      41.183 -11.286   3.003  1.00  0.00    -0.177 NA
HETATM    4  N   UNL     1      41.623 -12.537   3.225  1.00  0.00    -0.262 N 
HETATM    5  H   UNL     1      41.367 -13.284   2.584  1.00  0.00     0.191 HD
HETATM    6  C   UNL     1      42.387 -12.663   4.357  1.00  0.00     0.137 A 
HETATM    7  C   UNL     1      42.460 -11.395   4.899  1.00  0.00     0.046 A 
ENDROOT
BRANCH   6   8
HETATM    8  N   UNL     1      42.917 -13.861   4.801  1.00  0.00    -0.309 N 
HETATM    9  C   UNL     1      42.131 -14.995   4.976  1.00  0.00     0.252 C 
HETATM   10  O   UNL     1      40.927 -15.038   4.722  1.00  0.00    -0.270 OA
HETATM   11  H   UNL     1      43.904 -13.878   5.034  1.00  0.00     0.170 HD
BRANCH   9  12
HETATM   12  C   UNL     1      42.937 -16.210   5.489  1.00  0.00     0.217 C 
HETATM   13  C   UNL     1      43.576 -15.826   6.823  1.00  0.00     0.050 C 
BRANCH  12  14
HETATM   14  O   UNL     1      43.993 -16.629   4.628  1.00  0.00    -0.337 OA
BRANCH  14  15
HETATM   15  C   UNL     1      43.898 -17.938   4.236  1.00  0.00     0.070 A 
HETATM   16  C   UNL     1      43.629 -18.171   2.888  1.00  0.00     0.037 A 
HETATM   17  C   UNL     1      43.539 -19.477   2.410  1.00  0.00     0.003 A 
HETATM   18  C   UNL     1      43.736 -20.551   3.277  1.00  0.00     0.000 A 
HETATM   19  C   UNL     1      44.035 -20.317   4.619  1.00  0.00     0.003 A 
HETATM   20  C   UNL     1      44.127 -19.009   5.099  1.00  0.00     0.037 A 
ENDBRANCH  14  15
ENDBRANCH  12  14
ENDBRANCH   9  12
ENDBRANCH   6   8
BRANCH   7  21
HETATM   21  C   UNL     1      43.170 -11.055   6.117  1.00  0.00    -0.020 A 
HETATM   22  C   UNL     1      42.516 -10.372   7.150  1.00  0.00     0.014 A 
HETATM   23  C   UNL     1      43.203 -10.043   8.322  1.00  0.00     0.020 A 
HETATM   24  C   UNL     1      44.542 -10.403   8.461  1.00  0.00     0.011 A 
HETATM   25 BR   UNL     1      45.472  -9.959  10.045  1.00  0.00    -0.051 Br
HETATM   26  C   UNL     1      45.200 -11.090   7.442  1.00  0.00     0.020 A 
HETATM   27  C   UNL     1      44.514 -11.416   6.269  1.00  0.00     0.014 A 
ENDBRANCH   7  21
TORSDOF 5
ENDMDL
MODEL 9
REMARK VINA RESULT:      -7.0     14.141     15.326
REMARK  5 active torsions:
REMARK  status: ('A' for Active; 'I' for Inactive)
REMARK    1  A    between atoms: C_6  and  N_7 
REMARK       I    between atoms: N_7  and  C_8 
REMARK    2  A    between atoms: C_8  and  C_9 
REMARK    3  A    between atoms: C_9  and  O_10 
REMARK    4  A    between atoms: O_10  and  C_11 
REMARK    5  A    between atoms: C_19  and  C_20 
ROOT
HETATM    1  C   UNL     1      40.759 -31.472   1.536  1.00  0.00     0.073 C 
HETATM    2  C   UNL     1      42.013 -31.094   2.233  1.00  0.00     0.065 A 
HETATM    3  N   UNL     1      42.070 -31.128   3.571  1.00  0.00    -0.177 NA
HETATM    4  N   UNL     1      43.326 -30.740   3.851  1.00  0.00    -0.262 N 
HETATM    5  H   UNL     1      43.630 -30.674   4.820  1.00  0.00     0.191 HD
HETATM    6  C   UNL     1      44.077 -30.447   2.742  1.00  0.00     0.137 A 
HETATM    7  C   UNL     1      43.249 -30.679   1.661  1.00  0.00     0.046 A 
ENDROOT
BRANCH   6   8
HETATM    8  N   UNL     1      45.384 -29.997   2.790  1.00  0.00    -0.309 N 
HETATM    9  C   UNL     1      46.465 -30.855   2.618  1.00  0.00     0.252 C 
HETATM   10  O   UNL     1      46.353 -32.058   2.379  1.00  0.00    -0.270 OA
HETATM   11  H   UNL     1      45.534 -29.015   2.993  1.00  0.00     0.170 HD
BRANCH   9  12
HETATM   12  C   UNL     1      47.827 -30.132   2.722  1.00  0.00     0.217 C 
HETATM   13  C   UNL     1      48.129 -29.901   4.203  1.00  0.00     0.050 C 
BRANCH  12  14
HETATM   14  O   UNL     1      47.875 -28.857   2.085  1.00  0.00    -0.337 OA
BRANCH  14  15
HETATM   15  C   UNL     1      47.972 -28.927   0.721  1.00  0.00     0.070 A 
HETATM   16  C   UNL     1      47.206 -28.020  -0.010  1.00  0.00     0.037 A 
HETATM   17  C   UNL     1      47.271 -28.015  -1.402  1.00  0.00     0.003 A 
HETATM   18  C   UNL     1      48.115 -28.907  -2.064  1.00  0.00     0.000 A 
HETATM   19  C   UNL     1      48.904 -29.793  -1.330  1.00  0.00     0.003 A 
HETATM   20  C   UNL     1      48.842 -29.798   0.064  1.00  0.00     0.037 A 
ENDBRANCH  14  15
ENDBRANCH  12  14
ENDBRANCH   9  12
ENDBRANCH   6   8
BRANCH   7  21
HETATM   21  C   UNL     1      43.626 -30.492   0.274  1.00  0.00    -0.020 A 
HETATM   22  C   UNL     1      44.000 -31.590  -0.512  1.00  0.00     0.014 A 
HETATM   23  C   UNL     1      44.367 -31.407  -1.848  1.00  0.00     0.020 A 
HETATM   24  C   UNL     1      44.353 -30.127  -2.398  1.00  0.00     0.011 A 
HETATM   25 BR   UNL     1      44.849 -29.878  -4.205  1.00  0.00    -0.051 Br
HETATM   26  C   UNL     1      43.976 -29.028  -1.628  1.00  0.00     0.020 A 
HETATM   27  C   UNL     1      43.612 -29.211  -0.291  1.00  0.00     0.014 A 
ENDBRANCH   7  21
TORSDOF 5
ENDMDL
MODEL 10
REMARK VINA RESULT:      -6.8     14.285     16.791
REMARK  5 active torsions:
REMARK  status: ('A' for Active; 'I' for Inactive)
REMARK    1  A    between atoms: C_6  and  N_7 
REMARK       I    between atoms: N_7  and  C_8 
REMARK    2  A    between atoms: C_8  and  C_9 
REMARK    3  A    between atoms: C_9  and  O_10 
REMARK    4  A    between atoms: O_10  and  C_11 
REMARK    5  A    between atoms: C_19  and  C_20 
ROOT
HETATM    1  C   UNL     1      52.769 -32.318  -1.162  1.00  0.00     0.073 C 
HETATM    2  C   UNL     1      51.660 -31.338  -1.277  1.00  0.00     0.065 A 
HETATM    3  N   UNL     1      51.344 -30.825  -2.475  1.00  0.00    -0.177 NA
HETATM    4  N   UNL     1      50.316 -29.999  -2.211  1.00  0.00    -0.262 N 
HETATM    5  H   UNL     1      49.887 -29.471  -2.967  1.00  0.00     0.191 HD
HETATM    6  C   UNL     1      49.966 -29.954  -0.886  1.00  0.00     0.137 A 
HETATM    7  C   UNL     1      50.822 -30.829  -0.246  1.00  0.00     0.046 A 
ENDROOT
BRANCH   6   8
HETATM    8  N   UNL     1      48.961 -29.150  -0.380  1.00  0.00    -0.309 N 
HETATM    9  C   UNL     1      47.734 -29.669   0.018  1.00  0.00     0.252 C 
HETATM   10  O   UNL     1      47.454 -30.868  -0.014  1.00  0.00    -0.270 OA
HETATM   11  H   UNL     1      49.135 -28.152  -0.340  1.00  0.00     0.170 HD
BRANCH   9  12
HETATM   12  C   UNL     1      46.765 -28.584   0.541  1.00  0.00     0.217 C 
HETATM   13  C   UNL     1      46.909 -28.513   2.061  1.00  0.00     0.050 C 
BRANCH  12  14
HETATM   14  O   UNL     1      45.389 -28.832   0.266  1.00  0.00    -0.337 OA
BRANCH  14  15
HETATM   15  C   UNL     1      45.085 -28.833  -1.069  1.00  0.00     0.070 A 
HETATM   16  C   UNL     1      44.321 -29.901  -1.538  1.00  0.00     0.037 A 
HETATM   17  C   UNL     1      43.953 -29.959  -2.881  1.00  0.00     0.003 A 
HETATM   18  C   UNL     1      44.336 -28.940  -3.753  1.00  0.00     0.000 A 
HETATM   19  C   UNL     1      45.075 -27.857  -3.277  1.00  0.00     0.003 A 
HETATM   20  C   UNL     1      45.442 -27.796  -1.931  1.00  0.00     0.037 A 
ENDBRANCH  14  15
ENDBRANCH  12  14
ENDBRANCH   9  12
ENDBRANCH   6   8
BRANCH   7  21
HETATM   21  C   UNL     1      50.817 -31.098   1.179  1.00  0.00    -0.020 A 
HETATM   22  C   UNL     1      51.071 -30.068   2.094  1.00  0.00     0.014 A 
HETATM   23  C   UNL     1      51.069 -30.330   3.466  1.00  0.00     0.020 A 
HETATM   24  C   UNL     1      50.807 -31.621   3.923  1.00  0.00     0.011 A 
HETATM   25 BR   UNL     1      50.803 -31.976   5.779  1.00  0.00    -0.051 Br
HETATM   26  C   UNL     1      50.546 -32.651   3.021  1.00  0.00     0.020 A 
HETATM   27  C   UNL     1      50.551 -32.390   1.648  1.00  0.00     0.014 A 
ENDBRANCH   7  21
TORSDOF 5
ENDMDL
