MODEL 1
REMARK VINA RESULT:      -8.7      0.000      0.000
REMARK  9 active torsions:
REMARK  status: ('A' for Active; 'I' for Inactive)
REMARK    1  A    between atoms: C_5  and  N_6 
REMARK       I    between atoms: N_6  and  C_7 
REMARK    2  A    between atoms: C_7  and  C_8 
REMARK    3  A    between atoms: C_8  and  C_9 
REMARK    4  A    between atoms: C_9  and  C_10 
REMARK       I    between atoms: C_10  and  N_11 
REMARK    5  A    between atoms: N_11  and  C_12 
REMARK    6  A    between atoms: N_11  and  C_29 
REMARK    7  A    between atoms: C_12  and  C_13 
REMARK       I    between atoms: C_13  and  N_14 
REMARK    8  A    between atoms: N_14  and  C_15 
REMARK    9  A    between atoms: C_29  and  C_30 
ROOT
HETATM    1  C   UNL     1      43.165 -11.633   4.464  1.00  0.00     0.221 C 
HETATM    2  N   UNL     1      41.940 -12.044   3.924  1.00  0.00    -0.328 N 
HETATM    3  O   UNL     1      44.182 -11.585   3.759  1.00  0.00    -0.273 OA
ENDROOT
BRANCH   2   4
HETATM    4  C   UNL     1      40.625 -12.320   4.666  1.00  0.00     0.119 C 
HETATM    5  C   UNL     1      39.353 -12.318   3.762  1.00  0.00     0.069 C 
HETATM    6  C   UNL     1      39.124 -10.992   3.081  1.00  0.00     0.237 C 
HETATM    7  N   UNL     1      38.821  -9.971   4.145  1.00  0.00    -0.075 N 
HETATM    8  H   UNL     1      37.963 -10.278   4.630  1.00  0.00     0.279 HD
HETATM    9  C   UNL     1      38.485  -8.634   3.532  1.00  0.00     0.269 C 
HETATM   10  C   UNL     1      39.911  -9.865   5.177  1.00  0.00     0.237 C 
HETATM   11  C   UNL     1      40.277 -11.240   5.751  1.00  0.00     0.069 C 
BRANCH   4  12
HETATM   12  C   UNL     1      40.612 -13.678   5.449  1.00  0.00     0.246 C 
HETATM   13  N   UNL     1      41.507 -14.654   5.078  1.00  0.00    -0.354 N 
HETATM   14  H   UNL     1      42.148 -14.483   4.307  1.00  0.00     0.162 HD
HETATM   15  O   UNL     1      39.949 -13.774   6.483  1.00  0.00    -0.271 OA
BRANCH  13  16
HETATM   16  C   UNL     1      41.785 -15.807   5.951  1.00  0.00     0.084 C 
HETATM   17  C   UNL     1      42.427 -17.007   5.227  1.00  0.00     0.025 C 
HETATM   18  C   UNL     1      43.925 -16.861   4.966  1.00  0.00     0.002 C 
HETATM   19  C   UNL     1      44.697 -16.450   6.212  1.00  0.00     0.000 C 
HETATM   20  C   UNL     1      44.098 -15.199   6.841  1.00  0.00     0.002 C 
HETATM   21  C   UNL     1      42.621 -15.404   7.174  1.00  0.00     0.025 C 
ENDBRANCH  13  16
ENDBRANCH   4  12
ENDBRANCH   2   4
BRANCH   2  22
HETATM   22  C   UNL     1      42.027 -12.242   2.453  1.00  0.00     0.192 C 
BRANCH  22  23
HETATM   23  C   UNL     1      42.275 -13.656   2.064  1.00  0.00     0.070 A 
HETATM   24  O   UNL     1      41.180 -14.442   1.859  1.00  0.00    -0.325 OA
HETATM   25  C   UNL     1      41.639 -15.705   1.644  1.00  0.00     0.142 A 
HETATM   26  C   UNL     1      43.013 -15.732   1.672  1.00  0.00     0.027 A 
HETATM   27  C   UNL     1      43.426 -14.411   1.949  1.00  0.00     0.036 A 
ENDBRANCH  22  23
ENDBRANCH   2  22
BRANCH   1  28
HETATM   28  C   UNL     1      43.330 -11.122   5.874  1.00  0.00     0.112 C 
BRANCH  28  29
HETATM   29  C   UNL     1      44.666 -11.561   6.431  1.00  0.00     0.112 C 
BRANCH  29  30
HETATM   30  C   UNL     1      44.897 -11.017   7.826  1.00  0.00     0.223 C 
HETATM   31  N   UNL     1      43.728 -10.906   8.550  1.00  0.00    -0.310 N 
HETATM   32  H   UNL     1      42.837 -11.094   8.110  1.00  0.00     0.170 HD
HETATM   33  O   UNL     1      46.034 -10.746   8.191  1.00  0.00    -0.273 OA
BRANCH  31  34
HETATM   34  C   UNL     1      43.665 -10.478   9.863  1.00  0.00     0.160 A 
HETATM   35  N   UNL     1      43.820 -11.239  10.946  1.00  0.00    -0.110 NA
HETATM   36  O   UNL     1      43.679 -10.401  12.034  1.00  0.00    -0.216 OA
HETATM   37  C   UNL     1      43.430  -9.141  11.599  1.00  0.00     0.078 A 
HETATM   38  C   UNL     1      43.252  -8.109  12.635  1.00  0.00     0.079 C 
HETATM   39  C   UNL     1      43.412  -9.135  10.227  1.00  0.00     0.087 A 
ENDBRANCH  31  34
ENDBRANCH  29  30
ENDBRANCH  28  29
ENDBRANCH   1  28
TORSDOF 9
ENDMDL
MODEL 2
REMARK VINA RESULT:      -8.4      2.420      4.727
REMARK  9 active torsions:
REMARK  status: ('A' for Active; 'I' for Inactive)
REMARK    1  A    between atoms: C_5  and  N_6 
REMARK       I    between atoms: N_6  and  C_7 
REMARK    2  A    between atoms: C_7  and  C_8 
REMARK    3  A    between atoms: C_8  and  C_9 
REMARK    4  A    between atoms: C_9  and  C_10 
REMARK       I    between atoms: C_10  and  N_11 
REMARK    5  A    between atoms: N_11  and  C_12 
REMARK    6  A    between atoms: N_11  and  C_29 
REMARK    7  A    between atoms: C_12  and  C_13 
REMARK       I    between atoms: C_13  and  N_14 
REMARK    8  A    between atoms: N_14  and  C_15 
REMARK    9  A    between atoms: C_29  and  C_30 
ROOT
HETATM    1  C   UNL     1      39.994 -11.337   6.234  1.00  0.00     0.221 C 
HETATM    2  N   UNL     1      40.771 -11.979   5.262  1.00  0.00    -0.328 N 
HETATM    3  O   UNL     1      38.809 -11.652   6.407  1.00  0.00    -0.273 OA
ENDROOT
BRANCH   2   4
HETATM    4  C   UNL     1      42.189 -11.620   4.797  1.00  0.00     0.119 C 
HETATM    5  C   UNL     1      42.406 -10.109   4.476  1.00  0.00     0.069 C 
HETATM    6  C   UNL     1      41.515  -9.614   3.364  1.00  0.00     0.237 C 
HETATM    7  N   UNL     1      41.919 -10.321   2.099  1.00  0.00    -0.075 N 
HETATM    8  H   UNL     1      42.902 -10.072   1.907  1.00  0.00     0.279 HD
HETATM    9  C   UNL     1      41.133  -9.808   0.918  1.00  0.00     0.269 C 
HETATM   10  C   UNL     1      41.847 -11.819   2.220  1.00  0.00     0.237 C 
HETATM   11  C   UNL     1      42.608 -12.320   3.456  1.00  0.00     0.069 C 
BRANCH   4  12
HETATM   12  C   UNL     1      43.311 -12.024   5.815  1.00  0.00     0.246 C 
HETATM   13  N   UNL     1      43.999 -11.022   6.458  1.00  0.00    -0.354 N 
HETATM   14  H   UNL     1      43.777 -10.050   6.259  1.00  0.00     0.162 HD
HETATM   15  O   UNL     1      43.422 -13.203   6.157  1.00  0.00    -0.271 OA
BRANCH  13  16
HETATM   16  C   UNL     1      44.821 -11.303   7.648  1.00  0.00     0.084 C 
HETATM   17  C   UNL     1      46.225 -10.667   7.610  1.00  0.00     0.025 C 
HETATM   18  C   UNL     1      46.256  -9.180   7.956  1.00  0.00     0.002 C 
HETATM   19  C   UNL     1      45.508  -8.865   9.244  1.00  0.00     0.000 C 
HETATM   20  C   UNL     1      44.089  -9.417   9.202  1.00  0.00     0.002 C 
HETATM   21  C   UNL     1      44.091 -10.922   8.944  1.00  0.00     0.025 C 
ENDBRANCH  13  16
ENDBRANCH   4  12
ENDBRANCH   2   4
BRANCH   2  22
HETATM   22  C   UNL     1      40.040 -13.112   4.636  1.00  0.00     0.192 C 
BRANCH  22  23
HETATM   23  C   UNL     1      40.490 -14.444   5.124  1.00  0.00     0.070 A 
HETATM   24  O   UNL     1      40.403 -14.673   6.465  1.00  0.00    -0.325 OA
HETATM   25  C   UNL     1      40.982 -15.883   6.694  1.00  0.00     0.142 A 
HETATM   26  C   UNL     1      41.405 -16.448   5.515  1.00  0.00     0.027 A 
HETATM   27  C   UNL     1      41.094 -15.517   4.499  1.00  0.00     0.036 A 
ENDBRANCH  22  23
ENDBRANCH   2  22
BRANCH   1  28
HETATM   28  C   UNL     1      40.540 -10.317   7.204  1.00  0.00     0.112 C 
BRANCH  28  29
HETATM   29  C   UNL     1      39.474  -9.297   7.537  1.00  0.00     0.112 C 
BRANCH  29  30
HETATM   30  C   UNL     1      39.326  -9.110   9.033  1.00  0.00     0.223 C 
HETATM   31  N   UNL     1      40.271  -9.814   9.750  1.00  0.00    -0.310 N 
HETATM   32  H   UNL     1      40.907 -10.441   9.274  1.00  0.00     0.170 HD
HETATM   33  O   UNL     1      38.442  -8.383   9.469  1.00  0.00    -0.273 OA
BRANCH  31  34
HETATM   34  C   UNL     1      40.386  -9.782  11.126  1.00  0.00     0.160 A 
HETATM   35  N   UNL     1      39.600 -10.418  11.996  1.00  0.00    -0.110 NA
HETATM   36  O   UNL     1      40.078 -10.106  13.252  1.00  0.00    -0.216 OA
HETATM   37  C   UNL     1      41.144  -9.276  13.133  1.00  0.00     0.078 A 
HETATM   38  C   UNL     1      41.784  -8.840  14.386  1.00  0.00     0.079 C 
HETATM   39  C   UNL     1      41.383  -9.041  11.803  1.00  0.00     0.087 A 
ENDBRANCH  31  34
ENDBRANCH  29  30
ENDBRANCH  28  29
ENDBRANCH   1  28
TORSDOF 9
ENDMDL
MODEL 3
REMARK VINA RESULT:      -8.2      2.448      6.505
REMARK  9 active torsions:
REMARK  status: ('A' for Active; 'I' for Inactive)
REMARK    1  A    between atoms: C_5  and  N_6 
REMARK       I    between atoms: N_6  and  C_7 
REMARK    2  A    between atoms: C_7  and  C_8 
REMARK    3  A    between atoms: C_8  and  C_9 
REMARK    4  A    between atoms: C_9  and  C_10 
REMARK       I    between atoms: C_10  and  N_11 
REMARK    5  A    between atoms: N_11  and  C_12 
REMARK    6  A    between atoms: N_11  and  C_29 
REMARK    7  A    between atoms: C_12  and  C_13 
REMARK       I    between atoms: C_13  and  N_14 
REMARK    8  A    between atoms: N_14  and  C_15 
REMARK    9  A    between atoms: C_29  and  C_30 
ROOT
HETATM    1  C   UNL     1      42.222 -12.593   2.694  1.00  0.00     0.221 C 
HETATM    2  N   UNL     1      41.614 -11.904   3.751  1.00  0.00    -0.328 N 
HETATM    3  O   UNL     1      43.268 -12.170   2.182  1.00  0.00    -0.273 OA
ENDROOT
BRANCH   2   4
HETATM    4  C   UNL     1      40.249 -12.180   4.396  1.00  0.00     0.119 C 
HETATM    5  C   UNL     1      39.138 -12.637   3.400  1.00  0.00     0.069 C 
HETATM    6  C   UNL     1      38.846 -11.605   2.339  1.00  0.00     0.237 C 
HETATM    7  N   UNL     1      38.258 -10.398   3.018  1.00  0.00    -0.075 N 
HETATM    8  H   UNL     1      37.383 -10.698   3.477  1.00  0.00     0.279 HD
HETATM    9  C   UNL     1      37.849  -9.355   2.008  1.00  0.00     0.269 C 
HETATM   10  C   UNL     1      39.157  -9.834   4.084  1.00  0.00     0.237 C 
HETATM   11  C   UNL     1      39.606 -10.918   5.073  1.00  0.00     0.069 C 
BRANCH   4  12
HETATM   12  C   UNL     1      40.293 -13.255   5.537  1.00  0.00     0.246 C 
HETATM   13  N   UNL     1      41.442 -13.993   5.695  1.00  0.00    -0.354 N 
HETATM   14  H   UNL     1      42.230 -13.836   5.072  1.00  0.00     0.162 HD
HETATM   15  O   UNL     1      39.390 -13.284   6.375  1.00  0.00    -0.271 OA
BRANCH  13  16
HETATM   16  C   UNL     1      41.687 -14.771   6.921  1.00  0.00     0.084 C 
HETATM   17  C   UNL     1      41.327 -16.265   6.802  1.00  0.00     0.025 C 
HETATM   18  C   UNL     1      42.368 -17.112   6.073  1.00  0.00     0.002 C 
HETATM   19  C   UNL     1      43.776 -16.893   6.608  1.00  0.00     0.000 C 
HETATM   20  C   UNL     1      44.137 -15.413   6.611  1.00  0.00     0.002 C 
HETATM   21  C   UNL     1      43.129 -14.602   7.422  1.00  0.00     0.025 C 
ENDBRANCH  13  16
ENDBRANCH   4  12
ENDBRANCH   2   4
BRANCH   2  22
HETATM   22  C   UNL     1      42.449 -10.767   4.218  1.00  0.00     0.192 C 
BRANCH  22  23
HETATM   23  C   UNL     1      43.336 -11.117   5.359  1.00  0.00     0.070 A 
HETATM   24  O   UNL     1      42.812 -10.988   6.611  1.00  0.00    -0.325 OA
HETATM   25  C   UNL     1      43.825 -11.233   7.487  1.00  0.00     0.142 A 
HETATM   26  C   UNL     1      44.980 -11.553   6.814  1.00  0.00     0.027 A 
HETATM   27  C   UNL     1      44.668 -11.473   5.439  1.00  0.00     0.036 A 
ENDBRANCH  22  23
ENDBRANCH   2  22
BRANCH   1  28
HETATM   28  C   UNL     1      41.740 -13.925   2.174  1.00  0.00     0.112 C 
BRANCH  28  29
HETATM   29  C   UNL     1      42.914 -14.861   1.982  1.00  0.00     0.112 C 
BRANCH  29  30
HETATM   30  C   UNL     1      42.590 -16.266   2.448  1.00  0.00     0.223 C 
HETATM   31  N   UNL     1      43.632 -17.146   2.239  1.00  0.00    -0.310 N 
HETATM   32  H   UNL     1      44.459 -16.845   1.740  1.00  0.00     0.170 HD
HETATM   33  O   UNL     1      41.501 -16.501   2.956  1.00  0.00    -0.273 OA
BRANCH  31  34
HETATM   34  C   UNL     1      43.614 -18.476   2.612  1.00  0.00     0.160 A 
HETATM   35  N   UNL     1      43.132 -19.489   1.890  1.00  0.00    -0.110 NA
HETATM   36  O   UNL     1      43.321 -20.628   2.646  1.00  0.00    -0.216 OA
HETATM   37  C   UNL     1      43.907 -20.295   3.822  1.00  0.00     0.078 A 
HETATM   38  C   UNL     1      44.185 -21.398   4.757  1.00  0.00     0.079 C 
HETATM   39  C   UNL     1      44.116 -18.939   3.851  1.00  0.00     0.087 A 
ENDBRANCH  31  34
ENDBRANCH  29  30
ENDBRANCH  28  29
ENDBRANCH   1  28
TORSDOF 9
ENDMDL
MODEL 4
REMARK VINA RESULT:      -7.9      2.553      7.349
REMARK  9 active torsions:
REMARK  status: ('A' for Active; 'I' for Inactive)
REMARK    1  A    between atoms: C_5  and  N_6 
REMARK       I    between atoms: N_6  and  C_7 
REMARK    2  A    between atoms: C_7  and  C_8 
REMARK    3  A    between atoms: C_8  and  C_9 
REMARK    4  A    between atoms: C_9  and  C_10 
REMARK       I    between atoms: C_10  and  N_11 
REMARK    5  A    between atoms: N_11  and  C_12 
REMARK    6  A    between atoms: N_11  and  C_29 
REMARK    7  A    between atoms: C_12  and  C_13 
REMARK       I    between atoms: C_13  and  N_14 
REMARK    8  A    between atoms: N_14  and  C_15 
REMARK    9  A    between atoms: C_29  and  C_30 
ROOT
HETATM    1  C   UNL     1      40.151 -12.430   5.354  1.00  0.00     0.221 C 
HETATM    2  N   UNL     1      40.497 -11.073   5.350  1.00  0.00    -0.328 N 
HETATM    3  O   UNL     1      39.116 -12.817   5.914  1.00  0.00    -0.273 OA
ENDROOT
BRANCH   2   4
HETATM    4  C   UNL     1      41.802 -10.433   4.857  1.00  0.00     0.119 C 
HETATM    5  C   UNL     1      41.805  -8.872   4.864  1.00  0.00     0.069 C 
HETATM    6  C   UNL     1      40.741  -8.282   3.972  1.00  0.00     0.237 C 
HETATM    7  N   UNL     1      41.076  -8.644   2.550  1.00  0.00    -0.075 N 
HETATM    8  H   UNL     1      41.996  -8.228   2.335  1.00  0.00     0.279 HD
HETATM    9  C   UNL     1      40.106  -8.008   1.587  1.00  0.00     0.269 C 
HETATM   10  C   UNL     1      41.192 -10.130   2.340  1.00  0.00     0.237 C 
HETATM   11  C   UNL     1      42.142 -10.770   3.362  1.00  0.00     0.069 C 
BRANCH   4  12
HETATM   12  C   UNL     1      43.072 -10.883   5.657  1.00  0.00     0.246 C 
HETATM   13  N   UNL     1      43.223 -10.434   6.948  1.00  0.00    -0.354 N 
HETATM   14  H   UNL     1      42.522  -9.819   7.352  1.00  0.00     0.162 HD
HETATM   15  O   UNL     1      43.797 -11.766   5.195  1.00  0.00    -0.271 OA
BRANCH  13  16
HETATM   16  C   UNL     1      44.191 -11.058   7.866  1.00  0.00     0.084 C 
HETATM   17  C   UNL     1      45.659 -10.673   7.593  1.00  0.00     0.025 C 
HETATM   18  C   UNL     1      46.062  -9.299   8.125  1.00  0.00     0.002 C 
HETATM   19  C   UNL     1      45.667  -9.099   9.582  1.00  0.00     0.000 C 
HETATM   20  C   UNL     1      44.187  -9.387   9.793  1.00  0.00     0.002 C 
HETATM   21  C   UNL     1      43.829 -10.800   9.335  1.00  0.00     0.025 C 
ENDBRANCH  13  16
ENDBRANCH   4  12
ENDBRANCH   2   4
BRANCH   2  22
HETATM   22  C   UNL     1      39.425 -10.231   5.944  1.00  0.00     0.192 C 
BRANCH  22  23
HETATM   23  C   UNL     1      39.570 -10.043   7.412  1.00  0.00     0.070 A 
HETATM   24  O   UNL     1      38.708 -10.733   8.212  1.00  0.00    -0.325 OA
HETATM   25  C   UNL     1      38.934 -10.313   9.486  1.00  0.00     0.142 A 
HETATM   26  C   UNL     1      39.954  -9.392   9.518  1.00  0.00     0.027 A 
HETATM   27  C   UNL     1      40.362  -9.211   8.178  1.00  0.00     0.036 A 
ENDBRANCH  22  23
ENDBRANCH   2  22
BRANCH   1  28
HETATM   28  C   UNL     1      40.918 -13.493   4.606  1.00  0.00     0.112 C 
BRANCH  28  29
HETATM   29  C   UNL     1      41.679 -14.364   5.581  1.00  0.00     0.112 C 
BRANCH  29  30
HETATM   30  C   UNL     1      41.789 -15.792   5.088  1.00  0.00     0.223 C 
HETATM   31  N   UNL     1      43.073 -16.123   4.707  1.00  0.00    -0.310 N 
HETATM   32  H   UNL     1      43.798 -15.416   4.694  1.00  0.00     0.170 HD
HETATM   33  O   UNL     1      40.796 -16.508   5.076  1.00  0.00    -0.273 OA
BRANCH  31  34
HETATM   34  C   UNL     1      43.455 -17.373   4.261  1.00  0.00     0.160 A 
HETATM   35  N   UNL     1      44.178 -18.264   4.940  1.00  0.00    -0.110 NA
HETATM   36  O   UNL     1      44.315 -19.363   4.116  1.00  0.00    -0.216 OA
HETATM   37  C   UNL     1      43.681 -19.125   2.941  1.00  0.00     0.078 A 
HETATM   38  C   UNL     1      43.726 -20.201   1.937  1.00  0.00     0.079 C 
HETATM   39  C   UNL     1      43.116 -17.875   2.982  1.00  0.00     0.087 A 
ENDBRANCH  31  34
ENDBRANCH  29  30
ENDBRANCH  28  29
ENDBRANCH   1  28
TORSDOF 9
ENDMDL
MODEL 5
REMARK VINA RESULT:      -7.9      1.984      4.074
REMARK  9 active torsions:
REMARK  status: ('A' for Active; 'I' for Inactive)
REMARK    1  A    between atoms: C_5  and  N_6 
REMARK       I    between atoms: N_6  and  C_7 
REMARK    2  A    between atoms: C_7  and  C_8 
REMARK    3  A    between atoms: C_8  and  C_9 
REMARK    4  A    between atoms: C_9  and  C_10 
REMARK       I    between atoms: C_10  and  N_11 
REMARK    5  A    between atoms: N_11  and  C_12 
REMARK    6  A    between atoms: N_11  and  C_29 
REMARK    7  A    between atoms: C_12  and  C_13 
REMARK       I    between atoms: C_13  and  N_14 
REMARK    8  A    between atoms: N_14  and  C_15 
REMARK    9  A    between atoms: C_29  and  C_30 
ROOT
HETATM    1  C   UNL     1      43.677 -12.602   6.389  1.00  0.00     0.221 C 
HETATM    2  N   UNL     1      42.449 -12.725   5.728  1.00  0.00    -0.328 N 
HETATM    3  O   UNL     1      44.053 -13.469   7.191  1.00  0.00    -0.273 OA
ENDROOT
BRANCH   2   4
HETATM    4  C   UNL     1      41.750 -11.689   4.837  1.00  0.00     0.119 C 
HETATM    5  C   UNL     1      41.967 -10.205   5.268  1.00  0.00     0.069 C 
HETATM    6  C   UNL     1      41.443  -9.917   6.653  1.00  0.00     0.237 C 
HETATM    7  N   UNL     1      39.947 -10.077   6.624  1.00  0.00    -0.075 N 
HETATM    8  H   UNL     1      39.577  -9.388   5.951  1.00  0.00     0.279 HD
HETATM    9  C   UNL     1      39.339  -9.712   7.955  1.00  0.00     0.269 C 
HETATM   10  C   UNL     1      39.516 -11.441   6.158  1.00  0.00     0.237 C 
HETATM   11  C   UNL     1      40.185 -11.819   4.830  1.00  0.00     0.069 C 
BRANCH   4  12
HETATM   12  C   UNL     1      42.155 -11.776   3.325  1.00  0.00     0.246 C 
HETATM   13  N   UNL     1      41.279 -12.373   2.448  1.00  0.00    -0.354 N 
HETATM   14  H   UNL     1      40.400 -12.749   2.793  1.00  0.00     0.162 HD
HETATM   15  O   UNL     1      43.139 -11.152   2.925  1.00  0.00    -0.271 OA
BRANCH  13  16
HETATM   16  C   UNL     1      41.424 -12.206   0.992  1.00  0.00     0.084 C 
HETATM   17  C   UNL     1      41.194 -13.497   0.182  1.00  0.00     0.025 C 
HETATM   18  C   UNL     1      39.725 -13.865  -0.020  1.00  0.00     0.002 C 
HETATM   19  C   UNL     1      38.898 -12.697  -0.538  1.00  0.00     0.000 C 
HETATM   20  C   UNL     1      39.067 -11.470   0.348  1.00  0.00     0.002 C 
HETATM   21  C   UNL     1      40.537 -11.070   0.460  1.00  0.00     0.025 C 
ENDBRANCH  13  16
ENDBRANCH   4  12
ENDBRANCH   2   4
BRANCH   2  22
HETATM   22  C   UNL     1      41.804 -14.034   6.006  1.00  0.00     0.192 C 
BRANCH  22  23
HETATM   23  C   UNL     1      41.833 -14.963   4.844  1.00  0.00     0.070 A 
HETATM   24  O   UNL     1      43.039 -15.162   4.242  1.00  0.00    -0.325 OA
HETATM   25  C   UNL     1      42.807 -15.931   3.143  1.00  0.00     0.142 A 
HETATM   26  C   UNL     1      41.475 -16.258   3.055  1.00  0.00     0.027 A 
HETATM   27  C   UNL     1      40.842 -15.628   4.149  1.00  0.00     0.036 A 
ENDBRANCH  22  23
ENDBRANCH   2  22
BRANCH   1  28
HETATM   28  C   UNL     1      44.672 -11.501   6.114  1.00  0.00     0.112 C 
BRANCH  28  29
HETATM   29  C   UNL     1      45.548 -11.280   7.327  1.00  0.00     0.112 C 
BRANCH  29  30
HETATM   30  C   UNL     1      45.017 -10.165   8.205  1.00  0.00     0.223 C 
HETATM   31  N   UNL     1      44.122 -10.618   9.152  1.00  0.00    -0.310 N 
HETATM   32  H   UNL     1      43.823 -11.585   9.148  1.00  0.00     0.170 HD
HETATM   33  O   UNL     1      45.406  -9.017   8.030  1.00  0.00    -0.273 OA
BRANCH  31  34
HETATM   34  C   UNL     1      43.524  -9.815  10.104  1.00  0.00     0.160 A 
HETATM   35  N   UNL     1      42.280  -9.336  10.061  1.00  0.00    -0.110 NA
HETATM   36  O   UNL     1      42.110  -8.592  11.211  1.00  0.00    -0.216 OA
HETATM   37  C   UNL     1      43.255  -8.620  11.937  1.00  0.00     0.078 A 
HETATM   38  C   UNL     1      43.250  -7.873  13.206  1.00  0.00     0.079 C 
HETATM   39  C   UNL     1      44.185  -9.385  11.279  1.00  0.00     0.087 A 
ENDBRANCH  31  34
ENDBRANCH  29  30
ENDBRANCH  28  29
ENDBRANCH   1  28
TORSDOF 9
ENDMDL
MODEL 6
REMARK VINA RESULT:      -7.9      2.369      4.892
REMARK  9 active torsions:
REMARK  status: ('A' for Active; 'I' for Inactive)
REMARK    1  A    between atoms: C_5  and  N_6 
REMARK       I    between atoms: N_6  and  C_7 
REMARK    2  A    between atoms: C_7  and  C_8 
REMARK    3  A    between atoms: C_8  and  C_9 
REMARK    4  A    between atoms: C_9  and  C_10 
REMARK       I    between atoms: C_10  and  N_11 
REMARK    5  A    between atoms: N_11  and  C_12 
REMARK    6  A    between atoms: N_11  and  C_29 
REMARK    7  A    between atoms: C_12  and  C_13 
REMARK       I    between atoms: C_13  and  N_14 
REMARK    8  A    between atoms: N_14  and  C_15 
REMARK    9  A    between atoms: C_29  and  C_30 
ROOT
HETATM    1  C   UNL     1      40.645 -13.058   5.994  1.00  0.00     0.221 C 
HETATM    2  N   UNL     1      42.041 -13.114   6.096  1.00  0.00    -0.328 N 
HETATM    3  O   UNL     1      39.936 -13.915   6.540  1.00  0.00    -0.273 OA
ENDROOT
BRANCH   2   4
HETATM    4  C   UNL     1      43.076 -12.250   5.363  1.00  0.00     0.119 C 
HETATM    5  C   UNL     1      44.511 -12.293   5.976  1.00  0.00     0.069 C 
HETATM    6  C   UNL     1      44.554 -11.797   7.400  1.00  0.00     0.237 C 
HETATM    7  N   UNL     1      44.202 -10.334   7.390  1.00  0.00    -0.075 N 
HETATM    8  H   UNL     1      44.914  -9.850   6.821  1.00  0.00     0.279 HD
HETATM    9  C   UNL     1      44.315  -9.741   8.772  1.00  0.00     0.269 C 
HETATM   10  C   UNL     1      42.861 -10.062   6.764  1.00  0.00     0.237 C 
HETATM   11  C   UNL     1      42.742 -10.716   5.381  1.00  0.00     0.069 C 
BRANCH   4  12
HETATM   12  C   UNL     1      43.232 -12.597   3.843  1.00  0.00     0.246 C 
HETATM   13  N   UNL     1      42.789 -13.824   3.405  1.00  0.00    -0.354 N 
HETATM   14  H   UNL     1      42.382 -14.478   4.069  1.00  0.00     0.162 HD
HETATM   15  O   UNL     1      43.561 -11.713   3.050  1.00  0.00    -0.271 OA
BRANCH  13  16
HETATM   16  C   UNL     1      42.594 -14.098   1.972  1.00  0.00     0.084 C 
HETATM   17  C   UNL     1      42.699 -15.589   1.594  1.00  0.00     0.025 C 
HETATM   18  C   UNL     1      41.450 -16.411   1.907  1.00  0.00     0.002 C 
HETATM   19  C   UNL     1      40.178 -15.764   1.377  1.00  0.00     0.000 C 
HETATM   20  C   UNL     1      40.055 -14.324   1.858  1.00  0.00     0.002 C 
HETATM   21  C   UNL     1      41.277 -13.502   1.453  1.00  0.00     0.025 C 
ENDBRANCH  13  16
ENDBRANCH   4  12
ENDBRANCH   2   4
BRANCH   2  22
HETATM   22  C   UNL     1      42.481 -14.189   7.023  1.00  0.00     0.192 C 
BRANCH  22  23
HETATM   23  C   UNL     1      42.871 -15.444   6.325  1.00  0.00     0.070 A 
HETATM   24  O   UNL     1      44.203 -15.723   6.252  1.00  0.00    -0.325 OA
HETATM   25  C   UNL     1      44.330 -16.830   5.471  1.00  0.00     0.142 A 
HETATM   26  C   UNL     1      43.095 -17.286   5.074  1.00  0.00     0.027 A 
HETATM   27  C   UNL     1      42.151 -16.388   5.620  1.00  0.00     0.036 A 
ENDBRANCH  22  23
ENDBRANCH   2  22
BRANCH   1  28
HETATM   28  C   UNL     1      39.898 -11.929   5.327  1.00  0.00     0.112 C 
BRANCH  28  29
HETATM   29  C   UNL     1      38.795 -11.432   6.236  1.00  0.00     0.112 C 
BRANCH  29  30
HETATM   30  C   UNL     1      39.214 -10.189   6.995  1.00  0.00     0.223 C 
HETATM   31  N   UNL     1      39.272 -10.396   8.358  1.00  0.00    -0.310 N 
HETATM   32  H   UNL     1      38.966 -11.276   8.752  1.00  0.00     0.170 HD
HETATM   33  O   UNL     1      39.467  -9.160   6.381  1.00  0.00    -0.273 OA
BRANCH  31  34
HETATM   34  C   UNL     1      39.668  -9.440   9.273  1.00  0.00     0.160 A 
HETATM   35  N   UNL     1      40.887  -9.310   9.797  1.00  0.00    -0.110 NA
HETATM   36  O   UNL     1      40.828  -8.231  10.655  1.00  0.00    -0.216 OA
HETATM   37  C   UNL     1      39.571  -7.722  10.650  1.00  0.00     0.078 A 
HETATM   38  C   UNL     1      39.328  -6.555  11.516  1.00  0.00     0.079 C 
HETATM   39  C   UNL     1      38.794  -8.453   9.787  1.00  0.00     0.087 A 
ENDBRANCH  31  34
ENDBRANCH  29  30
ENDBRANCH  28  29
ENDBRANCH   1  28
TORSDOF 9
ENDMDL
MODEL 7
REMARK VINA RESULT:      -7.8      2.712      7.673
REMARK  9 active torsions:
REMARK  status: ('A' for Active; 'I' for Inactive)
REMARK    1  A    between atoms: C_5  and  N_6 
REMARK       I    between atoms: N_6  and  C_7 
REMARK    2  A    between atoms: C_7  and  C_8 
REMARK    3  A    between atoms: C_8  and  C_9 
REMARK    4  A    between atoms: C_9  and  C_10 
REMARK       I    between atoms: C_10  and  N_11 
REMARK    5  A    between atoms: N_11  and  C_12 
REMARK    6  A    between atoms: N_11  and  C_29 
REMARK    7  A    between atoms: C_12  and  C_13 
REMARK       I    between atoms: C_13  and  N_14 
REMARK    8  A    between atoms: N_14  and  C_15 
REMARK    9  A    between atoms: C_29  and  C_30 
ROOT
HETATM    1  C   UNL     1      41.801 -12.557   5.854  1.00  0.00     0.221 C 
HETATM    2  N   UNL     1      41.641 -11.177   6.030  1.00  0.00    -0.328 N 
HETATM    3  O   UNL     1      42.930 -13.053   5.733  1.00  0.00    -0.273 OA
ENDROOT
BRANCH   2   4
HETATM    4  C   UNL     1      40.335 -10.371   6.034  1.00  0.00     0.119 C 
HETATM    5  C   UNL     1      39.322 -10.765   4.914  1.00  0.00     0.069 C 
HETATM    6  C   UNL     1      39.879 -10.563   3.527  1.00  0.00     0.237 C 
HETATM    7  N   UNL     1      40.094  -9.087   3.325  1.00  0.00    -0.075 N 
HETATM    8  H   UNL     1      39.174  -8.628   3.413  1.00  0.00     0.279 HD
HETATM    9  C   UNL     1      40.563  -8.795   1.922  1.00  0.00     0.269 C 
HETATM   10  C   UNL     1      41.002  -8.485   4.363  1.00  0.00     0.237 C 
HETATM   11  C   UNL     1      40.542  -8.835   5.785  1.00  0.00     0.069 C 
BRANCH   4  12
HETATM   12  C   UNL     1      39.548 -10.444   7.389  1.00  0.00     0.246 C 
HETATM   13  N   UNL     1      39.967  -9.648   8.429  1.00  0.00    -0.354 N 
HETATM   14  H   UNL     1      40.773  -9.040   8.306  1.00  0.00     0.162 HD
HETATM   15  O   UNL     1      38.478 -11.053   7.436  1.00  0.00    -0.271 OA
BRANCH  13  16
HETATM   16  C   UNL     1      39.107  -9.409   9.601  1.00  0.00     0.084 C 
HETATM   17  C   UNL     1      39.542 -10.172  10.868  1.00  0.00     0.025 C 
HETATM   18  C   UNL     1      40.714  -9.541  11.617  1.00  0.00     0.002 C 
HETATM   19  C   UNL     1      40.510  -8.054  11.873  1.00  0.00     0.000 C 
HETATM   20  C   UNL     1      40.187  -7.315  10.581  1.00  0.00     0.002 C 
HETATM   21  C   UNL     1      38.956  -7.910   9.899  1.00  0.00     0.025 C 
ENDBRANCH  13  16
ENDBRANCH   4  12
ENDBRANCH   2   4
BRANCH   2  22
HETATM   22  C   UNL     1      42.948 -10.489   6.194  1.00  0.00     0.192 C 
BRANCH  22  23
HETATM   23  C   UNL     1      43.332 -10.286   7.617  1.00  0.00     0.070 A 
HETATM   24  O   UNL     1      42.957  -9.110   8.196  1.00  0.00    -0.325 OA
HETATM   25  C   UNL     1      43.519  -9.087   9.436  1.00  0.00     0.142 A 
HETATM   26  C   UNL     1      44.217 -10.248   9.672  1.00  0.00     0.027 A 
HETATM   27  C   UNL     1      44.103 -11.021   8.495  1.00  0.00     0.036 A 
ENDBRANCH  22  23
ENDBRANCH   2  22
BRANCH   1  28
HETATM   28  C   UNL     1      40.663 -13.547   5.904  1.00  0.00     0.112 C 
BRANCH  28  29
HETATM   29  C   UNL     1      40.461 -14.174   4.543  1.00  0.00     0.112 C 
BRANCH  29  30
HETATM   30  C   UNL     1      40.984 -15.595   4.498  1.00  0.00     0.223 C 
HETATM   31  N   UNL     1      42.132 -15.712   3.742  1.00  0.00    -0.310 N 
HETATM   32  H   UNL     1      42.483 -14.918   3.223  1.00  0.00     0.170 HD
HETATM   33  O   UNL     1      40.395 -16.478   5.109  1.00  0.00    -0.273 OA
BRANCH  31  34
HETATM   34  C   UNL     1      42.836 -16.889   3.575  1.00  0.00     0.160 A 
HETATM   35  N   UNL     1      43.846 -17.317   4.333  1.00  0.00    -0.110 NA
HETATM   36  O   UNL     1      44.242 -18.530   3.806  1.00  0.00    -0.216 OA
HETATM   37  C   UNL     1      43.474 -18.822   2.727  1.00  0.00     0.078 A 
HETATM   38  C   UNL     1      43.761 -20.091   2.037  1.00  0.00     0.079 C 
HETATM   39  C   UNL     1      42.564 -17.813   2.538  1.00  0.00     0.087 A 
ENDBRANCH  31  34
ENDBRANCH  29  30
ENDBRANCH  28  29
ENDBRANCH   1  28
TORSDOF 9
ENDMDL
MODEL 8
REMARK VINA RESULT:      -7.4      2.516      5.734
REMARK  9 active torsions:
REMARK  status: ('A' for Active; 'I' for Inactive)
REMARK    1  A    between atoms: C_5  and  N_6 
REMARK       I    between atoms: N_6  and  C_7 
REMARK    2  A    between atoms: C_7  and  C_8 
REMARK    3  A    between atoms: C_8  and  C_9 
REMARK    4  A    between atoms: C_9  and  C_10 
REMARK       I    between atoms: C_10  and  N_11 
REMARK    5  A    between atoms: N_11  and  C_12 
REMARK    6  A    between atoms: N_11  and  C_29 
REMARK    7  A    between atoms: C_12  and  C_13 
REMARK       I    between atoms: C_13  and  N_14 
REMARK    8  A    between atoms: N_14  and  C_15 
REMARK    9  A    between atoms: C_29  and  C_30 
ROOT
HETATM    1  C   UNL     1      41.452 -13.291   4.856  1.00  0.00     0.221 C 
HETATM    2  N   UNL     1      41.251 -14.479   4.141  1.00  0.00    -0.328 N 
HETATM    3  O   UNL     1      41.319 -13.263   6.087  1.00  0.00    -0.273 OA
ENDROOT
BRANCH   2   4
HETATM    4  C   UNL     1      41.211 -14.670   2.619  1.00  0.00     0.119 C 
HETATM    5  C   UNL     1      40.699 -16.068   2.151  1.00  0.00     0.069 C 
HETATM    6  C   UNL     1      41.564 -17.201   2.645  1.00  0.00     0.237 C 
HETATM    7  N   UNL     1      42.916 -17.067   1.996  1.00  0.00    -0.075 N 
HETATM    8  H   UNL     1      42.776 -17.141   0.976  1.00  0.00     0.279 HD
HETATM    9  C   UNL     1      43.811 -18.223   2.368  1.00  0.00     0.269 C 
HETATM   10  C   UNL     1      43.563 -15.737   2.269  1.00  0.00     0.237 C 
HETATM   11  C   UNL     1      42.620 -14.573   1.935  1.00  0.00     0.069 C 
BRANCH   4  12
HETATM   12  C   UNL     1      40.339 -13.604   1.869  1.00  0.00     0.246 C 
HETATM   13  N   UNL     1      40.775 -13.147   0.647  1.00  0.00    -0.354 N 
HETATM   14  H   UNL     1      41.648 -13.498   0.261  1.00  0.00     0.162 HD
HETATM   15  O   UNL     1      39.209 -13.344   2.286  1.00  0.00    -0.271 OA
BRANCH  13  16
HETATM   16  C   UNL     1      39.876 -12.414  -0.259  1.00  0.00     0.084 C 
HETATM   17  C   UNL     1      40.538 -11.221  -0.977  1.00  0.00     0.025 C 
HETATM   18  C   UNL     1      41.407 -11.604  -2.173  1.00  0.00     0.002 C 
HETATM   19  C   UNL     1      40.692 -12.541  -3.137  1.00  0.00     0.000 C 
HETATM   20  C   UNL     1      40.143 -13.761  -2.409  1.00  0.00     0.002 C 
HETATM   21  C   UNL     1      39.206 -13.350  -1.275  1.00  0.00     0.025 C 
ENDBRANCH  13  16
ENDBRANCH   4  12
ENDBRANCH   2   4
BRANCH   2  22
HETATM   22  C   UNL     1      41.028 -15.634   5.049  1.00  0.00     0.192 C 
BRANCH  22  23
HETATM   23  C   UNL     1      42.231 -15.996   5.847  1.00  0.00     0.070 A 
HETATM   24  O   UNL     1      43.416 -16.072   5.179  1.00  0.00    -0.325 OA
HETATM   25  C   UNL     1      44.337 -16.538   6.066  1.00  0.00     0.142 A 
HETATM   26  C   UNL     1      43.766 -16.726   7.302  1.00  0.00     0.027 A 
HETATM   27  C   UNL     1      42.403 -16.383   7.162  1.00  0.00     0.036 A 
ENDBRANCH  22  23
ENDBRANCH   2  22
BRANCH   1  28
HETATM   28  C   UNL     1      41.940 -12.008   4.229  1.00  0.00     0.112 C 
BRANCH  28  29
HETATM   29  C   UNL     1      43.439 -12.065   4.034  1.00  0.00     0.112 C 
BRANCH  29  30
HETATM   30  C   UNL     1      44.180 -11.483   5.220  1.00  0.00     0.223 C 
HETATM   31  N   UNL     1      43.387 -11.388   6.345  1.00  0.00    -0.310 N 
HETATM   32  H   UNL     1      42.401 -11.611   6.292  1.00  0.00     0.170 HD
HETATM   33  O   UNL     1      45.359 -11.172   5.105  1.00  0.00    -0.273 OA
BRANCH  31  34
HETATM   34  C   UNL     1      43.829 -10.932   7.571  1.00  0.00     0.160 A 
HETATM   35  N   UNL     1      44.811 -11.463   8.301  1.00  0.00    -0.110 NA
HETATM   36  O   UNL     1      44.910 -10.690   9.440  1.00  0.00    -0.216 OA
HETATM   37  C   UNL     1      43.981  -9.703   9.396  1.00  0.00     0.078 A 
HETATM   38  C   UNL     1      43.947  -8.777  10.540  1.00  0.00     0.079 C 
HETATM   39  C   UNL     1      43.269  -9.811   8.228  1.00  0.00     0.087 A 
ENDBRANCH  31  34
ENDBRANCH  29  30
ENDBRANCH  28  29
ENDBRANCH   1  28
TORSDOF 9
ENDMDL
MODEL 9
REMARK VINA RESULT:      -7.3      3.125      7.355
REMARK  9 active torsions:
REMARK  status: ('A' for Active; 'I' for Inactive)
REMARK    1  A    between atoms: C_5  and  N_6 
REMARK       I    between atoms: N_6  and  C_7 
REMARK    2  A    between atoms: C_7  and  C_8 
REMARK    3  A    between atoms: C_8  and  C_9 
REMARK    4  A    between atoms: C_9  and  C_10 
REMARK       I    between atoms: C_10  and  N_11 
REMARK    5  A    between atoms: N_11  and  C_12 
REMARK    6  A    between atoms: N_11  and  C_29 
REMARK    7  A    between atoms: C_12  and  C_13 
REMARK       I    between atoms: C_13  and  N_14 
REMARK    8  A    between atoms: N_14  and  C_15 
REMARK    9  A    between atoms: C_29  and  C_30 
ROOT
HETATM    1  C   UNL     1      42.469 -11.087   3.129  1.00  0.00     0.221 C 
HETATM    2  N   UNL     1      41.564 -11.198   4.191  1.00  0.00    -0.328 N 
HETATM    3  O   UNL     1      43.639 -10.733   3.329  1.00  0.00    -0.273 OA
ENDROOT
BRANCH   2   4
HETATM    4  C   UNL     1      40.053 -11.461   4.121  1.00  0.00     0.119 C 
HETATM    5  C   UNL     1      39.223 -10.318   3.456  1.00  0.00     0.069 C 
HETATM    6  C   UNL     1      39.339  -9.008   4.194  1.00  0.00     0.237 C 
HETATM    7  N   UNL     1      38.705  -9.182   5.548  1.00  0.00    -0.075 N 
HETATM    8  H   UNL     1      37.713  -9.421   5.395  1.00  0.00     0.279 HD
HETATM    9  C   UNL     1      38.697  -7.882   6.313  1.00  0.00     0.269 C 
HETATM   10  C   UNL     1      39.324 -10.302   6.340  1.00  0.00     0.237 C 
HETATM   11  C   UNL     1      39.373 -11.604   5.529  1.00  0.00     0.069 C 
BRANCH   4  12
HETATM   12  C   UNL     1      39.673 -12.782   3.368  1.00  0.00     0.246 C 
HETATM   13  N   UNL     1      40.507 -13.868   3.496  1.00  0.00    -0.354 N 
HETATM   14  H   UNL     1      41.348 -13.794   4.062  1.00  0.00     0.162 HD
HETATM   15  O   UNL     1      38.562 -12.883   2.845  1.00  0.00    -0.271 OA
BRANCH  13  16
HETATM   16  C   UNL     1      40.067 -15.218   3.105  1.00  0.00     0.084 C 
HETATM   17  C   UNL     1      40.376 -15.583   1.639  1.00  0.00     0.025 C 
HETATM   18  C   UNL     1      41.824 -15.996   1.381  1.00  0.00     0.002 C 
HETATM   19  C   UNL     1      42.312 -17.054   2.361  1.00  0.00     0.000 C 
HETATM   20  C   UNL     1      42.087 -16.612   3.801  1.00  0.00     0.002 C 
HETATM   21  C   UNL     1      40.615 -16.292   4.056  1.00  0.00     0.025 C 
ENDBRANCH  13  16
ENDBRANCH   4  12
ENDBRANCH   2   4
BRANCH   2  22
HETATM   22  C   UNL     1      42.229 -10.991   5.504  1.00  0.00     0.192 C 
BRANCH  22  23
HETATM   23  C   UNL     1      42.820 -12.235   6.067  1.00  0.00     0.070 A 
HETATM   24  O   UNL     1      42.412 -13.415   5.521  1.00  0.00    -0.325 OA
HETATM   25  C   UNL     1      42.972 -14.406   6.266  1.00  0.00     0.142 A 
HETATM   26  C   UNL     1      43.764 -13.878   7.257  1.00  0.00     0.027 A 
HETATM   27  C   UNL     1      43.662 -12.474   7.135  1.00  0.00     0.036 A 
ENDBRANCH  22  23
ENDBRANCH   2  22
BRANCH   1  28
HETATM   28  C   UNL     1      42.147 -11.482   1.708  1.00  0.00     0.112 C 
BRANCH  28  29
HETATM   29  C   UNL     1      41.639 -10.282   0.939  1.00  0.00     0.112 C 
BRANCH  29  30
HETATM   30  C   UNL     1      40.669 -10.687  -0.152  1.00  0.00     0.223 C 
HETATM   31  N   UNL     1      40.276 -12.005  -0.048  1.00  0.00    -0.310 N 
HETATM   32  H   UNL     1      40.697 -12.608   0.647  1.00  0.00     0.170 HD
HETATM   33  O   UNL     1      40.317  -9.863  -0.986  1.00  0.00    -0.273 OA
BRANCH  31  34
HETATM   34  C   UNL     1      39.366 -12.614  -0.890  1.00  0.00     0.160 A 
HETATM   35  N   UNL     1      38.053 -12.381  -0.930  1.00  0.00    -0.110 NA
HETATM   36  O   UNL     1      37.542 -13.203  -1.914  1.00  0.00    -0.216 OA
HETATM   37  C   UNL     1      38.548 -13.934  -2.456  1.00  0.00     0.078 A 
HETATM   38  C   UNL     1      38.179 -14.870  -3.531  1.00  0.00     0.079 C 
HETATM   39  C   UNL     1      39.728 -13.596  -1.842  1.00  0.00     0.087 A 
ENDBRANCH  31  34
ENDBRANCH  29  30
ENDBRANCH  28  29
ENDBRANCH   1  28
TORSDOF 9
ENDMDL
MODEL 10
REMARK VINA RESULT:      -7.2      4.176      8.157
REMARK  9 active torsions:
REMARK  status: ('A' for Active; 'I' for Inactive)
REMARK    1  A    between atoms: C_5  and  N_6 
REMARK       I    between atoms: N_6  and  C_7 
REMARK    2  A    between atoms: C_7  and  C_8 
REMARK    3  A    between atoms: C_8  and  C_9 
REMARK    4  A    between atoms: C_9  and  C_10 
REMARK       I    between atoms: C_10  and  N_11 
REMARK    5  A    between atoms: N_11  and  C_12 
REMARK    6  A    between atoms: N_11  and  C_29 
REMARK    7  A    between atoms: C_12  and  C_13 
REMARK       I    between atoms: C_13  and  N_14 
REMARK    8  A    between atoms: N_14  and  C_15 
REMARK    9  A    between atoms: C_29  and  C_30 
ROOT
HETATM    1  C   UNL     1      39.614 -12.446   2.590  1.00  0.00     0.221 C 
HETATM    2  N   UNL     1      39.635 -11.062   2.378  1.00  0.00    -0.328 N 
HETATM    3  O   UNL     1      38.627 -12.993   3.103  1.00  0.00    -0.273 OA
ENDROOT
BRANCH   2   4
HETATM    4  C   UNL     1      40.813 -10.196   1.912  1.00  0.00     0.119 C 
HETATM    5  C   UNL     1      42.141 -10.427   2.698  1.00  0.00     0.069 C 
HETATM    6  C   UNL     1      42.011 -10.117   4.169  1.00  0.00     0.237 C 
HETATM    7  N   UNL     1      41.752  -8.642   4.309  1.00  0.00    -0.075 N 
HETATM    8  H   UNL     1      42.565  -8.147   3.910  1.00  0.00     0.279 HD
HETATM    9  C   UNL     1      41.704  -8.237   5.762  1.00  0.00     0.269 C 
HETATM   10  C   UNL     1      40.532  -8.190   3.554  1.00  0.00     0.237 C 
HETATM   11  C   UNL     1      40.572  -8.655   2.092  1.00  0.00     0.069 C 
BRANCH   4  12
HETATM   12  C   UNL     1      41.161 -10.362   0.393  1.00  0.00     0.246 C 
HETATM   13  N   UNL     1      40.323 -11.121  -0.390  1.00  0.00    -0.354 N 
HETATM   14  H   UNL     1      39.507 -11.562   0.028  1.00  0.00     0.162 HD
HETATM   15  O   UNL     1      42.050  -9.668  -0.104  1.00  0.00    -0.271 OA
BRANCH  13  16
HETATM   16  C   UNL     1      40.386 -11.059  -1.860  1.00  0.00     0.084 C 
HETATM   17  C   UNL     1      41.216 -12.187  -2.504  1.00  0.00     0.025 C 
HETATM   18  C   UNL     1      40.490 -13.528  -2.606  1.00  0.00     0.002 C 
HETATM   19  C   UNL     1      39.106 -13.396  -3.224  1.00  0.00     0.000 C 
HETATM   20  C   UNL     1      38.277 -12.347  -2.495  1.00  0.00     0.002 C 
HETATM   21  C   UNL     1      38.986 -10.994  -2.486  1.00  0.00     0.025 C 
ENDBRANCH  13  16
ENDBRANCH   4  12
ENDBRANCH   2   4
BRANCH   2  22
HETATM   22  C   UNL     1      38.324 -10.438   2.697  1.00  0.00     0.192 C 
BRANCH  22  23
HETATM   23  C   UNL     1      37.519 -10.109   1.490  1.00  0.00     0.070 A 
HETATM   24  O   UNL     1      37.296  -8.789   1.237  1.00  0.00    -0.325 OA
HETATM   25  C   UNL     1      36.442  -8.732   0.178  1.00  0.00     0.142 A 
HETATM   26  C   UNL     1      36.145  -9.996  -0.272  1.00  0.00     0.027 A 
HETATM   27  C   UNL     1      36.835 -10.888   0.578  1.00  0.00     0.036 A 
ENDBRANCH  22  23
ENDBRANCH   2  22
BRANCH   1  28
HETATM   28  C   UNL     1      40.704 -13.382   2.128  1.00  0.00     0.112 C 
BRANCH  28  29
HETATM   29  C   UNL     1      41.499 -13.876   3.316  1.00  0.00     0.112 C 
BRANCH  29  30
HETATM   30  C   UNL     1      41.606 -15.388   3.329  1.00  0.00     0.223 C 
HETATM   31  N   UNL     1      42.909 -15.827   3.216  1.00  0.00    -0.310 N 
HETATM   32  H   UNL     1      43.656 -15.165   3.052  1.00  0.00     0.170 HD
HETATM   33  O   UNL     1      40.593 -16.066   3.444  1.00  0.00    -0.273 OA
BRANCH  31  34
HETATM   34  C   UNL     1      43.286 -17.156   3.245  1.00  0.00     0.160 A 
HETATM   35  N   UNL     1      43.905 -17.776   4.250  1.00  0.00    -0.110 NA
HETATM   36  O   UNL     1      44.083 -19.084   3.848  1.00  0.00    -0.216 OA
HETATM   37  C   UNL     1      43.579 -19.243   2.599  1.00  0.00     0.078 A 
HETATM   38  C   UNL     1      43.684 -20.589   2.011  1.00  0.00     0.079 C 
HETATM   39  C   UNL     1      43.059 -18.048   2.171  1.00  0.00     0.087 A 
ENDBRANCH  31  34
ENDBRANCH  29  30
ENDBRANCH  28  29
ENDBRANCH   1  28
TORSDOF 9
ENDMDL
