MODEL 1
REMARK VINA RESULT:      -9.0      0.000      0.000
REMARK  5 active torsions:
REMARK  status: ('A' for Active; 'I' for Inactive)
REMARK    1  A    between atoms: C_5  and  N_6 
REMARK    2  A    between atoms: C_9  and  C_10 
REMARK    3  A    between atoms: C_10  and  N_11 
REMARK       I    between atoms: N_11  and  C_12 
REMARK       I    between atoms: C_12  and  N_13 
REMARK    4  A    between atoms: N_13  and  C_14 
REMARK    5  A    between atoms: C_14  and  C_15 
ROOT
HETATM    1  N   UNL     1      42.729 -15.361   4.782  1.00  0.00    -0.319 N 
HETATM    2  C   UNL     1      42.875 -14.056   4.305  1.00  0.00     0.021 A 
HETATM    3  C   UNL     1      43.198 -13.719   2.885  1.00  0.00     0.069 C 
HETATM    4  C   UNL     1      42.585 -13.171   5.337  1.00  0.00    -0.016 A 
HETATM    5  C   UNL     1      42.208 -13.957   6.453  1.00  0.00     0.035 A 
HETATM    6  C   UNL     1      42.290 -15.287   6.101  1.00  0.00     0.014 A 
HETATM    7  C   UNL     1      42.065 -16.461   6.994  1.00  0.00     0.068 C 
ENDROOT
BRANCH   4   8
HETATM    8  C   UNL     1      42.595 -11.677   5.307  1.00  0.00     0.165 C 
BRANCH   8   9
HETATM    9  N   UNL     1      42.467 -11.213   6.668  1.00  0.00    -0.339 N 
HETATM   10  C   UNL     1      43.581 -10.887   7.390  1.00  0.00     0.316 C 
HETATM   11  N   UNL     1      43.267 -10.688   8.706  1.00  0.00    -0.339 N 
HETATM   12  O   UNL     1      44.712 -10.825   6.931  1.00  0.00    -0.247 OA
HETATM   13  H   UNL     1      42.346 -10.320   8.888  1.00  0.00     0.164 HD
HETATM   14  H   UNL     1      41.702 -11.597   7.202  1.00  0.00     0.164 HD
BRANCH  11  15
HETATM   15  C   UNL     1      44.293 -10.379   9.673  1.00  0.00     0.162 C 
BRANCH  15  16
HETATM   16  C   UNL     1      43.680  -9.771  10.908  1.00  0.00    -0.040 A 
HETATM   17  C   UNL     1      43.196 -10.600  11.933  1.00  0.00     0.009 A 
HETATM   18  C   UNL     1      42.611 -10.051  13.075  1.00  0.00     0.001 A 
HETATM   19  C   UNL     1      42.510  -8.668  13.208  1.00  0.00     0.000 A 
HETATM   20  C   UNL     1      42.993  -7.835  12.199  1.00  0.00     0.001 A 
HETATM   21  C   UNL     1      43.575  -8.382  11.055  1.00  0.00     0.009 A 
ENDBRANCH  15  16
ENDBRANCH  11  15
ENDBRANCH   8   9
ENDBRANCH   4   8
BRANCH   1  22
HETATM   22  C   UNL     1      42.997 -16.556   4.053  1.00  0.00     0.039 A 
HETATM   23  C   UNL     1      44.061 -17.382   4.431  1.00  0.00     0.030 A 
HETATM   24  C   UNL     1      44.311 -18.566   3.733  1.00  0.00     0.009 A 
HETATM   25  C   UNL     1      43.516 -18.930   2.641  1.00  0.00    -0.062 A 
HETATM   26  C   UNL     1      43.760 -20.222   1.919  1.00  0.00     0.048 C 
HETATM   27  C   UNL     1      42.449 -18.103   2.270  1.00  0.00     0.009 A 
HETATM   28  C   UNL     1      42.191 -16.920   2.969  1.00  0.00     0.030 A 
ENDBRANCH   1  22
TORSDOF 5
ENDMDL
MODEL 2
REMARK VINA RESULT:      -9.0      1.930      9.750
REMARK  5 active torsions:
REMARK  status: ('A' for Active; 'I' for Inactive)
REMARK    1  A    between atoms: C_5  and  N_6 
REMARK    2  A    between atoms: C_9  and  C_10 
REMARK    3  A    between atoms: C_10  and  N_11 
REMARK       I    between atoms: N_11  and  C_12 
REMARK       I    between atoms: C_12  and  N_13 
REMARK    4  A    between atoms: N_13  and  C_14 
REMARK    5  A    between atoms: C_14  and  C_15 
ROOT
HETATM    1  N   UNL     1      43.991 -10.557   7.503  1.00  0.00    -0.319 N 
HETATM    2  C   UNL     1      42.968 -10.958   6.640  1.00  0.00     0.021 A 
HETATM    3  C   UNL     1      41.523 -10.645   6.860  1.00  0.00     0.069 C 
HETATM    4  C   UNL     1      43.536 -11.594   5.543  1.00  0.00    -0.016 A 
HETATM    5  C   UNL     1      44.939 -11.536   5.721  1.00  0.00     0.035 A 
HETATM    6  C   UNL     1      45.205 -10.895   6.912  1.00  0.00     0.014 A 
HETATM    7  C   UNL     1      46.545 -10.691   7.535  1.00  0.00     0.068 C 
ENDROOT
BRANCH   4   8
HETATM    8  C   UNL     1      42.848 -12.184   4.354  1.00  0.00     0.165 C 
BRANCH   8   9
HETATM    9  N   UNL     1      43.077 -13.610   4.382  1.00  0.00    -0.339 N 
HETATM   10  C   UNL     1      43.151 -14.315   3.214  1.00  0.00     0.316 C 
HETATM   11  N   UNL     1      43.148 -15.661   3.457  1.00  0.00    -0.339 N 
HETATM   12  O   UNL     1      43.172 -13.814   2.100  1.00  0.00    -0.247 OA
HETATM   13  H   UNL     1      43.574 -15.952   4.324  1.00  0.00     0.164 HD
HETATM   14  H   UNL     1      42.688 -14.111   5.167  1.00  0.00     0.164 HD
BRANCH  11  15
HETATM   15  C   UNL     1      43.173 -16.610   2.369  1.00  0.00     0.162 C 
BRANCH  15  16
HETATM   16  C   UNL     1      43.471 -17.992   2.890  1.00  0.00    -0.040 A 
HETATM   17  C   UNL     1      43.190 -19.117   2.099  1.00  0.00     0.009 A 
HETATM   18  C   UNL     1      43.446 -20.403   2.574  1.00  0.00     0.001 A 
HETATM   19  C   UNL     1      43.993 -20.579   3.844  1.00  0.00     0.000 A 
HETATM   20  C   UNL     1      44.284 -19.468   4.636  1.00  0.00     0.001 A 
HETATM   21  C   UNL     1      44.025 -18.181   4.162  1.00  0.00     0.009 A 
ENDBRANCH  15  16
ENDBRANCH  11  15
ENDBRANCH   8   9
ENDBRANCH   4   8
BRANCH   1  22
HETATM   22  C   UNL     1      43.821  -9.929   8.771  1.00  0.00     0.039 A 
HETATM   23  C   UNL     1      43.781 -10.704   9.935  1.00  0.00     0.030 A 
HETATM   24  C   UNL     1      43.639 -10.089  11.182  1.00  0.00     0.009 A 
HETATM   25  C   UNL     1      43.518  -8.698  11.280  1.00  0.00    -0.062 A 
HETATM   26  C   UNL     1      43.407  -8.037  12.621  1.00  0.00     0.048 C 
HETATM   27  C   UNL     1      43.564  -7.927  10.113  1.00  0.00     0.009 A 
HETATM   28  C   UNL     1      43.712  -8.538   8.863  1.00  0.00     0.030 A 
ENDBRANCH   1  22
TORSDOF 5
ENDMDL
MODEL 3
REMARK VINA RESULT:      -8.6      1.873      2.840
REMARK  5 active torsions:
REMARK  status: ('A' for Active; 'I' for Inactive)
REMARK    1  A    between atoms: C_5  and  N_6 
REMARK    2  A    between atoms: C_9  and  C_10 
REMARK    3  A    between atoms: C_10  and  N_11 
REMARK       I    between atoms: N_11  and  C_12 
REMARK       I    between atoms: C_12  and  N_13 
REMARK    4  A    between atoms: N_13  and  C_14 
REMARK    5  A    between atoms: C_14  and  C_15 
ROOT
HETATM    1  N   UNL     1      42.038 -15.243   3.759  1.00  0.00    -0.319 N 
HETATM    2  C   UNL     1      41.004 -14.941   4.648  1.00  0.00     0.021 A 
HETATM    3  C   UNL     1      40.404 -15.931   5.594  1.00  0.00     0.069 C 
HETATM    4  C   UNL     1      40.715 -13.585   4.550  1.00  0.00    -0.016 A 
HETATM    5  C   UNL     1      41.628 -13.041   3.615  1.00  0.00     0.035 A 
HETATM    6  C   UNL     1      42.435 -14.057   3.146  1.00  0.00     0.014 A 
HETATM    7  C   UNL     1      43.478 -13.949   2.085  1.00  0.00     0.068 C 
ENDROOT
BRANCH   4   8
HETATM    8  C   UNL     1      39.694 -12.798   5.306  1.00  0.00     0.165 C 
BRANCH   8   9
HETATM    9  N   UNL     1      40.355 -12.211   6.448  1.00  0.00    -0.339 N 
HETATM   10  C   UNL     1      40.789 -10.916   6.399  1.00  0.00     0.316 C 
HETATM   11  N   UNL     1      41.575 -10.625   7.479  1.00  0.00    -0.339 N 
HETATM   12  O   UNL     1      40.544 -10.136   5.491  1.00  0.00    -0.247 OA
HETATM   13  H   UNL     1      41.351 -11.117   8.331  1.00  0.00     0.164 HD
HETATM   14  H   UNL     1      40.915 -12.835   7.011  1.00  0.00     0.164 HD
BRANCH  11  15
HETATM   15  C   UNL     1      42.188  -9.326   7.620  1.00  0.00     0.162 C 
BRANCH  15  16
HETATM   16  C   UNL     1      43.353  -9.399   8.573  1.00  0.00    -0.040 A 
HETATM   17  C   UNL     1      43.129  -9.602   9.944  1.00  0.00     0.009 A 
HETATM   18  C   UNL     1      44.198  -9.656  10.839  1.00  0.00     0.001 A 
HETATM   19  C   UNL     1      45.503  -9.514  10.373  1.00  0.00     0.000 A 
HETATM   20  C   UNL     1      45.738  -9.319   9.012  1.00  0.00     0.001 A 
HETATM   21  C   UNL     1      44.670  -9.261   8.116  1.00  0.00     0.009 A 
ENDBRANCH  15  16
ENDBRANCH  11  15
ENDBRANCH   8   9
ENDBRANCH   4   8
BRANCH   1  22
HETATM   22  C   UNL     1      42.581 -16.537   3.510  1.00  0.00     0.039 A 
HETATM   23  C   UNL     1      43.566 -17.056   4.358  1.00  0.00     0.030 A 
HETATM   24  C   UNL     1      44.083 -18.334   4.131  1.00  0.00     0.009 A 
HETATM   25  C   UNL     1      43.637 -19.100   3.048  1.00  0.00    -0.062 A 
HETATM   26  C   UNL     1      44.163 -20.488   2.830  1.00  0.00     0.048 C 
HETATM   27  C   UNL     1      42.647 -18.578   2.207  1.00  0.00     0.009 A 
HETATM   28  C   UNL     1      42.123 -17.302   2.433  1.00  0.00     0.030 A 
ENDBRANCH   1  22
TORSDOF 5
ENDMDL
MODEL 4
REMARK VINA RESULT:      -8.6      1.652      3.142
REMARK  5 active torsions:
REMARK  status: ('A' for Active; 'I' for Inactive)
REMARK    1  A    between atoms: C_5  and  N_6 
REMARK    2  A    between atoms: C_9  and  C_10 
REMARK    3  A    between atoms: C_10  and  N_11 
REMARK       I    between atoms: N_11  and  C_12 
REMARK       I    between atoms: C_12  and  N_13 
REMARK    4  A    between atoms: N_13  and  C_14 
REMARK    5  A    between atoms: C_14  and  C_15 
ROOT
HETATM    1  N   UNL     1      42.222 -12.819   5.542  1.00  0.00    -0.319 N 
HETATM    2  C   UNL     1      43.088 -11.997   6.268  1.00  0.00     0.021 A 
HETATM    3  C   UNL     1      44.543 -12.282   6.457  1.00  0.00     0.069 C 
HETATM    4  C   UNL     1      42.387 -10.872   6.686  1.00  0.00    -0.016 A 
HETATM    5  C   UNL     1      41.078 -10.990   6.159  1.00  0.00     0.035 A 
HETATM    6  C   UNL     1      40.991 -12.174   5.457  1.00  0.00     0.014 A 
HETATM    7  C   UNL     1      39.772 -12.739   4.811  1.00  0.00     0.068 C 
ENDROOT
BRANCH   4   8
HETATM    8  C   UNL     1      42.888  -9.710   7.481  1.00  0.00     0.165 C 
BRANCH   8   9
HETATM    9  N   UNL     1      42.267  -9.774   8.784  1.00  0.00    -0.339 N 
HETATM   10  C   UNL     1      43.038  -9.900   9.905  1.00  0.00     0.316 C 
HETATM   11  N   UNL     1      42.264 -10.164  11.001  1.00  0.00    -0.339 N 
HETATM   12  O   UNL     1      44.258  -9.828   9.921  1.00  0.00    -0.247 OA
HETATM   13  H   UNL     1      41.337  -9.766  10.990  1.00  0.00     0.164 HD
HETATM   14  H   UNL     1      41.363 -10.220   8.828  1.00  0.00     0.164 HD
BRANCH  11  15
HETATM   15  C   UNL     1      42.863 -10.383  12.296  1.00  0.00     0.162 C 
BRANCH  15  16
HETATM   16  C   UNL     1      42.619  -9.195  13.191  1.00  0.00    -0.040 A 
HETATM   17  C   UNL     1      43.396  -8.035  13.048  1.00  0.00     0.009 A 
HETATM   18  C   UNL     1      43.191  -6.934  13.880  1.00  0.00     0.001 A 
HETATM   19  C   UNL     1      42.203  -6.979  14.861  1.00  0.00     0.000 A 
HETATM   20  C   UNL     1      41.420  -8.124  15.009  1.00  0.00     0.001 A 
HETATM   21  C   UNL     1      41.626  -9.227  14.178  1.00  0.00     0.009 A 
ENDBRANCH  15  16
ENDBRANCH  11  15
ENDBRANCH   8   9
ENDBRANCH   4   8
BRANCH   1  22
HETATM   22  C   UNL     1      42.538 -14.097   4.997  1.00  0.00     0.039 A 
HETATM   23  C   UNL     1      42.883 -14.216   3.646  1.00  0.00     0.030 A 
HETATM   24  C   UNL     1      43.217 -15.464   3.115  1.00  0.00     0.009 A 
HETATM   25  C   UNL     1      43.192 -16.609   3.920  1.00  0.00    -0.062 A 
HETATM   26  C   UNL     1      43.590 -17.942   3.359  1.00  0.00     0.048 C 
HETATM   27  C   UNL     1      42.852 -16.485   5.271  1.00  0.00     0.009 A 
HETATM   28  C   UNL     1      42.523 -15.236   5.809  1.00  0.00     0.030 A 
ENDBRANCH   1  22
TORSDOF 5
ENDMDL
MODEL 5
REMARK VINA RESULT:      -8.5      1.681     10.134
REMARK  5 active torsions:
REMARK  status: ('A' for Active; 'I' for Inactive)
REMARK    1  A    between atoms: C_5  and  N_6 
REMARK    2  A    between atoms: C_9  and  C_10 
REMARK    3  A    between atoms: C_10  and  N_11 
REMARK       I    between atoms: N_11  and  C_12 
REMARK       I    between atoms: C_12  and  N_13 
REMARK    4  A    between atoms: N_13  and  C_14 
REMARK    5  A    between atoms: C_14  and  C_15 
ROOT
HETATM    1  N   UNL     1      42.975  -9.374  10.074  1.00  0.00    -0.319 N 
HETATM    2  C   UNL     1      44.155  -9.907   9.549  1.00  0.00     0.021 A 
HETATM    3  C   UNL     1      45.364 -10.222  10.371  1.00  0.00     0.069 C 
HETATM    4  C   UNL     1      43.965 -10.160   8.196  1.00  0.00    -0.016 A 
HETATM    5  C   UNL     1      42.623  -9.817   7.903  1.00  0.00     0.035 A 
HETATM    6  C   UNL     1      42.027  -9.349   9.055  1.00  0.00     0.014 A 
HETATM    7  C   UNL     1      40.647  -8.799   9.184  1.00  0.00     0.068 C 
ENDROOT
BRANCH   4   8
HETATM    8  C   UNL     1      44.935 -10.736   7.216  1.00  0.00     0.165 C 
BRANCH   8   9
HETATM    9  N   UNL     1      44.340 -11.931   6.665  1.00  0.00    -0.339 N 
HETATM   10  C   UNL     1      43.936 -11.957   5.360  1.00  0.00     0.316 C 
HETATM   11  N   UNL     1      43.206 -13.083   5.099  1.00  0.00    -0.339 N 
HETATM   12  O   UNL     1      44.161 -11.074   4.546  1.00  0.00    -0.247 OA
HETATM   13  H   UNL     1      43.455 -13.902   5.633  1.00  0.00     0.164 HD
HETATM   14  H   UNL     1      43.789 -12.490   7.300  1.00  0.00     0.164 HD
BRANCH  11  15
HETATM   15  C   UNL     1      42.633 -13.307   3.793  1.00  0.00     0.162 C 
BRANCH  15  16
HETATM   16  C   UNL     1      42.903 -14.719   3.339  1.00  0.00    -0.040 A 
HETATM   17  C   UNL     1      43.075 -14.998   1.974  1.00  0.00     0.009 A 
HETATM   18  C   UNL     1      43.310 -16.303   1.540  1.00  0.00     0.001 A 
HETATM   19  C   UNL     1      43.383 -17.342   2.465  1.00  0.00     0.000 A 
HETATM   20  C   UNL     1      43.220 -17.075   3.825  1.00  0.00     0.001 A 
HETATM   21  C   UNL     1      42.982 -15.771   4.261  1.00  0.00     0.009 A 
ENDBRANCH  15  16
ENDBRANCH  11  15
ENDBRANCH   8   9
ENDBRANCH   4   8
BRANCH   1  22
HETATM   22  C   UNL     1      42.780  -8.922  11.412  1.00  0.00     0.039 A 
HETATM   23  C   UNL     1      42.976  -7.573  11.728  1.00  0.00     0.030 A 
HETATM   24  C   UNL     1      42.762  -7.122  13.034  1.00  0.00     0.009 A 
HETATM   25  C   UNL     1      42.369  -8.012  14.039  1.00  0.00    -0.062 A 
HETATM   26  C   UNL     1      42.100  -7.519  15.430  1.00  0.00     0.048 C 
HETATM   27  C   UNL     1      42.169  -9.359  13.715  1.00  0.00     0.009 A 
HETATM   28  C   UNL     1      42.376  -9.815  12.409  1.00  0.00     0.030 A 
ENDBRANCH   1  22
TORSDOF 5
ENDMDL
MODEL 6
REMARK VINA RESULT:      -8.4      2.194      3.064
REMARK  5 active torsions:
REMARK  status: ('A' for Active; 'I' for Inactive)
REMARK    1  A    between atoms: C_5  and  N_6 
REMARK    2  A    between atoms: C_9  and  C_10 
REMARK    3  A    between atoms: C_10  and  N_11 
REMARK       I    between atoms: N_11  and  C_12 
REMARK       I    between atoms: C_12  and  N_13 
REMARK    4  A    between atoms: N_13  and  C_14 
REMARK    5  A    between atoms: C_14  and  C_15 
ROOT
HETATM    1  N   UNL     1      42.526 -13.803   4.919  1.00  0.00    -0.319 N 
HETATM    2  C   UNL     1      43.184 -12.603   5.199  1.00  0.00     0.021 A 
HETATM    3  C   UNL     1      43.179 -11.418   4.288  1.00  0.00     0.069 C 
HETATM    4  C   UNL     1      43.742 -12.688   6.469  1.00  0.00    -0.016 A 
HETATM    5  C   UNL     1      43.374 -13.952   6.991  1.00  0.00     0.035 A 
HETATM    6  C   UNL     1      42.626 -14.618   6.043  1.00  0.00     0.014 A 
HETATM    7  C   UNL     1      42.104 -16.012   6.138  1.00  0.00     0.068 C 
ENDROOT
BRANCH   4   8
HETATM    8  C   UNL     1      44.531 -11.654   7.206  1.00  0.00     0.165 C 
BRANCH   8   9
HETATM    9  N   UNL     1      43.670 -11.090   8.219  1.00  0.00    -0.339 N 
HETATM   10  C   UNL     1      44.175 -10.769   9.447  1.00  0.00     0.316 C 
HETATM   11  N   UNL     1      43.169 -10.463  10.322  1.00  0.00    -0.339 N 
HETATM   12  O   UNL     1      45.361 -10.792   9.738  1.00  0.00    -0.247 OA
HETATM   13  H   UNL     1      42.348 -10.039   9.917  1.00  0.00     0.164 HD
HETATM   14  H   UNL     1      42.709 -11.399   8.213  1.00  0.00     0.164 HD
BRANCH  11  15
HETATM   15  C   UNL     1      43.459 -10.135  11.697  1.00  0.00     0.162 C 
BRANCH  15  16
HETATM   16  C   UNL     1      43.072  -8.708  11.987  1.00  0.00    -0.040 A 
HETATM   17  C   UNL     1      43.114  -8.221  13.303  1.00  0.00     0.009 A 
HETATM   18  C   UNL     1      42.743  -6.906  13.587  1.00  0.00     0.001 A 
HETATM   19  C   UNL     1      42.333  -6.062  12.557  1.00  0.00     0.000 A 
HETATM   20  C   UNL     1      42.295  -6.532  11.245  1.00  0.00     0.001 A 
HETATM   21  C   UNL     1      42.662  -7.848  10.960  1.00  0.00     0.009 A 
ENDBRANCH  15  16
ENDBRANCH  11  15
ENDBRANCH   8   9
ENDBRANCH   4   8
BRANCH   1  22
HETATM   22  C   UNL     1      41.880 -14.140   3.693  1.00  0.00     0.039 A 
HETATM   23  C   UNL     1      40.523 -13.850   3.516  1.00  0.00     0.030 A 
HETATM   24  C   UNL     1      39.893 -14.157   2.307  1.00  0.00     0.009 A 
HETATM   25  C   UNL     1      40.605 -14.772   1.270  1.00  0.00    -0.062 A 
HETATM   26  C   UNL     1      39.938 -15.064  -0.041  1.00  0.00     0.048 C 
HETATM   27  C   UNL     1      41.963 -15.055   1.451  1.00  0.00     0.009 A 
HETATM   28  C   UNL     1      42.600 -14.744   2.657  1.00  0.00     0.030 A 
ENDBRANCH   1  22
TORSDOF 5
ENDMDL
MODEL 7
REMARK VINA RESULT:      -8.4      1.640      1.982
REMARK  5 active torsions:
REMARK  status: ('A' for Active; 'I' for Inactive)
REMARK    1  A    between atoms: C_5  and  N_6 
REMARK    2  A    between atoms: C_9  and  C_10 
REMARK    3  A    between atoms: C_10  and  N_11 
REMARK       I    between atoms: N_11  and  C_12 
REMARK       I    between atoms: C_12  and  N_13 
REMARK    4  A    between atoms: N_13  and  C_14 
REMARK    5  A    between atoms: C_14  and  C_15 
ROOT
HETATM    1  N   UNL     1      41.822 -14.970   4.735  1.00  0.00    -0.319 N 
HETATM    2  C   UNL     1      42.246 -13.667   4.467  1.00  0.00     0.021 A 
HETATM    3  C   UNL     1      43.188 -13.308   3.363  1.00  0.00     0.069 C 
HETATM    4  C   UNL     1      41.584 -12.798   5.327  1.00  0.00    -0.016 A 
HETATM    5  C   UNL     1      40.702 -13.588   6.103  1.00  0.00     0.035 A 
HETATM    6  C   UNL     1      40.848 -14.907   5.728  1.00  0.00     0.014 A 
HETATM    7  C   UNL     1      40.176 -16.088   6.343  1.00  0.00     0.068 C 
ENDROOT
BRANCH   4   8
HETATM    8  C   UNL     1      41.701 -11.311   5.412  1.00  0.00     0.165 C 
BRANCH   8   9
HETATM    9  N   UNL     1      41.927 -10.970   6.797  1.00  0.00    -0.339 N 
HETATM   10  C   UNL     1      41.167 -10.007   7.399  1.00  0.00     0.316 C 
HETATM   11  N   UNL     1      41.677  -9.681   8.625  1.00  0.00    -0.339 N 
HETATM   12  O   UNL     1      40.188  -9.478   6.894  1.00  0.00    -0.247 OA
HETATM   13  H   UNL     1      42.146 -10.425   9.119  1.00  0.00     0.164 HD
HETATM   14  H   UNL     1      42.878 -11.040   7.126  1.00  0.00     0.164 HD
BRANCH  11  15
HETATM   15  C   UNL     1      41.066  -8.650   9.430  1.00  0.00     0.162 C 
BRANCH  15  16
HETATM   16  C   UNL     1      41.595  -8.707  10.841  1.00  0.00    -0.040 A 
HETATM   17  C   UNL     1      40.788  -9.207  11.874  1.00  0.00     0.009 A 
HETATM   18  C   UNL     1      41.259  -9.251  13.187  1.00  0.00     0.001 A 
HETATM   19  C   UNL     1      42.545  -8.802  13.479  1.00  0.00     0.000 A 
HETATM   20  C   UNL     1      43.359  -8.309  12.459  1.00  0.00     0.001 A 
HETATM   21  C   UNL     1      42.887  -8.262  11.146  1.00  0.00     0.009 A 
ENDBRANCH  15  16
ENDBRANCH  11  15
ENDBRANCH   8   9
ENDBRANCH   4   8
BRANCH   1  22
HETATM   22  C   UNL     1      42.310 -16.157   4.114  1.00  0.00     0.039 A 
HETATM   23  C   UNL     1      41.749 -16.597   2.910  1.00  0.00     0.030 A 
HETATM   24  C   UNL     1      42.241 -17.746   2.286  1.00  0.00     0.009 A 
HETATM   25  C   UNL     1      43.285 -18.478   2.864  1.00  0.00    -0.062 A 
HETATM   26  C   UNL     1      43.841 -19.687   2.173  1.00  0.00     0.048 C 
HETATM   27  C   UNL     1      43.847 -18.030   4.066  1.00  0.00     0.009 A 
HETATM   28  C   UNL     1      43.361 -16.877   4.691  1.00  0.00     0.030 A 
ENDBRANCH   1  22
TORSDOF 5
ENDMDL
MODEL 8
REMARK VINA RESULT:      -8.4      1.303      2.103
REMARK  5 active torsions:
REMARK  status: ('A' for Active; 'I' for Inactive)
REMARK    1  A    between atoms: C_5  and  N_6 
REMARK    2  A    between atoms: C_9  and  C_10 
REMARK    3  A    between atoms: C_10  and  N_11 
REMARK       I    between atoms: N_11  and  C_12 
REMARK       I    between atoms: C_12  and  N_13 
REMARK    4  A    between atoms: N_13  and  C_14 
REMARK    5  A    between atoms: C_14  and  C_15 
ROOT
HETATM    1  N   UNL     1      42.199 -15.033   4.430  1.00  0.00    -0.319 N 
HETATM    2  C   UNL     1      42.631 -13.773   4.008  1.00  0.00     0.021 A 
HETATM    3  C   UNL     1      43.457 -13.544   2.783  1.00  0.00     0.069 C 
HETATM    4  C   UNL     1      42.095 -12.812   4.856  1.00  0.00    -0.016 A 
HETATM    5  C   UNL     1      41.279 -13.500   5.786  1.00  0.00     0.035 A 
HETATM    6  C   UNL     1      41.342 -14.850   5.512  1.00  0.00     0.014 A 
HETATM    7  C   UNL     1      40.705 -15.950   6.294  1.00  0.00     0.068 C 
ENDROOT
BRANCH   4   8
HETATM    8  C   UNL     1      42.266 -11.328   4.801  1.00  0.00     0.165 C 
BRANCH   8   9
HETATM    9  N   UNL     1      43.623 -11.032   5.194  1.00  0.00    -0.339 N 
HETATM   10  C   UNL     1      44.006 -11.174   6.499  1.00  0.00     0.316 C 
HETATM   11  N   UNL     1      45.248 -10.638   6.702  1.00  0.00    -0.339 N 
HETATM   12  O   UNL     1      43.316 -11.673   7.375  1.00  0.00    -0.247 OA
HETATM   13  H   UNL     1      45.879 -10.682   5.917  1.00  0.00     0.164 HD
HETATM   14  H   UNL     1      44.086 -10.294   4.685  1.00  0.00     0.164 HD
BRANCH  11  15
HETATM   15  C   UNL     1      45.844 -10.629   8.017  1.00  0.00     0.162 C 
BRANCH  15  16
HETATM   16  C   UNL     1      45.044  -9.752   8.946  1.00  0.00    -0.040 A 
HETATM   17  C   UNL     1      44.631  -8.477   8.527  1.00  0.00     0.009 A 
HETATM   18  C   UNL     1      43.905  -7.649   9.383  1.00  0.00     0.001 A 
HETATM   19  C   UNL     1      43.577  -8.088  10.664  1.00  0.00     0.000 A 
HETATM   20  C   UNL     1      43.976  -9.355  11.088  1.00  0.00     0.001 A 
HETATM   21  C   UNL     1      44.706 -10.184  10.234  1.00  0.00     0.009 A 
ENDBRANCH  15  16
ENDBRANCH  11  15
ENDBRANCH   8   9
ENDBRANCH   4   8
BRANCH   1  22
HETATM   22  C   UNL     1      42.579 -16.285   3.864  1.00  0.00     0.039 A 
HETATM   23  C   UNL     1      41.873 -16.802   2.772  1.00  0.00     0.030 A 
HETATM   24  C   UNL     1      42.258 -18.017   2.200  1.00  0.00     0.009 A 
HETATM   25  C   UNL     1      43.340 -18.737   2.720  1.00  0.00    -0.062 A 
HETATM   26  C   UNL     1      43.779 -20.020   2.080  1.00  0.00     0.048 C 
HETATM   27  C   UNL     1      44.047 -18.212   3.808  1.00  0.00     0.009 A 
HETATM   28  C   UNL     1      43.669 -16.993   4.381  1.00  0.00     0.030 A 
ENDBRANCH   1  22
TORSDOF 5
ENDMDL
MODEL 9
REMARK VINA RESULT:      -8.2      4.391      7.826
REMARK  5 active torsions:
REMARK  status: ('A' for Active; 'I' for Inactive)
REMARK    1  A    between atoms: C_5  and  N_6 
REMARK    2  A    between atoms: C_9  and  C_10 
REMARK    3  A    between atoms: C_10  and  N_11 
REMARK       I    between atoms: N_11  and  C_12 
REMARK       I    between atoms: C_12  and  N_13 
REMARK    4  A    between atoms: N_13  and  C_14 
REMARK    5  A    between atoms: C_14  and  C_15 
ROOT
HETATM    1  N   UNL     1      42.535 -15.190   4.309  1.00  0.00    -0.319 N 
HETATM    2  C   UNL     1      42.894 -13.962   3.748  1.00  0.00     0.021 A 
HETATM    3  C   UNL     1      43.540 -13.815   2.408  1.00  0.00     0.069 C 
HETATM    4  C   UNL     1      42.474 -12.945   4.598  1.00  0.00    -0.016 A 
HETATM    5  C   UNL     1      41.801 -13.569   5.676  1.00  0.00     0.035 A 
HETATM    6  C   UNL     1      41.836 -14.934   5.486  1.00  0.00     0.014 A 
HETATM    7  C   UNL     1      41.324 -15.978   6.419  1.00  0.00     0.068 C 
ENDROOT
BRANCH   4   8
HETATM    8  C   UNL     1      42.623 -11.469   4.421  1.00  0.00     0.165 C 
BRANCH   8   9
HETATM    9  N   UNL     1      42.574 -11.192   3.005  1.00  0.00    -0.339 N 
HETATM   10  C   UNL     1      41.375 -10.949   2.395  1.00  0.00     0.316 C 
HETATM   11  N   UNL     1      41.516 -10.932   1.035  1.00  0.00    -0.339 N 
HETATM   12  O   UNL     1      40.313 -10.808   2.983  1.00  0.00    -0.247 OA
HETATM   13  H   UNL     1      42.405 -10.606   0.689  1.00  0.00     0.164 HD
HETATM   14  H   UNL     1      43.264 -11.657   2.434  1.00  0.00     0.164 HD
BRANCH  11  15
HETATM   15  C   UNL     1      40.373 -10.738   0.175  1.00  0.00     0.162 C 
BRANCH  15  16
HETATM   16  C   UNL     1      40.255 -11.880  -0.801  1.00  0.00    -0.040 A 
HETATM   17  C   UNL     1      40.936 -11.829  -2.028  1.00  0.00     0.009 A 
HETATM   18  C   UNL     1      40.823 -12.872  -2.948  1.00  0.00     0.001 A 
HETATM   19  C   UNL     1      40.033 -13.980  -2.648  1.00  0.00     0.000 A 
HETATM   20  C   UNL     1      39.358 -14.045  -1.430  1.00  0.00     0.001 A 
HETATM   21  C   UNL     1      39.467 -13.001  -0.510  1.00  0.00     0.009 A 
ENDBRANCH  15  16
ENDBRANCH  11  15
ENDBRANCH   8   9
ENDBRANCH   4   8
BRANCH   1  22
HETATM   22  C   UNL     1      42.844 -16.477   3.779  1.00  0.00     0.039 A 
HETATM   23  C   UNL     1      42.134 -16.967   2.677  1.00  0.00     0.030 A 
HETATM   24  C   UNL     1      42.450 -18.218   2.141  1.00  0.00     0.009 A 
HETATM   25  C   UNL     1      43.463 -19.000   2.707  1.00  0.00    -0.062 A 
HETATM   26  C   UNL     1      43.829 -20.324   2.106  1.00  0.00     0.048 C 
HETATM   27  C   UNL     1      44.174 -18.502   3.806  1.00  0.00     0.009 A 
HETATM   28  C   UNL     1      43.865 -17.248   4.343  1.00  0.00     0.030 A 
ENDBRANCH   1  22
TORSDOF 5
ENDMDL
MODEL 10
REMARK VINA RESULT:      -8.1      1.731      9.845
REMARK  5 active torsions:
REMARK  status: ('A' for Active; 'I' for Inactive)
REMARK    1  A    between atoms: C_5  and  N_6 
REMARK    2  A    between atoms: C_9  and  C_10 
REMARK    3  A    between atoms: C_10  and  N_11 
REMARK       I    between atoms: N_11  and  C_12 
REMARK       I    between atoms: C_12  and  N_13 
REMARK    4  A    between atoms: N_13  and  C_14 
REMARK    5  A    between atoms: C_14  and  C_15 
ROOT
HETATM    1  N   UNL     1      43.111  -9.712   8.787  1.00  0.00    -0.319 N 
HETATM    2  C   UNL     1      42.023  -9.964   7.947  1.00  0.00     0.021 A 
HETATM    3  C   UNL     1      40.629  -9.506   8.231  1.00  0.00     0.069 C 
HETATM    4  C   UNL     1      42.483 -10.614   6.808  1.00  0.00    -0.016 A 
HETATM    5  C   UNL     1      43.889 -10.715   6.937  1.00  0.00     0.035 A 
HETATM    6  C   UNL     1      44.262 -10.155   8.141  1.00  0.00     0.014 A 
HETATM    7  C   UNL     1      45.635 -10.122   8.722  1.00  0.00     0.068 C 
ENDROOT
BRANCH   4   8
HETATM    8  C   UNL     1      41.697 -11.077   5.624  1.00  0.00     0.165 C 
BRANCH   8   9
HETATM    9  N   UNL     1      41.628 -12.518   5.685  1.00  0.00    -0.339 N 
HETATM   10  C   UNL     1      41.378 -13.241   4.552  1.00  0.00     0.316 C 
HETATM   11  N   UNL     1      41.135 -14.552   4.855  1.00  0.00    -0.339 N 
HETATM   12  O   UNL     1      41.335 -12.772   3.424  1.00  0.00    -0.247 OA
HETATM   13  H   UNL     1      41.617 -14.913   5.664  1.00  0.00     0.164 HD
HETATM   14  H   UNL     1      41.267 -12.914   6.539  1.00  0.00     0.164 HD
BRANCH  11  15
HETATM   15  C   UNL     1      40.799 -15.501   3.820  1.00  0.00     0.162 C 
BRANCH  15  16
HETATM   16  C   UNL     1      41.898 -16.522   3.673  1.00  0.00    -0.040 A 
HETATM   17  C   UNL     1      42.765 -16.781   4.745  1.00  0.00     0.009 A 
HETATM   18  C   UNL     1      43.796 -17.713   4.617  1.00  0.00     0.001 A 
HETATM   19  C   UNL     1      43.967 -18.400   3.417  1.00  0.00     0.000 A 
HETATM   20  C   UNL     1      43.106 -18.155   2.347  1.00  0.00     0.001 A 
HETATM   21  C   UNL     1      42.077 -17.221   2.473  1.00  0.00     0.009 A 
ENDBRANCH  15  16
ENDBRANCH  11  15
ENDBRANCH   8   9
ENDBRANCH   4   8
BRANCH   1  22
HETATM   22  C   UNL     1      43.052  -9.121  10.083  1.00  0.00     0.039 A 
HETATM   23  C   UNL     1      43.060  -7.728  10.216  1.00  0.00     0.030 A 
HETATM   24  C   UNL     1      42.978  -7.145  11.484  1.00  0.00     0.009 A 
HETATM   25  C   UNL     1      42.905  -7.943  12.631  1.00  0.00    -0.062 A 
HETATM   26  C   UNL     1      42.775  -7.317  13.987  1.00  0.00     0.048 C 
HETATM   27  C   UNL     1      42.891  -9.336  12.491  1.00  0.00     0.009 A 
HETATM   28  C   UNL     1      42.967  -9.924  11.225  1.00  0.00     0.030 A 
ENDBRANCH   1  22
TORSDOF 5
ENDMDL
