MODEL 1
REMARK VINA RESULT:      -8.1      0.000      0.000
REMARK  8 active torsions:
REMARK  status: ('A' for Active; 'I' for Inactive)
REMARK    1  A    between atoms: N_3  and  C_4 
REMARK    2  A    between atoms: C_4  and  C_5 
REMARK    3  A    between atoms: C_5  and  O_6 
REMARK    4  A    between atoms: C_11  and  C_12 
REMARK    5  A    between atoms: C_13  and  C_14 
REMARK    6  A    between atoms: C_22  and  C_23 
REMARK       I    between atoms: C_23  and  N_24 
REMARK    7  A    between atoms: N_24  and  C_25 
REMARK    8  A    between atoms: C_26  and  O_27 
ROOT
HETATM    1  C   UNL     1      39.953 -10.740   3.552  1.00  0.00     0.069 C 
HETATM    2  C   UNL     1      41.248 -11.515   3.581  1.00  0.00     0.026 C 
HETATM    3  N   UNL     1      42.335 -10.992   4.301  1.00  0.00    -0.301 N 
HETATM    4  C   UNL     1      43.633 -11.499   4.170  1.00  0.00     0.323 C 
HETATM    5  O   UNL     1      44.633 -11.033   4.711  1.00  0.00    -0.247 OA
HETATM    6  N   UNL     1      43.786 -12.558   3.329  1.00  0.00    -0.330 N 
HETATM    7  C   UNL     1      42.715 -13.430   2.927  1.00  0.00     0.161 C 
HETATM    8  C   UNL     1      41.420 -12.680   2.924  1.00  0.00     0.059 C 
HETATM    9  H   UNL     1      44.735 -12.904   3.291  1.00  0.00     0.165 HD
ENDROOT
BRANCH   8  10
HETATM   10  C   UNL     1      40.358 -13.242   2.050  1.00  0.00     0.256 C 
HETATM   11  N   UNL     1      40.499 -12.868   0.735  1.00  0.00    -0.321 N 
HETATM   12  H   UNL     1      41.276 -12.267   0.476  1.00  0.00     0.169 HD
HETATM   13  O   UNL     1      39.488 -13.953   2.538  1.00  0.00    -0.267 OA
BRANCH  11  14
HETATM   14  C   UNL     1      39.643 -13.165  -0.350  1.00  0.00     0.068 A 
HETATM   15  C   UNL     1      38.599 -12.249  -0.607  1.00  0.00     0.095 A 
HETATM   16  C   UNL     1      37.707 -12.490  -1.655  1.00  0.00     0.039 A 
HETATM   17  C   UNL     1      37.852 -13.629  -2.450  1.00  0.00     0.003 A 
HETATM   18  C   UNL     1      38.885 -14.529  -2.201  1.00  0.00     0.002 A 
HETATM   19  C   UNL     1      39.778 -14.300  -1.152  1.00  0.00     0.032 A 
BRANCH  15  20
HETATM   20  O   UNL     1      38.551 -11.163   0.237  1.00  0.00    -0.354 OA
HETATM   21  C   UNL     1      37.344 -10.963   0.963  1.00  0.00     0.210 C 
ENDBRANCH  15  20
ENDBRANCH  11  14
ENDBRANCH   8  10
BRANCH   7  22
HETATM   22  C   UNL     1      42.719 -14.680   3.812  1.00  0.00    -0.016 A 
HETATM   23  C   UNL     1      42.877 -15.983   3.274  1.00  0.00     0.056 A 
HETATM   24  C   UNL     1      42.873 -17.093   4.142  1.00  0.00     0.017 A 
HETATM   25  C   UNL     1      42.735 -16.930   5.519  1.00  0.00     0.001 A 
HETATM   26  C   UNL     1      42.606 -15.655   6.054  1.00  0.00     0.001 A 
HETATM   27  C   UNL     1      42.602 -14.544   5.212  1.00  0.00     0.010 A 
BRANCH  23  28
HETATM   28  C   UNL     1      43.070 -16.220   1.790  1.00  0.00     0.418 C 
HETATM   29  F   UNL     1      41.980 -15.849   1.064  1.00  0.00    -0.166 F 
HETATM   30  F   UNL     1      44.120 -15.536   1.255  1.00  0.00    -0.166 F 
HETATM   31  F   UNL     1      43.292 -17.530   1.499  1.00  0.00    -0.166 F 
ENDBRANCH  23  28
ENDBRANCH   7  22
BRANCH   3  32
HETATM   32  C   UNL     1      42.179  -9.855   5.221  1.00  0.00     0.160 C 
BRANCH  32  33
HETATM   33  C   UNL     1      42.016 -10.274   6.689  1.00  0.00     0.187 C 
BRANCH  33  34
HETATM   34  O   UNL     1      43.058  -9.728   7.499  1.00  0.00    -0.394 OA
HETATM   35  C   UNL     1      43.848 -10.747   8.098  1.00  0.00     0.201 C 
ENDBRANCH  33  34
ENDBRANCH  32  33
ENDBRANCH   3  32
TORSDOF 8
ENDMDL
MODEL 2
REMARK VINA RESULT:      -7.8      2.392      5.818
REMARK  8 active torsions:
REMARK  status: ('A' for Active; 'I' for Inactive)
REMARK    1  A    between atoms: N_3  and  C_4 
REMARK    2  A    between atoms: C_4  and  C_5 
REMARK    3  A    between atoms: C_5  and  O_6 
REMARK    4  A    between atoms: C_11  and  C_12 
REMARK    5  A    between atoms: C_13  and  C_14 
REMARK    6  A    between atoms: C_22  and  C_23 
REMARK       I    between atoms: C_23  and  N_24 
REMARK    7  A    between atoms: N_24  and  C_25 
REMARK    8  A    between atoms: C_26  and  O_27 
ROOT
HETATM    1  C   UNL     1      43.259 -12.981   5.780  1.00  0.00     0.069 C 
HETATM    2  C   UNL     1      41.912 -12.875   5.107  1.00  0.00     0.026 C 
HETATM    3  N   UNL     1      40.971 -11.962   5.613  1.00  0.00    -0.301 N 
HETATM    4  C   UNL     1      39.627 -11.981   5.226  1.00  0.00     0.323 C 
HETATM    5  O   UNL     1      38.745 -11.263   5.692  1.00  0.00    -0.247 OA
HETATM    6  N   UNL     1      39.278 -12.914   4.298  1.00  0.00    -0.330 N 
HETATM    7  C   UNL     1      40.209 -13.553   3.408  1.00  0.00     0.161 C 
HETATM    8  C   UNL     1      41.557 -13.637   4.052  1.00  0.00     0.059 C 
HETATM    9  H   UNL     1      38.304 -12.868   4.032  1.00  0.00     0.165 HD
ENDROOT
BRANCH   8  10
HETATM   10  C   UNL     1      42.451 -14.703   3.529  1.00  0.00     0.256 C 
HETATM   11  N   UNL     1      42.106 -15.954   3.981  1.00  0.00    -0.321 N 
HETATM   12  H   UNL     1      41.310 -16.049   4.606  1.00  0.00     0.169 HD
HETATM   13  O   UNL     1      43.372 -14.404   2.781  1.00  0.00    -0.267 OA
BRANCH  11  14
HETATM   14  C   UNL     1      42.767 -17.179   3.738  1.00  0.00     0.068 A 
HETATM   15  C   UNL     1      43.509 -17.725   4.808  1.00  0.00     0.095 A 
HETATM   16  C   UNL     1      44.202 -18.927   4.631  1.00  0.00     0.039 A 
HETATM   17  C   UNL     1      44.152 -19.588   3.402  1.00  0.00     0.003 A 
HETATM   18  C   UNL     1      43.415 -19.053   2.349  1.00  0.00     0.002 A 
HETATM   19  C   UNL     1      42.725 -17.851   2.514  1.00  0.00     0.032 A 
BRANCH  15  20
HETATM   20  O   UNL     1      43.489 -16.992   5.972  1.00  0.00    -0.354 OA
HETATM   21  C   UNL     1      44.710 -16.383   6.374  1.00  0.00     0.210 C 
ENDBRANCH  15  20
ENDBRANCH  11  14
ENDBRANCH   8  10
BRANCH   7  22
HETATM   22  C   UNL     1      40.199 -12.829   2.058  1.00  0.00    -0.016 A 
HETATM   23  C   UNL     1      40.151 -13.532   0.827  1.00  0.00     0.056 A 
HETATM   24  C   UNL     1      40.143 -12.808  -0.381  1.00  0.00     0.017 A 
HETATM   25  C   UNL     1      40.162 -11.414  -0.386  1.00  0.00     0.001 A 
HETATM   26  C   UNL     1      40.182 -10.720   0.816  1.00  0.00     0.001 A 
HETATM   27  C   UNL     1      40.195 -11.418   2.023  1.00  0.00     0.010 A 
BRANCH  23  28
HETATM   28  C   UNL     1      40.090 -15.045   0.769  1.00  0.00     0.418 C 
HETATM   29  F   UNL     1      41.329 -15.609   0.750  1.00  0.00    -0.166 F 
HETATM   30  F   UNL     1      39.443 -15.611   1.825  1.00  0.00    -0.166 F 
HETATM   31  F   UNL     1      39.451 -15.495  -0.344  1.00  0.00    -0.166 F 
ENDBRANCH  23  28
ENDBRANCH   7  22
BRANCH   3  32
HETATM   32  C   UNL     1      41.339 -10.943   6.607  1.00  0.00     0.160 C 
BRANCH  32  33
HETATM   33  C   UNL     1      41.824  -9.626   5.982  1.00  0.00     0.187 C 
BRANCH  33  34
HETATM   34  O   UNL     1      42.521  -8.828   6.940  1.00  0.00    -0.394 OA
HETATM   35  C   UNL     1      43.359  -9.617   7.773  1.00  0.00     0.201 C 
ENDBRANCH  33  34
ENDBRANCH  32  33
ENDBRANCH   3  32
TORSDOF 8
ENDMDL
MODEL 3
REMARK VINA RESULT:      -7.7      2.818      6.914
REMARK  8 active torsions:
REMARK  status: ('A' for Active; 'I' for Inactive)
REMARK    1  A    between atoms: N_3  and  C_4 
REMARK    2  A    between atoms: C_4  and  C_5 
REMARK    3  A    between atoms: C_5  and  O_6 
REMARK    4  A    between atoms: C_11  and  C_12 
REMARK    5  A    between atoms: C_13  and  C_14 
REMARK    6  A    between atoms: C_22  and  C_23 
REMARK       I    between atoms: C_23  and  N_24 
REMARK    7  A    between atoms: N_24  and  C_25 
REMARK    8  A    between atoms: C_26  and  O_27 
ROOT
HETATM    1  C   UNL     1      39.809 -15.711   0.388  1.00  0.00     0.069 C 
HETATM    2  C   UNL     1      40.460 -14.489   0.991  1.00  0.00     0.026 C 
HETATM    3  N   UNL     1      40.364 -13.264   0.310  1.00  0.00    -0.301 N 
HETATM    4  C   UNL     1      41.144 -12.154   0.652  1.00  0.00     0.323 C 
HETATM    5  O   UNL     1      41.161 -11.086   0.045  1.00  0.00    -0.247 OA
HETATM    6  N   UNL     1      41.986 -12.311   1.711  1.00  0.00    -0.330 N 
HETATM    7  C   UNL     1      41.828 -13.319   2.724  1.00  0.00     0.161 C 
HETATM    8  C   UNL     1      41.155 -14.524   2.146  1.00  0.00     0.059 C 
HETATM    9  H   UNL     1      42.505 -11.473   1.934  1.00  0.00     0.165 HD
ENDROOT
BRANCH   8  10
HETATM   10  C   UNL     1      41.400 -15.800   2.867  1.00  0.00     0.256 C 
HETATM   11  N   UNL     1      42.582 -16.399   2.502  1.00  0.00    -0.321 N 
HETATM   12  H   UNL     1      43.166 -15.947   1.803  1.00  0.00     0.169 HD
HETATM   13  O   UNL     1      40.578 -16.199   3.682  1.00  0.00    -0.267 OA
BRANCH  11  14
HETATM   14  C   UNL     1      43.098 -17.641   2.936  1.00  0.00     0.068 A 
HETATM   15  C   UNL     1      43.751 -17.656   4.188  1.00  0.00     0.095 A 
HETATM   16  C   UNL     1      44.300 -18.849   4.669  1.00  0.00     0.039 A 
HETATM   17  C   UNL     1      44.196 -20.021   3.918  1.00  0.00     0.003 A 
HETATM   18  C   UNL     1      43.546 -20.006   2.686  1.00  0.00     0.002 A 
HETATM   19  C   UNL     1      43.000 -18.820   2.194  1.00  0.00     0.032 A 
BRANCH  15  20
HETATM   20  O   UNL     1      43.795 -16.447   4.843  1.00  0.00    -0.354 OA
HETATM   21  C   UNL     1      44.282 -16.454   6.179  1.00  0.00     0.210 C 
ENDBRANCH  15  20
ENDBRANCH  11  14
ENDBRANCH   8  10
BRANCH   7  22
HETATM   22  C   UNL     1      41.108 -12.714   3.934  1.00  0.00    -0.016 A 
HETATM   23  C   UNL     1      41.816 -12.163   5.033  1.00  0.00     0.056 A 
HETATM   24  C   UNL     1      41.095 -11.621   6.115  1.00  0.00     0.017 A 
HETATM   25  C   UNL     1      39.702 -11.600   6.115  1.00  0.00     0.001 A 
HETATM   26  C   UNL     1      39.004 -12.114   5.031  1.00  0.00     0.001 A 
HETATM   27  C   UNL     1      39.697 -12.660   3.952  1.00  0.00     0.010 A 
BRANCH  23  28
HETATM   28  C   UNL     1      43.329 -12.122   5.073  1.00  0.00     0.418 C 
HETATM   29  F   UNL     1      43.799 -11.572   6.226  1.00  0.00    -0.166 F 
HETATM   30  F   UNL     1      43.917 -13.348   4.983  1.00  0.00    -0.166 F 
HETATM   31  F   UNL     1      43.855 -11.382   4.059  1.00  0.00    -0.166 F 
ENDBRANCH  23  28
ENDBRANCH   7  22
BRANCH   3  32
HETATM   32  C   UNL     1      39.450 -13.081  -0.828  1.00  0.00     0.160 C 
BRANCH  32  33
HETATM   33  C   UNL     1      40.154 -13.123  -2.192  1.00  0.00     0.187 C 
BRANCH  33  34
HETATM   34  O   UNL     1      39.850 -14.331  -2.891  1.00  0.00    -0.394 OA
HETATM   35  C   UNL     1      38.482 -14.389  -3.271  1.00  0.00     0.201 C 
ENDBRANCH  33  34
ENDBRANCH  32  33
ENDBRANCH   3  32
TORSDOF 8
ENDMDL
MODEL 4
REMARK VINA RESULT:      -7.4      2.677      6.277
REMARK  8 active torsions:
REMARK  status: ('A' for Active; 'I' for Inactive)
REMARK    1  A    between atoms: N_3  and  C_4 
REMARK    2  A    between atoms: C_4  and  C_5 
REMARK    3  A    between atoms: C_5  and  O_6 
REMARK    4  A    between atoms: C_11  and  C_12 
REMARK    5  A    between atoms: C_13  and  C_14 
REMARK    6  A    between atoms: C_22  and  C_23 
REMARK       I    between atoms: C_23  and  N_24 
REMARK    7  A    between atoms: N_24  and  C_25 
REMARK    8  A    between atoms: C_26  and  O_27 
ROOT
HETATM    1  C   UNL     1      41.473 -12.028   4.187  1.00  0.00     0.069 C 
HETATM    2  C   UNL     1      40.546 -12.133   3.000  1.00  0.00     0.026 C 
HETATM    3  N   UNL     1      39.443 -11.267   2.922  1.00  0.00    -0.301 N 
HETATM    4  C   UNL     1      38.400 -11.462   2.010  1.00  0.00     0.323 C 
HETATM    5  O   UNL     1      37.375 -10.786   1.950  1.00  0.00    -0.247 OA
HETATM    6  N   UNL     1      38.525 -12.525   1.168  1.00  0.00    -0.330 N 
HETATM    7  C   UNL     1      39.775 -13.165   0.858  1.00  0.00     0.161 C 
HETATM    8  C   UNL     1      40.713 -13.041   2.017  1.00  0.00     0.059 C 
HETATM    9  H   UNL     1      37.761 -12.606   0.512  1.00  0.00     0.165 HD
ENDROOT
BRANCH   8  10
HETATM   10  C   UNL     1      41.788 -14.066   2.082  1.00  0.00     0.256 C 
HETATM   11  N   UNL     1      41.416 -15.181   2.793  1.00  0.00    -0.321 N 
HETATM   12  H   UNL     1      40.485 -15.217   3.201  1.00  0.00     0.169 HD
HETATM   13  O   UNL     1      42.860 -13.852   1.530  1.00  0.00    -0.267 OA
BRANCH  11  14
HETATM   14  C   UNL     1      42.199 -16.315   3.107  1.00  0.00     0.068 A 
HETATM   15  C   UNL     1      42.557 -16.486   4.462  1.00  0.00     0.095 A 
HETATM   16  C   UNL     1      43.345 -17.578   4.839  1.00  0.00     0.039 A 
HETATM   17  C   UNL     1      43.771 -18.498   3.880  1.00  0.00     0.003 A 
HETATM   18  C   UNL     1      43.414 -18.332   2.544  1.00  0.00     0.002 A 
HETATM   19  C   UNL     1      42.632 -17.242   2.157  1.00  0.00     0.032 A 
BRANCH  15  20
HETATM   20  O   UNL     1      42.083 -15.522   5.322  1.00  0.00    -0.354 OA
HETATM   21  C   UNL     1      41.684 -15.951   6.618  1.00  0.00     0.210 C 
ENDBRANCH  15  20
ENDBRANCH  11  14
ENDBRANCH   8  10
BRANCH   7  22
HETATM   22  C   UNL     1      40.320 -12.604  -0.459  1.00  0.00    -0.016 A 
HETATM   23  C   UNL     1      40.036 -13.209  -1.710  1.00  0.00     0.056 A 
HETATM   24  C   UNL     1      40.567 -12.644  -2.886  1.00  0.00     0.017 A 
HETATM   25  C   UNL     1      41.349 -11.491  -2.842  1.00  0.00     0.001 A 
HETATM   26  C   UNL     1      41.609 -10.880  -1.623  1.00  0.00     0.001 A 
HETATM   27  C   UNL     1      41.097 -11.426  -0.447  1.00  0.00     0.010 A 
BRANCH  23  28
HETATM   28  C   UNL     1      39.161 -14.440  -1.825  1.00  0.00     0.418 C 
HETATM   29  F   UNL     1      39.398 -15.135  -2.972  1.00  0.00    -0.166 F 
HETATM   30  F   UNL     1      39.330 -15.334  -0.811  1.00  0.00    -0.166 F 
HETATM   31  F   UNL     1      37.835 -14.134  -1.835  1.00  0.00    -0.166 F 
ENDBRANCH  23  28
ENDBRANCH   7  22
BRANCH   3  32
HETATM   32  C   UNL     1      39.303 -10.109   3.819  1.00  0.00     0.160 C 
BRANCH  32  33
HETATM   33  C   UNL     1      38.587 -10.439   5.137  1.00  0.00     0.187 C 
BRANCH  33  34
HETATM   34  O   UNL     1      37.914  -9.292   5.658  1.00  0.00    -0.394 OA
HETATM   35  C   UNL     1      37.805  -8.260   4.687  1.00  0.00     0.201 C 
ENDBRANCH  33  34
ENDBRANCH  32  33
ENDBRANCH   3  32
TORSDOF 8
ENDMDL
MODEL 5
REMARK VINA RESULT:      -7.1      3.004      6.628
REMARK  8 active torsions:
REMARK  status: ('A' for Active; 'I' for Inactive)
REMARK    1  A    between atoms: N_3  and  C_4 
REMARK    2  A    between atoms: C_4  and  C_5 
REMARK    3  A    between atoms: C_5  and  O_6 
REMARK    4  A    between atoms: C_11  and  C_12 
REMARK    5  A    between atoms: C_13  and  C_14 
REMARK    6  A    between atoms: C_22  and  C_23 
REMARK       I    between atoms: C_23  and  N_24 
REMARK    7  A    between atoms: N_24  and  C_25 
REMARK    8  A    between atoms: C_26  and  O_27 
ROOT
HETATM    1  C   UNL     1      39.874 -14.415   2.620  1.00  0.00     0.069 C 
HETATM    2  C   UNL     1      40.887 -13.335   2.917  1.00  0.00     0.026 C 
HETATM    3  N   UNL     1      40.975 -12.233   2.051  1.00  0.00    -0.301 N 
HETATM    4  C   UNL     1      42.042 -11.329   2.096  1.00  0.00     0.323 C 
HETATM    5  O   UNL     1      42.213 -10.395   1.315  1.00  0.00    -0.247 OA
HETATM    6  N   UNL     1      42.984 -11.554   3.053  1.00  0.00    -0.330 N 
HETATM    7  C   UNL     1      42.759 -12.338   4.238  1.00  0.00     0.161 C 
HETATM    8  C   UNL     1      41.733 -13.392   3.965  1.00  0.00     0.059 C 
HETATM    9  H   UNL     1      43.718 -10.859   3.061  1.00  0.00     0.165 HD
ENDROOT
BRANCH   8  10
HETATM   10  C   UNL     1      41.781 -14.577   4.861  1.00  0.00     0.256 C 
HETATM   11  N   UNL     1      42.823 -15.423   4.567  1.00  0.00    -0.321 N 
HETATM   12  H   UNL     1      43.446 -15.188   3.799  1.00  0.00     0.169 HD
HETATM   13  O   UNL     1      40.938 -14.703   5.740  1.00  0.00    -0.267 OA
BRANCH  11  14
HETATM   14  C   UNL     1      43.132 -16.664   5.169  1.00  0.00     0.068 A 
HETATM   15  C   UNL     1      43.528 -17.709   4.305  1.00  0.00     0.095 A 
HETATM   16  C   UNL     1      43.831 -18.968   4.833  1.00  0.00     0.039 A 
HETATM   17  C   UNL     1      43.751 -19.188   6.209  1.00  0.00     0.003 A 
HETATM   18  C   UNL     1      43.366 -18.156   7.061  1.00  0.00     0.002 A 
HETATM   19  C   UNL     1      43.055 -16.897   6.543  1.00  0.00     0.032 A 
BRANCH  15  20
HETATM   20  O   UNL     1      43.574 -17.382   2.969  1.00  0.00    -0.354 OA
HETATM   21  C   UNL     1      43.023 -18.322   2.055  1.00  0.00     0.210 C 
ENDBRANCH  15  20
ENDBRANCH  11  14
ENDBRANCH   8  10
BRANCH   7  22
HETATM   22  C   UNL     1      42.412 -11.406   5.403  1.00  0.00    -0.016 A 
HETATM   23  C   UNL     1      43.321 -11.155   6.463  1.00  0.00     0.056 A 
HETATM   24  C   UNL     1      42.943 -10.288   7.506  1.00  0.00     0.017 A 
HETATM   25  C   UNL     1      41.699  -9.658   7.505  1.00  0.00     0.001 A 
HETATM   26  C   UNL     1      40.815  -9.880   6.457  1.00  0.00     0.001 A 
HETATM   27  C   UNL     1      41.168 -10.739   5.418  1.00  0.00     0.010 A 
BRANCH  23  28
HETATM   28  C   UNL     1      44.701 -11.779   6.500  1.00  0.00     0.418 C 
HETATM   29  F   UNL     1      44.652 -13.140   6.487  1.00  0.00    -0.166 F 
HETATM   30  F   UNL     1      45.492 -11.429   5.448  1.00  0.00    -0.166 F 
HETATM   31  F   UNL     1      45.395 -11.436   7.618  1.00  0.00    -0.166 F 
ENDBRANCH  23  28
ENDBRANCH   7  22
BRANCH   3  32
HETATM   32  C   UNL     1      39.957 -11.974   1.021  1.00  0.00     0.160 C 
BRANCH  32  33
HETATM   33  C   UNL     1      38.690 -11.300   1.568  1.00  0.00     0.187 C 
BRANCH  33  34
HETATM   34  O   UNL     1      38.892  -9.897   1.750  1.00  0.00    -0.394 OA
HETATM   35  C   UNL     1      38.546  -9.483   3.065  1.00  0.00     0.201 C 
ENDBRANCH  33  34
ENDBRANCH  32  33
ENDBRANCH   3  32
TORSDOF 8
ENDMDL
MODEL 6
REMARK VINA RESULT:      -6.9      3.269      6.169
REMARK  8 active torsions:
REMARK  status: ('A' for Active; 'I' for Inactive)
REMARK    1  A    between atoms: N_3  and  C_4 
REMARK    2  A    between atoms: C_4  and  C_5 
REMARK    3  A    between atoms: C_5  and  O_6 
REMARK    4  A    between atoms: C_11  and  C_12 
REMARK    5  A    between atoms: C_13  and  C_14 
REMARK    6  A    between atoms: C_22  and  C_23 
REMARK       I    between atoms: C_23  and  N_24 
REMARK    7  A    between atoms: N_24  and  C_25 
REMARK    8  A    between atoms: C_26  and  O_27 
ROOT
HETATM    1  C   UNL     1      45.132 -11.702   6.212  1.00  0.00     0.069 C 
HETATM    2  C   UNL     1      43.680 -11.294   6.272  1.00  0.00     0.026 C 
HETATM    3  N   UNL     1      43.278 -10.357   7.238  1.00  0.00    -0.301 N 
HETATM    4  C   UNL     1      41.932 -10.119   7.537  1.00  0.00     0.323 C 
HETATM    5  O   UNL     1      41.524  -9.374   8.425  1.00  0.00    -0.247 OA
HETATM    6  N   UNL     1      41.019 -10.823   6.812  1.00  0.00    -0.330 N 
HETATM    7  C   UNL     1      41.295 -11.426   5.536  1.00  0.00     0.161 C 
HETATM    8  C   UNL     1      42.739 -11.807   5.452  1.00  0.00     0.059 C 
HETATM    9  H   UNL     1      40.063 -10.595   7.046  1.00  0.00     0.165 HD
ENDROOT
BRANCH   8  10
HETATM   10  C   UNL     1      43.061 -12.884   4.480  1.00  0.00     0.256 C 
HETATM   11  N   UNL     1      42.719 -14.134   4.939  1.00  0.00    -0.321 N 
HETATM   12  H   UNL     1      42.297 -14.221   5.859  1.00  0.00     0.169 HD
HETATM   13  O   UNL     1      43.577 -12.594   3.408  1.00  0.00    -0.267 OA
BRANCH  11  14
HETATM   14  C   UNL     1      42.935 -15.381   4.310  1.00  0.00     0.068 A 
HETATM   15  C   UNL     1      43.707 -16.326   5.020  1.00  0.00     0.095 A 
HETATM   16  C   UNL     1      43.974 -17.574   4.449  1.00  0.00     0.039 A 
HETATM   17  C   UNL     1      43.472 -17.886   3.184  1.00  0.00     0.003 A 
HETATM   18  C   UNL     1      42.706 -16.956   2.486  1.00  0.00     0.002 A 
HETATM   19  C   UNL     1      42.439 -15.705   3.046  1.00  0.00     0.032 A 
BRANCH  15  20
HETATM   20  O   UNL     1      44.150 -15.914   6.256  1.00  0.00    -0.354 OA
HETATM   21  C   UNL     1      43.808 -16.731   7.370  1.00  0.00     0.210 C 
ENDBRANCH  15  20
ENDBRANCH  11  14
ENDBRANCH   8  10
BRANCH   7  22
HETATM   22  C   UNL     1      40.824 -10.489   4.419  1.00  0.00    -0.016 A 
HETATM   23  C   UNL     1      39.987 -10.935   3.365  1.00  0.00     0.056 A 
HETATM   24  C   UNL     1      39.588 -10.023   2.368  1.00  0.00     0.017 A 
HETATM   25  C   UNL     1      39.985  -8.688   2.411  1.00  0.00     0.001 A 
HETATM   26  C   UNL     1      40.784  -8.240   3.455  1.00  0.00     0.001 A 
HETATM   27  C   UNL     1      41.194  -9.127   4.449  1.00  0.00     0.010 A 
BRANCH  23  28
HETATM   28  C   UNL     1      39.490 -12.364   3.285  1.00  0.00     0.418 C 
HETATM   29  F   UNL     1      40.397 -13.192   2.698  1.00  0.00    -0.166 F 
HETATM   30  F   UNL     1      39.214 -12.920   4.498  1.00  0.00    -0.166 F 
HETATM   31  F   UNL     1      38.347 -12.475   2.556  1.00  0.00    -0.166 F 
ENDBRANCH  23  28
ENDBRANCH   7  22
BRANCH   3  32
HETATM   32  C   UNL     1      44.256  -9.583   8.020  1.00  0.00     0.160 C 
BRANCH  32  33
HETATM   33  C   UNL     1      44.703 -10.287   9.309  1.00  0.00     0.187 C 
BRANCH  33  34
HETATM   34  O   UNL     1      44.179  -9.629  10.463  1.00  0.00    -0.394 OA
HETATM   35  C   UNL     1      43.563 -10.546  11.358  1.00  0.00     0.201 C 
ENDBRANCH  33  34
ENDBRANCH  32  33
ENDBRANCH   3  32
TORSDOF 8
ENDMDL
MODEL 7
REMARK VINA RESULT:      -6.9     16.410     18.179
REMARK  8 active torsions:
REMARK  status: ('A' for Active; 'I' for Inactive)
REMARK    1  A    between atoms: N_3  and  C_4 
REMARK    2  A    between atoms: C_4  and  C_5 
REMARK    3  A    between atoms: C_5  and  O_6 
REMARK    4  A    between atoms: C_11  and  C_12 
REMARK    5  A    between atoms: C_13  and  C_14 
REMARK    6  A    between atoms: C_22  and  C_23 
REMARK       I    between atoms: C_23  and  N_24 
REMARK    7  A    between atoms: N_24  and  C_25 
REMARK    8  A    between atoms: C_26  and  O_27 
ROOT
HETATM    1  C   UNL     1      42.748 -33.239   0.535  1.00  0.00     0.069 C 
HETATM    2  C   UNL     1      43.075 -31.855   1.042  1.00  0.00     0.026 C 
HETATM    3  N   UNL     1      42.427 -31.386   2.197  1.00  0.00    -0.301 N 
HETATM    4  C   UNL     1      42.468 -30.042   2.585  1.00  0.00     0.323 C 
HETATM    5  O   UNL     1      41.858 -29.560   3.536  1.00  0.00    -0.247 OA
HETATM    6  N   UNL     1      43.204 -29.209   1.799  1.00  0.00    -0.330 N 
HETATM    7  C   UNL     1      44.243 -29.650   0.907  1.00  0.00     0.161 C 
HETATM    8  C   UNL     1      43.946 -31.033   0.422  1.00  0.00     0.059 C 
HETATM    9  H   UNL     1      43.225 -28.256   2.137  1.00  0.00     0.165 HD
ENDROOT
BRANCH   8  10
HETATM   10  C   UNL     1      44.586 -31.411  -0.866  1.00  0.00     0.256 C 
HETATM   11  N   UNL     1      43.874 -30.981  -1.959  1.00  0.00    -0.321 N 
HETATM   12  H   UNL     1      43.009 -30.468  -1.812  1.00  0.00     0.169 HD
HETATM   13  O   UNL     1      45.637 -32.039  -0.855  1.00  0.00    -0.267 OA
BRANCH  11  14
HETATM   14  C   UNL     1      44.153 -31.214  -3.325  1.00  0.00     0.068 A 
HETATM   15  C   UNL     1      44.325 -30.075  -4.142  1.00  0.00     0.095 A 
HETATM   16  C   UNL     1      44.587 -30.233  -5.506  1.00  0.00     0.039 A 
HETATM   17  C   UNL     1      44.684 -31.512  -6.057  1.00  0.00     0.003 A 
HETATM   18  C   UNL     1      44.520 -32.635  -5.250  1.00  0.00     0.002 A 
HETATM   19  C   UNL     1      44.252 -32.488  -3.888  1.00  0.00     0.032 A 
BRANCH  15  20
HETATM   20  O   UNL     1      44.209 -28.865  -3.497  1.00  0.00    -0.354 OA
HETATM   21  C   UNL     1      45.103 -27.833  -3.894  1.00  0.00     0.210 C 
ENDBRANCH  15  20
ENDBRANCH  11  14
ENDBRANCH   8  10
BRANCH   7  22
HETATM   22  C   UNL     1      45.602 -29.502   1.599  1.00  0.00    -0.016 A 
HETATM   23  C   UNL     1      46.696 -28.846   0.977  1.00  0.00     0.056 A 
HETATM   24  C   UNL     1      47.920 -28.743   1.667  1.00  0.00     0.017 A 
HETATM   25  C   UNL     1      48.068 -29.256   2.954  1.00  0.00     0.001 A 
HETATM   26  C   UNL     1      46.993 -29.875   3.578  1.00  0.00     0.001 A 
HETATM   27  C   UNL     1      45.775 -29.993   2.911  1.00  0.00     0.010 A 
BRANCH  23  28
HETATM   28  C   UNL     1      46.584 -28.235  -0.404  1.00  0.00     0.418 C 
HETATM   29  F   UNL     1      47.598 -27.364  -0.664  1.00  0.00    -0.166 F 
HETATM   30  F   UNL     1      46.613 -29.147  -1.415  1.00  0.00    -0.166 F 
HETATM   31  F   UNL     1      45.431 -27.533  -0.569  1.00  0.00    -0.166 F 
ENDBRANCH  23  28
ENDBRANCH   7  22
BRANCH   3  32
HETATM   32  C   UNL     1      41.638 -32.279   3.059  1.00  0.00     0.160 C 
BRANCH  32  33
HETATM   33  C   UNL     1      40.129 -32.227   2.777  1.00  0.00     0.187 C 
BRANCH  33  34
HETATM   34  O   UNL     1      39.380 -32.690   3.902  1.00  0.00    -0.394 OA
HETATM   35  C   UNL     1      39.746 -32.011   5.095  1.00  0.00     0.201 C 
ENDBRANCH  33  34
ENDBRANCH  32  33
ENDBRANCH   3  32
TORSDOF 8
ENDMDL
MODEL 8
REMARK VINA RESULT:      -6.9     16.679     19.195
REMARK  8 active torsions:
REMARK  status: ('A' for Active; 'I' for Inactive)
REMARK    1  A    between atoms: N_3  and  C_4 
REMARK    2  A    between atoms: C_4  and  C_5 
REMARK    3  A    between atoms: C_5  and  O_6 
REMARK    4  A    between atoms: C_11  and  C_12 
REMARK    5  A    between atoms: C_13  and  C_14 
REMARK    6  A    between atoms: C_22  and  C_23 
REMARK       I    between atoms: C_23  and  N_24 
REMARK    7  A    between atoms: N_24  and  C_25 
REMARK    8  A    between atoms: C_26  and  O_27 
ROOT
HETATM    1  C   UNL     1      47.984 -29.050  -1.959  1.00  0.00     0.069 C 
HETATM    2  C   UNL     1      46.526 -29.215  -1.603  1.00  0.00     0.026 C 
HETATM    3  N   UNL     1      45.587 -29.358  -2.639  1.00  0.00    -0.301 N 
HETATM    4  C   UNL     1      44.209 -29.254  -2.420  1.00  0.00     0.323 C 
HETATM    5  O   UNL     1      43.348 -29.290  -3.296  1.00  0.00    -0.247 OA
HETATM    6  N   UNL     1      43.816 -29.041  -1.134  1.00  0.00    -0.330 N 
HETATM    7  C   UNL     1      44.627 -29.338   0.016  1.00  0.00     0.161 C 
HETATM    8  C   UNL     1      46.075 -29.208  -0.332  1.00  0.00     0.059 C 
HETATM    9  H   UNL     1      42.812 -29.002  -1.025  1.00  0.00     0.165 HD
ENDROOT
BRANCH   8  10
HETATM   10  C   UNL     1      46.988 -28.949   0.813  1.00  0.00     0.256 C 
HETATM   11  N   UNL     1      47.756 -30.040   1.137  1.00  0.00    -0.321 N 
HETATM   12  H   UNL     1      47.646 -30.896   0.600  1.00  0.00     0.169 HD
HETATM   13  O   UNL     1      46.985 -27.847   1.348  1.00  0.00    -0.267 OA
BRANCH  11  14
HETATM   14  C   UNL     1      48.679 -30.170   2.200  1.00  0.00     0.068 A 
HETATM   15  C   UNL     1      50.049 -30.134   1.861  1.00  0.00     0.095 A 
HETATM   16  C   UNL     1      51.015 -30.273   2.862  1.00  0.00     0.039 A 
HETATM   17  C   UNL     1      50.626 -30.439   4.192  1.00  0.00     0.003 A 
HETATM   18  C   UNL     1      49.275 -30.469   4.527  1.00  0.00     0.002 A 
HETATM   19  C   UNL     1      48.302 -30.337   3.534  1.00  0.00     0.032 A 
BRANCH  15  20
HETATM   20  O   UNL     1      50.319 -29.964   0.523  1.00  0.00    -0.354 OA
HETATM   21  C   UNL     1      51.085 -30.979  -0.115  1.00  0.00     0.210 C 
ENDBRANCH  15  20
ENDBRANCH  11  14
ENDBRANCH   8  10
BRANCH   7  22
HETATM   22  C   UNL     1      44.232 -30.709   0.575  1.00  0.00    -0.016 A 
HETATM   23  C   UNL     1      43.409 -30.846   1.721  1.00  0.00     0.056 A 
HETATM   24  C   UNL     1      43.081 -32.136   2.185  1.00  0.00     0.017 A 
HETATM   25  C   UNL     1      43.536 -33.276   1.525  1.00  0.00     0.001 A 
HETATM   26  C   UNL     1      44.321 -33.148   0.387  1.00  0.00     0.001 A 
HETATM   27  C   UNL     1      44.661 -31.881  -0.085  1.00  0.00     0.010 A 
BRANCH  23  28
HETATM   28  C   UNL     1      42.852 -29.645   2.458  1.00  0.00     0.418 C 
HETATM   29  F   UNL     1      42.030 -28.895   1.672  1.00  0.00    -0.166 F 
HETATM   30  F   UNL     1      42.117 -29.966   3.559  1.00  0.00    -0.166 F 
HETATM   31  F   UNL     1      43.829 -28.806   2.894  1.00  0.00    -0.166 F 
ENDBRANCH  23  28
ENDBRANCH   7  22
BRANCH   3  32
HETATM   32  C   UNL     1      46.001 -29.600  -4.030  1.00  0.00     0.160 C 
BRANCH  32  33
HETATM   33  C   UNL     1      46.072 -31.090  -4.397  1.00  0.00     0.187 C 
BRANCH  33  34
HETATM   34  O   UNL     1      45.831 -31.288  -5.791  1.00  0.00    -0.394 OA
HETATM   35  C   UNL     1      46.576 -32.385  -6.302  1.00  0.00     0.201 C 
ENDBRANCH  33  34
ENDBRANCH  32  33
ENDBRANCH   3  32
TORSDOF 8
ENDMDL
MODEL 9
REMARK VINA RESULT:      -6.7      1.745      2.409
REMARK  8 active torsions:
REMARK  status: ('A' for Active; 'I' for Inactive)
REMARK    1  A    between atoms: N_3  and  C_4 
REMARK    2  A    between atoms: C_4  and  C_5 
REMARK    3  A    between atoms: C_5  and  O_6 
REMARK    4  A    between atoms: C_11  and  C_12 
REMARK    5  A    between atoms: C_13  and  C_14 
REMARK    6  A    between atoms: C_22  and  C_23 
REMARK       I    between atoms: C_23  and  N_24 
REMARK    7  A    between atoms: N_24  and  C_25 
REMARK    8  A    between atoms: C_26  and  O_27 
ROOT
HETATM    1  C   UNL     1      40.373 -10.457   6.343  1.00  0.00     0.069 C 
HETATM    2  C   UNL     1      41.652 -11.132   5.909  1.00  0.00     0.026 C 
HETATM    3  N   UNL     1      42.843 -10.831   6.591  1.00  0.00    -0.301 N 
HETATM    4  C   UNL     1      44.100 -11.200   6.100  1.00  0.00     0.323 C 
HETATM    5  O   UNL     1      45.177 -10.896   6.609  1.00  0.00    -0.247 OA
HETATM    6  N   UNL     1      44.111 -11.904   4.935  1.00  0.00    -0.330 N 
HETATM    7  C   UNL     1      42.984 -12.639   4.426  1.00  0.00     0.161 C 
HETATM    8  C   UNL     1      41.710 -11.997   4.876  1.00  0.00     0.059 C 
HETATM    9  H   UNL     1      45.040 -12.170   4.638  1.00  0.00     0.165 HD
ENDROOT
BRANCH   8  10
HETATM   10  C   UNL     1      40.519 -12.281   4.034  1.00  0.00     0.256 C 
HETATM   11  N   UNL     1      40.472 -11.505   2.901  1.00  0.00    -0.321 N 
HETATM   12  H   UNL     1      41.215 -10.831   2.736  1.00  0.00     0.169 HD
HETATM   13  O   UNL     1      39.717 -13.134   4.392  1.00  0.00    -0.267 OA
BRANCH  11  14
HETATM   14  C   UNL     1      39.460 -11.465   1.915  1.00  0.00     0.068 A 
HETATM   15  C   UNL     1      38.320 -10.683   2.205  1.00  0.00     0.095 A 
HETATM   16  C   UNL     1      37.273 -10.613   1.281  1.00  0.00     0.039 A 
HETATM   17  C   UNL     1      37.359 -11.307   0.073  1.00  0.00     0.003 A 
HETATM   18  C   UNL     1      38.486 -12.073  -0.216  1.00  0.00     0.002 A 
HETATM   19  C   UNL     1      39.533 -12.155   0.703  1.00  0.00     0.032 A 
BRANCH  15  20
HETATM   20  O   UNL     1      38.341 -10.042   3.422  1.00  0.00    -0.354 OA
HETATM   21  C   UNL     1      38.253  -8.622   3.406  1.00  0.00     0.210 C 
ENDBRANCH  15  20
ENDBRANCH  11  14
ENDBRANCH   8  10
BRANCH   7  22
HETATM   22  C   UNL     1      43.121 -14.113   4.820  1.00  0.00    -0.016 A 
HETATM   23  C   UNL     1      43.137 -15.152   3.854  1.00  0.00     0.056 A 
HETATM   24  C   UNL     1      43.266 -16.489   4.281  1.00  0.00     0.017 A 
HETATM   25  C   UNL     1      43.398 -16.805   5.632  1.00  0.00     0.001 A 
HETATM   26  C   UNL     1      43.410 -15.790   6.580  1.00  0.00     0.001 A 
HETATM   27  C   UNL     1      43.278 -14.461   6.179  1.00  0.00     0.010 A 
BRANCH  23  28
HETATM   28  C   UNL     1      43.037 -14.869   2.370  1.00  0.00     0.418 C 
HETATM   29  F   UNL     1      43.302 -15.972   1.616  1.00  0.00    -0.166 F 
HETATM   30  F   UNL     1      41.807 -14.439   1.973  1.00  0.00    -0.166 F 
HETATM   31  F   UNL     1      43.914 -13.912   1.964  1.00  0.00    -0.166 F 
ENDBRANCH  23  28
ENDBRANCH   7  22
BRANCH   3  32
HETATM   32  C   UNL     1      42.842 -10.081   7.856  1.00  0.00     0.160 C 
BRANCH  32  33
HETATM   33  C   UNL     1      42.907  -8.558   7.665  1.00  0.00     0.187 C 
BRANCH  33  34
HETATM   34  O   UNL     1      44.088  -8.015   8.260  1.00  0.00    -0.394 OA
HETATM   35  C   UNL     1      44.523  -8.791   9.368  1.00  0.00     0.201 C 
ENDBRANCH  33  34
ENDBRANCH  32  33
ENDBRANCH   3  32
TORSDOF 8
ENDMDL
MODEL 10
REMARK VINA RESULT:      -6.6      7.000     10.174
REMARK  8 active torsions:
REMARK  status: ('A' for Active; 'I' for Inactive)
REMARK    1  A    between atoms: N_3  and  C_4 
REMARK    2  A    between atoms: C_4  and  C_5 
REMARK    3  A    between atoms: C_5  and  O_6 
REMARK    4  A    between atoms: C_11  and  C_12 
REMARK    5  A    between atoms: C_13  and  C_14 
REMARK    6  A    between atoms: C_22  and  C_23 
REMARK       I    between atoms: C_23  and  N_24 
REMARK    7  A    between atoms: N_24  and  C_25 
REMARK    8  A    between atoms: C_26  and  O_27 
ROOT
HETATM    1  C   UNL     1      43.890  -8.106   8.269  1.00  0.00     0.069 C 
HETATM    2  C   UNL     1      43.358  -8.746   9.529  1.00  0.00     0.026 C 
HETATM    3  N   UNL     1      44.100  -9.775  10.132  1.00  0.00    -0.301 N 
HETATM    4  C   UNL     1      43.568 -10.592  11.136  1.00  0.00     0.323 C 
HETATM    5  O   UNL     1      44.139 -11.555  11.642  1.00  0.00    -0.247 OA
HETATM    6  N   UNL     1      42.294 -10.315  11.528  1.00  0.00    -0.330 N 
HETATM    7  C   UNL     1      41.644  -9.049  11.323  1.00  0.00     0.161 C 
HETATM    8  C   UNL     1      42.185  -8.391  10.093  1.00  0.00     0.059 C 
HETATM    9  H   UNL     1      41.967 -10.915  12.273  1.00  0.00     0.165 HD
ENDROOT
BRANCH   8  10
HETATM   10  C   UNL     1      41.289  -7.391   9.455  1.00  0.00     0.256 C 
HETATM   11  N   UNL     1      40.314  -7.971   8.679  1.00  0.00    -0.321 N 
HETATM   12  H   UNL     1      40.284  -8.984   8.603  1.00  0.00     0.169 HD
HETATM   13  O   UNL     1      41.475  -6.198   9.657  1.00  0.00    -0.267 OA
BRANCH  11  14
HETATM   14  C   UNL     1      39.337  -7.328   7.885  1.00  0.00     0.068 A 
HETATM   15  C   UNL     1      39.037  -7.923   6.640  1.00  0.00     0.095 A 
HETATM   16  C   UNL     1      38.092  -7.330   5.797  1.00  0.00     0.039 A 
HETATM   17  C   UNL     1      37.444  -6.158   6.189  1.00  0.00     0.003 A 
HETATM   18  C   UNL     1      37.736  -5.574   7.419  1.00  0.00     0.002 A 
HETATM   19  C   UNL     1      38.682  -6.155   8.265  1.00  0.00     0.032 A 
BRANCH  15  20
HETATM   20  O   UNL     1      39.734  -9.075   6.356  1.00  0.00    -0.354 OA
HETATM   21  C   UNL     1      38.969 -10.254   6.132  1.00  0.00     0.210 C 
ENDBRANCH  15  20
ENDBRANCH  11  14
ENDBRANCH   8  10
BRANCH   7  22
HETATM   22  C   UNL     1      41.764  -8.205  12.595  1.00  0.00    -0.016 A 
HETATM   23  C   UNL     1      40.625  -7.737  13.299  1.00  0.00     0.056 A 
HETATM   24  C   UNL     1      40.803  -6.965  14.464  1.00  0.00     0.017 A 
HETATM   25  C   UNL     1      42.077  -6.670  14.946  1.00  0.00     0.001 A 
HETATM   26  C   UNL     1      43.195  -7.147  14.276  1.00  0.00     0.001 A 
HETATM   27  C   UNL     1      43.042  -7.908  13.118  1.00  0.00     0.010 A 
BRANCH  23  28
HETATM   28  C   UNL     1      39.215  -8.058  12.847  1.00  0.00     0.418 C 
HETATM   29  F   UNL     1      38.965  -9.397  12.853  1.00  0.00    -0.166 F 
HETATM   30  F   UNL     1      38.246  -7.499  13.624  1.00  0.00    -0.166 F 
HETATM   31  F   UNL     1      38.968  -7.632  11.579  1.00  0.00    -0.166 F 
ENDBRANCH  23  28
ENDBRANCH   7  22
BRANCH   3  32
HETATM   32  C   UNL     1      45.481 -10.075   9.724  1.00  0.00     0.160 C 
BRANCH  32  33
HETATM   33  C   UNL     1      45.579 -10.743   8.344  1.00  0.00     0.187 C 
BRANCH  33  34
HETATM   34  O   UNL     1      44.543 -11.710   8.165  1.00  0.00    -0.394 OA
HETATM   35  C   UNL     1      44.416 -12.100   6.805  1.00  0.00     0.201 C 
ENDBRANCH  33  34
ENDBRANCH  32  33
ENDBRANCH   3  32
TORSDOF 8
ENDMDL
