MODEL 1
REMARK VINA RESULT:      -9.0      0.000      0.000
REMARK  4 active torsions:
REMARK  status: ('A' for Active; 'I' for Inactive)
REMARK    1  A    between atoms: N_4  and  C_5 
REMARK    2  A    between atoms: C_14  and  C_15 
REMARK       I    between atoms: C_15  and  N_16 
REMARK    3  A    between atoms: N_16  and  N_17 
REMARK       I    between atoms: N_17  and  C_18 
REMARK       I    between atoms: C_18  and  N_19 
REMARK    4  A    between atoms: N_19  and  C_20 
ROOT
HETATM    1  C   UNL     1      44.327 -11.083   8.338  1.00  0.00     0.277 C 
HETATM    2  N   UNL     1      43.399 -10.830   9.329  1.00  0.00    -0.261 N 
HETATM    3  O   UNL     1      45.534 -10.977   8.556  1.00  0.00    -0.265 OA
HETATM    4  H   UNL     1      42.397 -10.803   9.133  1.00  0.00     0.190 HD
ENDROOT
BRANCH   1   5
HETATM    5  C   UNL     1      43.771 -11.474   7.050  1.00  0.00     0.077 A 
HETATM    6  S   UNL     1      44.053 -13.070   6.395  1.00  0.00    -0.064 SA
HETATM    7  C   UNL     1      43.121 -12.719   5.061  1.00  0.00     0.113 A 
HETATM    8  N   UNL     1      42.662 -13.309   3.910  1.00  0.00    -0.226 N 
HETATM    9  C   UNL     1      42.633 -11.475   5.093  1.00  0.00     0.027 A 
HETATM   10  N   UNL     1      41.901 -12.392   3.201  1.00  0.00    -0.171 NA
HETATM   11  C   UNL     1      41.892 -11.268   3.945  1.00  0.00     0.064 A 
HETATM   12  C   UNL     1      41.168 -10.061   3.490  1.00  0.00     0.073 C 
HETATM   13  C   UNL     1      42.959 -10.711   6.209  1.00  0.00     0.041 A 
BRANCH   8  14
HETATM   14  C   UNL     1      42.838 -14.631   3.405  1.00  0.00     0.059 A 
HETATM   15  C   UNL     1      43.199 -14.802   2.057  1.00  0.00     0.031 A 
HETATM   16  C   UNL     1      43.365 -16.081   1.521  1.00  0.00     0.002 A 
HETATM   17  C   UNL     1      43.177 -17.203   2.323  1.00  0.00     0.000 A 
HETATM   18  C   UNL     1      42.824 -17.046   3.661  1.00  0.00     0.002 A 
HETATM   19  C   UNL     1      42.655 -15.768   4.203  1.00  0.00     0.031 A 
ENDBRANCH   8  14
ENDBRANCH   1   5
BRANCH   2  20
HETATM   20  N   UNL     1      43.802 -10.262  10.550  1.00  0.00    -0.249 N 
HETATM   21  C   UNL     1      42.819  -9.562  11.237  1.00  0.00     0.339 C 
HETATM   22  N   UNL     1      43.314  -8.939  12.359  1.00  0.00    -0.308 N 
HETATM   23  O   UNL     1      41.655  -9.571  10.846  1.00  0.00    -0.245 OA
HETATM   24  H   UNL     1      44.295  -9.085  12.548  1.00  0.00     0.170 HD
HETATM   25  H   UNL     1      44.768  -9.947  10.574  1.00  0.00     0.192 HD
BRANCH  22  26
HETATM   26  C   UNL     1      42.591  -8.184  13.306  1.00  0.00     0.038 A 
HETATM   27  C   UNL     1      42.370  -6.809  13.205  1.00  0.00     0.053 A 
HETATM   28  C   UNL     1      41.627  -6.144  14.183  1.00  0.00     0.036 A 
HETATM   29 CL   UNL     1      41.350  -4.449  14.042  1.00  0.00    -0.084 Cl
HETATM   30  C   UNL     1      41.104  -6.835  15.273  1.00  0.00     0.024 A 
HETATM   31  C   UNL     1      41.324  -8.205  15.385  1.00  0.00     0.004 A 
HETATM   32  C   UNL     1      42.064  -8.875  14.406  1.00  0.00     0.029 A 
ENDBRANCH  22  26
ENDBRANCH   2  20
TORSDOF 4
ENDMDL
MODEL 2
REMARK VINA RESULT:      -8.9      1.559      1.764
REMARK  4 active torsions:
REMARK  status: ('A' for Active; 'I' for Inactive)
REMARK    1  A    between atoms: N_4  and  C_5 
REMARK    2  A    between atoms: C_14  and  C_15 
REMARK       I    between atoms: C_15  and  N_16 
REMARK    3  A    between atoms: N_16  and  N_17 
REMARK       I    between atoms: N_17  and  C_18 
REMARK       I    between atoms: C_18  and  N_19 
REMARK    4  A    between atoms: N_19  and  C_20 
ROOT
HETATM    1  C   UNL     1      43.790 -11.407   7.697  1.00  0.00     0.277 C 
HETATM    2  N   UNL     1      42.966 -10.422   8.205  1.00  0.00    -0.261 N 
HETATM    3  O   UNL     1      44.953 -11.524   8.083  1.00  0.00    -0.265 OA
HETATM    4  H   UNL     1      42.040 -10.242   7.815  1.00  0.00     0.190 HD
ENDROOT
BRANCH   1   5
HETATM    5  C   UNL     1      43.182 -12.270   6.695  1.00  0.00     0.077 A 
HETATM    6  S   UNL     1      43.937 -13.775   6.224  1.00  0.00    -0.064 SA
HETATM    7  C   UNL     1      42.686 -14.110   5.179  1.00  0.00     0.113 A 
HETATM    8  N   UNL     1      42.273 -15.087   4.306  1.00  0.00    -0.226 N 
HETATM    9  C   UNL     1      41.757 -13.148   5.169  1.00  0.00     0.027 A 
HETATM   10  N   UNL     1      41.077 -14.697   3.721  1.00  0.00    -0.171 NA
HETATM   11  C   UNL     1      40.773 -13.502   4.266  1.00  0.00     0.064 A 
HETATM   12  C   UNL     1      39.547 -12.775   3.869  1.00  0.00     0.073 C 
HETATM   13  C   UNL     1      41.975 -12.070   6.022  1.00  0.00     0.041 A 
BRANCH   8  14
HETATM   14  C   UNL     1      42.855 -16.343   3.969  1.00  0.00     0.059 A 
HETATM   15  C   UNL     1      42.606 -16.890   2.698  1.00  0.00     0.031 A 
HETATM   16  C   UNL     1      43.145 -18.126   2.336  1.00  0.00     0.002 A 
HETATM   17  C   UNL     1      43.941 -18.830   3.235  1.00  0.00     0.000 A 
HETATM   18  C   UNL     1      44.199 -18.297   4.495  1.00  0.00     0.002 A 
HETATM   19  C   UNL     1      43.660 -17.060   4.864  1.00  0.00     0.031 A 
ENDBRANCH   8  14
ENDBRANCH   1   5
BRANCH   2  20
HETATM   20  N   UNL     1      43.493  -9.413   9.031  1.00  0.00    -0.249 N 
HETATM   21  C   UNL     1      42.712  -9.070  10.127  1.00  0.00     0.339 C 
HETATM   22  N   UNL     1      43.232  -8.002  10.820  1.00  0.00    -0.308 N 
HETATM   23  O   UNL     1      41.703  -9.714  10.404  1.00  0.00    -0.245 OA
HETATM   24  H   UNL     1      44.102  -7.629  10.469  1.00  0.00     0.170 HD
HETATM   25  H   UNL     1      44.034  -8.705   8.543  1.00  0.00     0.192 HD
BRANCH  22  26
HETATM   26  C   UNL     1      42.725  -7.421  12.001  1.00  0.00     0.038 A 
HETATM   27  C   UNL     1      41.672  -6.504  12.031  1.00  0.00     0.053 A 
HETATM   28  C   UNL     1      41.223  -5.991  13.250  1.00  0.00     0.036 A 
HETATM   29 CL   UNL     1      39.916  -4.869  13.276  1.00  0.00    -0.084 Cl
HETATM   30  C   UNL     1      41.818  -6.377  14.448  1.00  0.00     0.024 A 
HETATM   31  C   UNL     1      42.873  -7.286  14.427  1.00  0.00     0.004 A 
HETATM   32  C   UNL     1      43.322  -7.805  13.210  1.00  0.00     0.029 A 
ENDBRANCH  22  26
ENDBRANCH   2  20
TORSDOF 4
ENDMDL
MODEL 3
REMARK VINA RESULT:      -8.7      7.266     10.894
REMARK  4 active torsions:
REMARK  status: ('A' for Active; 'I' for Inactive)
REMARK    1  A    between atoms: N_4  and  C_5 
REMARK    2  A    between atoms: C_14  and  C_15 
REMARK       I    between atoms: C_15  and  N_16 
REMARK    3  A    between atoms: N_16  and  N_17 
REMARK       I    between atoms: N_17  and  C_18 
REMARK       I    between atoms: C_18  and  N_19 
REMARK    4  A    between atoms: N_19  and  C_20 
ROOT
HETATM    1  C   UNL     1      39.774 -13.669   2.320  1.00  0.00     0.277 C 
HETATM    2  N   UNL     1      39.730 -13.958   0.970  1.00  0.00    -0.261 N 
HETATM    3  O   UNL     1      39.025 -12.827   2.815  1.00  0.00    -0.265 OA
HETATM    4  H   UNL     1      40.418 -14.568   0.528  1.00  0.00     0.190 HD
ENDROOT
BRANCH   1   5
HETATM    5  C   UNL     1      40.755 -14.425   3.085  1.00  0.00     0.077 A 
HETATM    6  S   UNL     1      41.101 -16.096   2.705  1.00  0.00    -0.064 SA
HETATM    7  C   UNL     1      42.247 -16.164   3.911  1.00  0.00     0.113 A 
HETATM    8  N   UNL     1      43.152 -17.039   4.458  1.00  0.00    -0.226 N 
HETATM    9  C   UNL     1      42.360 -15.008   4.573  1.00  0.00     0.027 A 
HETATM   10  N   UNL     1      43.814 -16.414   5.505  1.00  0.00    -0.171 NA
HETATM   11  C   UNL     1      43.315 -15.163   5.559  1.00  0.00     0.064 A 
HETATM   12  C   UNL     1      43.794 -14.197   6.573  1.00  0.00     0.073 C 
HETATM   13  C   UNL     1      41.542 -13.967   4.144  1.00  0.00     0.041 A 
BRANCH   8  14
HETATM   14  C   UNL     1      43.481 -18.382   4.108  1.00  0.00     0.059 A 
HETATM   15  C   UNL     1      43.426 -18.764   2.756  1.00  0.00     0.031 A 
HETATM   16  C   UNL     1      43.724 -20.075   2.374  1.00  0.00     0.002 A 
HETATM   17  C   UNL     1      44.084 -21.016   3.334  1.00  0.00     0.000 A 
HETATM   18  C   UNL     1      44.146 -20.648   4.675  1.00  0.00     0.002 A 
HETATM   19  C   UNL     1      43.846 -19.337   5.064  1.00  0.00     0.031 A 
ENDBRANCH   8  14
ENDBRANCH   1   5
BRANCH   2  20
HETATM   20  N   UNL     1      38.965 -13.162   0.100  1.00  0.00    -0.249 N 
HETATM   21  C   UNL     1      39.686 -12.272  -0.685  1.00  0.00     0.339 C 
HETATM   22  N   UNL     1      38.867 -11.449  -1.423  1.00  0.00    -0.308 N 
HETATM   23  O   UNL     1      40.914 -12.296  -0.693  1.00  0.00    -0.245 OA
HETATM   24  H   UNL     1      37.875 -11.608  -1.322  1.00  0.00     0.170 HD
HETATM   25  H   UNL     1      38.046 -12.908   0.453  1.00  0.00     0.192 HD
BRANCH  22  26
HETATM   26  C   UNL     1      39.258 -10.464  -2.353  1.00  0.00     0.038 A 
HETATM   27  C   UNL     1      40.439  -9.723  -2.256  1.00  0.00     0.053 A 
HETATM   28  C   UNL     1      40.755  -8.777  -3.234  1.00  0.00     0.036 A 
HETATM   29 CL   UNL     1      42.219  -7.876  -3.110  1.00  0.00    -0.084 Cl
HETATM   30  C   UNL     1      39.902  -8.554  -4.312  1.00  0.00     0.024 A 
HETATM   31  C   UNL     1      38.722  -9.284  -4.414  1.00  0.00     0.004 A 
HETATM   32  C   UNL     1      38.402 -10.235  -3.440  1.00  0.00     0.029 A 
ENDBRANCH  22  26
ENDBRANCH   2  20
TORSDOF 4
ENDMDL
MODEL 4
REMARK VINA RESULT:      -8.6      8.920     11.374
REMARK  4 active torsions:
REMARK  status: ('A' for Active; 'I' for Inactive)
REMARK    1  A    between atoms: N_4  and  C_5 
REMARK    2  A    between atoms: C_14  and  C_15 
REMARK       I    between atoms: C_15  and  N_16 
REMARK    3  A    between atoms: N_16  and  N_17 
REMARK       I    between atoms: N_17  and  C_18 
REMARK       I    between atoms: C_18  and  N_19 
REMARK    4  A    between atoms: N_19  and  C_20 
ROOT
HETATM    1  C   UNL     1      39.377 -13.788  -0.722  1.00  0.00     0.277 C 
HETATM    2  N   UNL     1      39.489 -13.787   0.655  1.00  0.00    -0.261 N 
HETATM    3  O   UNL     1      39.261 -14.840  -1.350  1.00  0.00    -0.265 OA
HETATM    4  H   UNL     1      39.698 -12.935   1.177  1.00  0.00     0.190 HD
ENDROOT
BRANCH   1   5
HETATM    5  C   UNL     1      39.405 -12.474  -1.348  1.00  0.00     0.077 A 
HETATM    6  S   UNL     1      40.744 -11.380  -1.087  1.00  0.00    -0.064 SA
HETATM    7  C   UNL     1      40.058 -10.252  -2.101  1.00  0.00     0.113 A 
HETATM    8  N   UNL     1      40.313  -9.007  -2.620  1.00  0.00    -0.226 N 
HETATM    9  C   UNL     1      38.887 -10.660  -2.600  1.00  0.00     0.027 A 
HETATM   10  N   UNL     1      39.255  -8.628  -3.433  1.00  0.00    -0.171 NA
HETATM   11  C   UNL     1      38.387  -9.658  -3.411  1.00  0.00     0.064 A 
HETATM   12  C   UNL     1      37.121  -9.603  -4.175  1.00  0.00     0.073 C 
HETATM   13  C   UNL     1      38.460 -11.927  -2.218  1.00  0.00     0.041 A 
BRANCH   8  14
HETATM   14  C   UNL     1      41.434  -8.141  -2.459  1.00  0.00     0.059 A 
HETATM   15  C   UNL     1      42.007  -7.550  -3.599  1.00  0.00     0.031 A 
HETATM   16  C   UNL     1      43.116  -6.708  -3.484  1.00  0.00     0.002 A 
HETATM   17  C   UNL     1      43.664  -6.444  -2.232  1.00  0.00     0.000 A 
HETATM   18  C   UNL     1      43.103  -7.020  -1.095  1.00  0.00     0.002 A 
HETATM   19  C   UNL     1      41.993  -7.865  -1.204  1.00  0.00     0.031 A 
ENDBRANCH   8  14
ENDBRANCH   1   5
BRANCH   2  20
HETATM   20  N   UNL     1      39.667 -14.995   1.352  1.00  0.00    -0.249 N 
HETATM   21  C   UNL     1      40.954 -15.233   1.815  1.00  0.00     0.339 C 
HETATM   22  N   UNL     1      41.079 -16.480   2.382  1.00  0.00    -0.308 N 
HETATM   23  O   UNL     1      41.822 -14.369   1.724  1.00  0.00    -0.245 OA
HETATM   24  H   UNL     1      40.239 -17.038   2.411  1.00  0.00     0.170 HD
HETATM   25  H   UNL     1      39.088 -15.764   1.025  1.00  0.00     0.192 HD
BRANCH  22  26
HETATM   26  C   UNL     1      42.227 -17.032   2.989  1.00  0.00     0.038 A 
HETATM   27  C   UNL     1      42.789 -16.554   4.175  1.00  0.00     0.053 A 
HETATM   28  C   UNL     1      43.919 -17.173   4.715  1.00  0.00     0.036 A 
HETATM   29 CL   UNL     1      44.599 -16.583   6.184  1.00  0.00    -0.084 Cl
HETATM   30  C   UNL     1      44.504 -18.266   4.080  1.00  0.00     0.024 A 
HETATM   31  C   UNL     1      43.953 -18.746   2.895  1.00  0.00     0.004 A 
HETATM   32  C   UNL     1      42.820 -18.131   2.354  1.00  0.00     0.029 A 
ENDBRANCH  22  26
ENDBRANCH   2  20
TORSDOF 4
ENDMDL
MODEL 5
REMARK VINA RESULT:      -8.6      7.468     11.242
REMARK  4 active torsions:
REMARK  status: ('A' for Active; 'I' for Inactive)
REMARK    1  A    between atoms: N_4  and  C_5 
REMARK    2  A    between atoms: C_14  and  C_15 
REMARK       I    between atoms: C_15  and  N_16 
REMARK    3  A    between atoms: N_16  and  N_17 
REMARK       I    between atoms: N_17  and  C_18 
REMARK       I    between atoms: C_18  and  N_19 
REMARK    4  A    between atoms: N_19  and  C_20 
ROOT
HETATM    1  C   UNL     1      41.678 -12.914   1.317  1.00  0.00     0.277 C 
HETATM    2  N   UNL     1      41.171 -13.485   0.167  1.00  0.00    -0.261 N 
HETATM    3  O   UNL     1      41.719 -11.691   1.455  1.00  0.00    -0.265 OA
HETATM    4  H   UNL     1      41.235 -14.489  -0.007  1.00  0.00     0.190 HD
ENDROOT
BRANCH   1   5
HETATM    5  C   UNL     1      42.148 -13.855   2.325  1.00  0.00     0.077 A 
HETATM    6  S   UNL     1      42.317 -15.556   1.959  1.00  0.00    -0.064 SA
HETATM    7  C   UNL     1      42.888 -15.859   3.493  1.00  0.00     0.113 A 
HETATM    8  N   UNL     1      43.351 -16.899   4.260  1.00  0.00    -0.226 N 
HETATM    9  C   UNL     1      42.939 -14.755   4.246  1.00  0.00     0.027 A 
HETATM   10  N   UNL     1      43.662 -16.426   5.527  1.00  0.00    -0.171 NA
HETATM   11  C   UNL     1      43.405 -15.104   5.499  1.00  0.00     0.064 A 
HETATM   12  C   UNL     1      43.622 -14.262   6.696  1.00  0.00     0.073 C 
HETATM   13  C   UNL     1      42.539 -13.571   3.634  1.00  0.00     0.041 A 
BRANCH   8  14
HETATM   14  C   UNL     1      43.550 -18.275   3.944  1.00  0.00     0.059 A 
HETATM   15  C   UNL     1      43.954 -19.156   4.963  1.00  0.00     0.031 A 
HETATM   16  C   UNL     1      44.176 -20.507   4.689  1.00  0.00     0.002 A 
HETATM   17  C   UNL     1      43.994 -20.996   3.398  1.00  0.00     0.000 A 
HETATM   18  C   UNL     1      43.589 -20.135   2.382  1.00  0.00     0.002 A 
HETATM   19  C   UNL     1      43.367 -18.779   2.650  1.00  0.00     0.031 A 
ENDBRANCH   8  14
ENDBRANCH   1   5
BRANCH   2  20
HETATM   20  N   UNL     1      40.868 -12.685  -0.948  1.00  0.00    -0.249 N 
HETATM   21  C   UNL     1      39.541 -12.293  -1.059  1.00  0.00     0.339 C 
HETATM   22  N   UNL     1      39.297 -11.614  -2.230  1.00  0.00    -0.308 N 
HETATM   23  O   UNL     1      38.739 -12.533  -0.160  1.00  0.00    -0.245 OA
HETATM   24  H   UNL     1      40.095 -11.468  -2.831  1.00  0.00     0.170 HD
HETATM   25  H   UNL     1      41.415 -12.890  -1.780  1.00  0.00     0.192 HD
BRANCH  22  26
HETATM   26  C   UNL     1      38.078 -11.038  -2.646  1.00  0.00     0.038 A 
HETATM   27  C   UNL     1      36.949 -11.776  -3.010  1.00  0.00     0.053 A 
HETATM   28  C   UNL     1      35.777 -11.121  -3.394  1.00  0.00     0.036 A 
HETATM   29 CL   UNL     1      34.387 -12.041  -3.830  1.00  0.00    -0.084 Cl
HETATM   30  C   UNL     1      35.716  -9.730  -3.427  1.00  0.00     0.024 A 
HETATM   31  C   UNL     1      36.838  -8.987  -3.072  1.00  0.00     0.004 A 
HETATM   32  C   UNL     1      38.012  -9.638  -2.683  1.00  0.00     0.029 A 
ENDBRANCH  22  26
ENDBRANCH   2  20
TORSDOF 4
ENDMDL
MODEL 6
REMARK VINA RESULT:      -8.6      6.919      9.880
REMARK  4 active torsions:
REMARK  status: ('A' for Active; 'I' for Inactive)
REMARK    1  A    between atoms: N_4  and  C_5 
REMARK    2  A    between atoms: C_14  and  C_15 
REMARK       I    between atoms: C_15  and  N_16 
REMARK    3  A    between atoms: N_16  and  N_17 
REMARK       I    between atoms: N_17  and  C_18 
REMARK       I    between atoms: C_18  and  N_19 
REMARK    4  A    between atoms: N_19  and  C_20 
ROOT
HETATM    1  C   UNL     1      43.163 -11.906   3.735  1.00  0.00     0.277 C 
HETATM    2  N   UNL     1      41.932 -11.449   3.308  1.00  0.00    -0.261 N 
HETATM    3  O   UNL     1      44.171 -11.207   3.631  1.00  0.00    -0.265 OA
HETATM    4  H   UNL     1      41.112 -12.056   3.284  1.00  0.00     0.190 HD
ENDROOT
BRANCH   1   5
HETATM    5  C   UNL     1      43.165 -13.246   4.305  1.00  0.00     0.077 A 
HETATM    6  S   UNL     1      43.220 -14.661   3.279  1.00  0.00    -0.064 SA
HETATM    7  C   UNL     1      43.234 -15.661   4.609  1.00  0.00     0.113 A 
HETATM    8  N   UNL     1      43.294 -16.996   4.925  1.00  0.00    -0.226 N 
HETATM    9  C   UNL     1      43.189 -14.981   5.760  1.00  0.00     0.027 A 
HETATM   10  N   UNL     1      43.249 -17.139   6.304  1.00  0.00    -0.171 NA
HETATM   11  C   UNL     1      43.187 -15.888   6.802  1.00  0.00     0.064 A 
HETATM   12  C   UNL     1      43.123 -15.652   8.261  1.00  0.00     0.073 C 
HETATM   13  C   UNL     1      43.158 -13.593   5.657  1.00  0.00     0.041 A 
BRANCH   8  14
HETATM   14  C   UNL     1      43.403 -18.147   4.092  1.00  0.00     0.059 A 
HETATM   15  C   UNL     1      43.878 -19.347   4.649  1.00  0.00     0.031 A 
HETATM   16  C   UNL     1      44.015 -20.493   3.862  1.00  0.00     0.002 A 
HETATM   17  C   UNL     1      43.677 -20.456   2.512  1.00  0.00     0.000 A 
HETATM   18  C   UNL     1      43.201 -19.275   1.950  1.00  0.00     0.002 A 
HETATM   19  C   UNL     1      43.063 -18.123   2.734  1.00  0.00     0.031 A 
ENDBRANCH   8  14
ENDBRANCH   1   5
BRANCH   2  20
HETATM   20  N   UNL     1      41.836 -10.256   2.569  1.00  0.00    -0.249 N 
HETATM   21  C   UNL     1      41.665 -10.414   1.201  1.00  0.00     0.339 C 
HETATM   22  N   UNL     1      41.696  -9.211   0.532  1.00  0.00    -0.308 N 
HETATM   23  O   UNL     1      41.479 -11.527   0.716  1.00  0.00    -0.245 OA
HETATM   24  H   UNL     1      41.811  -8.390   1.107  1.00  0.00     0.170 HD
HETATM   25  H   UNL     1      42.390  -9.486   2.933  1.00  0.00     0.192 HD
BRANCH  22  26
HETATM   26  C   UNL     1      41.513  -8.996  -0.849  1.00  0.00     0.038 A 
HETATM   27  C   UNL     1      40.422  -9.480  -1.577  1.00  0.00     0.053 A 
HETATM   28  C   UNL     1      40.313  -9.204  -2.942  1.00  0.00     0.036 A 
HETATM   29 CL   UNL     1      38.959  -9.796  -3.828  1.00  0.00    -0.084 Cl
HETATM   30  C   UNL     1      41.285  -8.454  -3.598  1.00  0.00     0.024 A 
HETATM   31  C   UNL     1      42.378  -7.973  -2.882  1.00  0.00     0.004 A 
HETATM   32  C   UNL     1      42.490  -8.243  -1.514  1.00  0.00     0.029 A 
ENDBRANCH  22  26
ENDBRANCH   2  20
TORSDOF 4
ENDMDL
MODEL 7
REMARK VINA RESULT:      -8.5      2.423      3.208
REMARK  4 active torsions:
REMARK  status: ('A' for Active; 'I' for Inactive)
REMARK    1  A    between atoms: N_4  and  C_5 
REMARK    2  A    between atoms: C_14  and  C_15 
REMARK       I    between atoms: C_15  and  N_16 
REMARK    3  A    between atoms: N_16  and  N_17 
REMARK       I    between atoms: N_17  and  C_18 
REMARK       I    between atoms: C_18  and  N_19 
REMARK    4  A    between atoms: N_19  and  C_20 
ROOT
HETATM    1  C   UNL     1      39.831 -11.670   6.184  1.00  0.00     0.277 C 
HETATM    2  N   UNL     1      40.660 -10.763   6.814  1.00  0.00    -0.261 N 
HETATM    3  O   UNL     1      38.650 -11.785   6.510  1.00  0.00    -0.265 OA
HETATM    4  H   UNL     1      41.664 -10.736   6.632  1.00  0.00     0.190 HD
ENDROOT
BRANCH   1   5
HETATM    5  C   UNL     1      40.457 -12.456   5.130  1.00  0.00     0.077 A 
HETATM    6  S   UNL     1      41.343 -13.917   5.500  1.00  0.00    -0.064 SA
HETATM    7  C   UNL     1      41.649 -14.176   3.885  1.00  0.00     0.113 A 
HETATM    8  N   UNL     1      42.267 -15.084   3.061  1.00  0.00    -0.226 N 
HETATM    9  C   UNL     1      41.131 -13.220   3.107  1.00  0.00     0.027 A 
HETATM   10  N   UNL     1      42.153 -14.655   1.746  1.00  0.00    -0.171 NA
HETATM   11  C   UNL     1      41.448 -13.508   1.794  1.00  0.00     0.064 A 
HETATM   12  C   UNL     1      41.133 -12.757   0.558  1.00  0.00     0.073 C 
HETATM   13  C   UNL     1      40.426 -12.210   3.756  1.00  0.00     0.041 A 
BRANCH   8  14
HETATM   14  C   UNL     1      42.935 -16.308   3.356  1.00  0.00     0.059 A 
HETATM   15  C   UNL     1      42.944 -17.329   2.388  1.00  0.00     0.031 A 
HETATM   16  C   UNL     1      43.573 -18.549   2.646  1.00  0.00     0.002 A 
HETATM   17  C   UNL     1      44.203 -18.764   3.869  1.00  0.00     0.000 A 
HETATM   18  C   UNL     1      44.204 -17.760   4.833  1.00  0.00     0.002 A 
HETATM   19  C   UNL     1      43.574 -16.536   4.581  1.00  0.00     0.031 A 
ENDBRANCH   8  14
ENDBRANCH   1   5
BRANCH   2  20
HETATM   20  N   UNL     1      40.225 -10.089   7.968  1.00  0.00    -0.249 N 
HETATM   21  C   UNL     1      41.232  -9.656   8.821  1.00  0.00     0.339 C 
HETATM   22  N   UNL     1      40.730  -9.111   9.980  1.00  0.00    -0.308 N 
HETATM   23  O   UNL     1      42.412  -9.751   8.497  1.00  0.00    -0.245 OA
HETATM   24  H   UNL     1      39.724  -9.073  10.051  1.00  0.00     0.170 HD
HETATM   25  H   UNL     1      39.339 -10.415   8.343  1.00  0.00     0.192 HD
BRANCH  22  26
HETATM   26  C   UNL     1      41.461  -8.536  11.041  1.00  0.00     0.038 A 
HETATM   27  C   UNL     1      41.583  -7.160  11.251  1.00  0.00     0.053 A 
HETATM   28  C   UNL     1      42.314  -6.679  12.339  1.00  0.00     0.036 A 
HETATM   29 CL   UNL     1      42.449  -4.980  12.595  1.00  0.00    -0.084 Cl
HETATM   30  C   UNL     1      42.936  -7.556  13.224  1.00  0.00     0.024 A 
HETATM   31  C   UNL     1      42.825  -8.929  13.019  1.00  0.00     0.004 A 
HETATM   32  C   UNL     1      42.091  -9.415  11.934  1.00  0.00     0.029 A 
ENDBRANCH  22  26
ENDBRANCH   2  20
TORSDOF 4
ENDMDL
MODEL 8
REMARK VINA RESULT:      -8.3      4.662     10.502
REMARK  4 active torsions:
REMARK  status: ('A' for Active; 'I' for Inactive)
REMARK    1  A    between atoms: N_4  and  C_5 
REMARK    2  A    between atoms: C_14  and  C_15 
REMARK       I    between atoms: C_15  and  N_16 
REMARK    3  A    between atoms: N_16  and  N_17 
REMARK       I    between atoms: N_17  and  C_18 
REMARK       I    between atoms: C_18  and  N_19 
REMARK    4  A    between atoms: N_19  and  C_20 
ROOT
HETATM    1  C   UNL     1      42.914 -11.355   4.424  1.00  0.00     0.277 C 
HETATM    2  N   UNL     1      42.069 -12.399   4.102  1.00  0.00    -0.261 N 
HETATM    3  O   UNL     1      43.996 -11.214   3.853  1.00  0.00    -0.265 OA
HETATM    4  H   UNL     1      41.225 -12.593   4.643  1.00  0.00     0.190 HD
ENDROOT
BRANCH   1   5
HETATM    5  C   UNL     1      42.429 -10.461   5.465  1.00  0.00     0.077 A 
HETATM    6  S   UNL     1      42.771 -10.772   7.151  1.00  0.00    -0.064 SA
HETATM    7  C   UNL     1      41.970  -9.384   7.601  1.00  0.00     0.113 A 
HETATM    8  N   UNL     1      41.661  -8.662   8.727  1.00  0.00    -0.226 N 
HETATM    9  C   UNL     1      41.463  -8.726   6.553  1.00  0.00     0.027 A 
HETATM   10  N   UNL     1      40.916  -7.550   8.363  1.00  0.00    -0.171 NA
HETATM   11  C   UNL     1      40.805  -7.604   7.021  1.00  0.00     0.064 A 
HETATM   12  C   UNL     1      40.062  -6.564   6.277  1.00  0.00     0.073 C 
HETATM   13  C   UNL     1      41.698  -9.283   5.300  1.00  0.00     0.041 A 
BRANCH   8  14
HETATM   14  C   UNL     1      41.993  -8.881  10.096  1.00  0.00     0.059 A 
HETATM   15  C   UNL     1      43.205  -8.369  10.592  1.00  0.00     0.031 A 
HETATM   16  C   UNL     1      43.574  -8.576  11.923  1.00  0.00     0.002 A 
HETATM   17  C   UNL     1      42.738  -9.294  12.775  1.00  0.00     0.000 A 
HETATM   18  C   UNL     1      41.534  -9.802  12.296  1.00  0.00     0.002 A 
HETATM   19  C   UNL     1      41.160  -9.599  10.963  1.00  0.00     0.031 A 
ENDBRANCH   8  14
ENDBRANCH   1   5
BRANCH   2  20
HETATM   20  N   UNL     1      42.508 -13.431   3.255  1.00  0.00    -0.249 N 
HETATM   21  C   UNL     1      42.669 -14.671   3.859  1.00  0.00     0.339 C 
HETATM   22  N   UNL     1      43.210 -15.600   3.000  1.00  0.00    -0.308 N 
HETATM   23  O   UNL     1      42.316 -14.853   5.021  1.00  0.00    -0.245 OA
HETATM   24  H   UNL     1      43.393 -15.279   2.061  1.00  0.00     0.170 HD
HETATM   25  H   UNL     1      43.138 -13.135   2.515  1.00  0.00     0.192 HD
BRANCH  22  26
HETATM   26  C   UNL     1      43.466 -16.962   3.265  1.00  0.00     0.038 A 
HETATM   27  C   UNL     1      43.276 -17.988   2.336  1.00  0.00     0.053 A 
HETATM   28  C   UNL     1      43.572 -19.309   2.680  1.00  0.00     0.036 A 
HETATM   29 CL   UNL     1      43.344 -20.565   1.523  1.00  0.00    -0.084 Cl
HETATM   30  C   UNL     1      44.054 -19.624   3.947  1.00  0.00     0.024 A 
HETATM   31  C   UNL     1      44.241 -18.609   4.881  1.00  0.00     0.004 A 
HETATM   32  C   UNL     1      43.950 -17.285   4.541  1.00  0.00     0.029 A 
ENDBRANCH  22  26
ENDBRANCH   2  20
TORSDOF 4
ENDMDL
MODEL 9
REMARK VINA RESULT:      -8.2      4.682     10.851
REMARK  4 active torsions:
REMARK  status: ('A' for Active; 'I' for Inactive)
REMARK    1  A    between atoms: N_4  and  C_5 
REMARK    2  A    between atoms: C_14  and  C_15 
REMARK       I    between atoms: C_15  and  N_16 
REMARK    3  A    between atoms: N_16  and  N_17 
REMARK       I    between atoms: N_17  and  C_18 
REMARK       I    between atoms: C_18  and  N_19 
REMARK    4  A    between atoms: N_19  and  C_20 
ROOT
HETATM    1  C   UNL     1      43.354 -11.991   4.854  1.00  0.00     0.277 C 
HETATM    2  N   UNL     1      42.847 -13.273   4.940  1.00  0.00    -0.261 N 
HETATM    3  O   UNL     1      43.819 -11.561   3.798  1.00  0.00    -0.265 OA
HETATM    4  H   UNL     1      42.563 -13.680   5.832  1.00  0.00     0.190 HD
ENDROOT
BRANCH   1   5
HETATM    5  C   UNL     1      43.292 -11.214   6.084  1.00  0.00     0.077 A 
HETATM    6  S   UNL     1      41.852 -10.323   6.515  1.00  0.00    -0.064 SA
HETATM    7  C   UNL     1      42.555  -9.815   7.935  1.00  0.00     0.113 A 
HETATM    8  N   UNL     1      42.263  -9.069   9.050  1.00  0.00    -0.226 N 
HETATM    9  C   UNL     1      43.803 -10.274   8.079  1.00  0.00     0.027 A 
HETATM   10  N   UNL     1      43.372  -9.042   9.883  1.00  0.00    -0.171 NA
HETATM   11  C   UNL     1      44.310  -9.791   9.270  1.00  0.00     0.064 A 
HETATM   12  C   UNL     1      45.645  -9.985   9.879  1.00  0.00     0.073 C 
HETATM   13  C   UNL     1      44.283 -11.089   7.059  1.00  0.00     0.041 A 
BRANCH   8  14
HETATM   14  C   UNL     1      41.067  -8.394   9.433  1.00  0.00     0.059 A 
HETATM   15  C   UNL     1      39.847  -9.091   9.381  1.00  0.00     0.031 A 
HETATM   16  C   UNL     1      38.651  -8.460   9.732  1.00  0.00     0.002 A 
HETATM   17  C   UNL     1      38.659  -7.130  10.143  1.00  0.00     0.000 A 
HETATM   18  C   UNL     1      39.862  -6.431  10.203  1.00  0.00     0.002 A 
HETATM   19  C   UNL     1      41.062  -7.057   9.850  1.00  0.00     0.031 A 
ENDBRANCH   8  14
ENDBRANCH   1   5
BRANCH   2  20
HETATM   20  N   UNL     1      43.025 -14.178   3.879  1.00  0.00    -0.249 N 
HETATM   21  C   UNL     1      43.088 -15.517   4.242  1.00  0.00     0.339 C 
HETATM   22  N   UNL     1      43.379 -16.331   3.172  1.00  0.00    -0.308 N 
HETATM   23  O   UNL     1      42.865 -15.864   5.399  1.00  0.00    -0.245 OA
HETATM   24  H   UNL     1      43.482 -15.868   2.280  1.00  0.00     0.170 HD
HETATM   25  H   UNL     1      43.589 -13.827   3.111  1.00  0.00     0.192 HD
BRANCH  22  26
HETATM   26  C   UNL     1      43.475 -17.738   3.169  1.00  0.00     0.038 A 
HETATM   27  C   UNL     1      43.983 -18.488   4.233  1.00  0.00     0.053 A 
HETATM   28  C   UNL     1      44.026 -19.882   4.150  1.00  0.00     0.036 A 
HETATM   29 CL   UNL     1      44.645 -20.798   5.472  1.00  0.00    -0.084 Cl
HETATM   30  C   UNL     1      43.572 -20.543   3.012  1.00  0.00     0.024 A 
HETATM   31  C   UNL     1      43.069 -19.803   1.945  1.00  0.00     0.004 A 
HETATM   32  C   UNL     1      43.021 -18.408   2.025  1.00  0.00     0.029 A 
ENDBRANCH  22  26
ENDBRANCH   2  20
TORSDOF 4
ENDMDL
MODEL 10
REMARK VINA RESULT:      -8.2      4.021     10.865
REMARK  4 active torsions:
REMARK  status: ('A' for Active; 'I' for Inactive)
REMARK    1  A    between atoms: N_4  and  C_5 
REMARK    2  A    between atoms: C_14  and  C_15 
REMARK       I    between atoms: C_15  and  N_16 
REMARK    3  A    between atoms: N_16  and  N_17 
REMARK       I    between atoms: N_17  and  C_18 
REMARK       I    between atoms: C_18  and  N_19 
REMARK    4  A    between atoms: N_19  and  C_20 
ROOT
HETATM    1  C   UNL     1      44.076 -10.506   9.004  1.00  0.00     0.277 C 
HETATM    2  N   UNL     1      43.262 -11.136   8.083  1.00  0.00    -0.261 N 
HETATM    3  O   UNL     1      45.222 -10.903   9.217  1.00  0.00    -0.265 OA
HETATM    4  H   UNL     1      42.278 -10.889   7.979  1.00  0.00     0.190 HD
ENDROOT
BRANCH   1   5
HETATM    5  C   UNL     1      43.480  -9.363   9.681  1.00  0.00     0.077 A 
HETATM    6  S   UNL     1      43.127  -9.413  11.393  1.00  0.00    -0.064 SA
HETATM    7  C   UNL     1      42.566  -7.847  11.354  1.00  0.00     0.113 A 
HETATM    8  N   UNL     1      42.060  -6.886  12.194  1.00  0.00    -0.226 N 
HETATM    9  C   UNL     1      42.626  -7.314  10.129  1.00  0.00     0.027 A 
HETATM   10  N   UNL     1      41.770  -5.747  11.458  1.00  0.00    -0.171 NA
HETATM   11  C   UNL     1      42.127  -6.027  10.190  1.00  0.00     0.064 A 
HETATM   12  C   UNL     1      41.954  -5.027   9.112  1.00  0.00     0.073 C 
HETATM   13  C   UNL     1      43.148  -8.126   9.127  1.00  0.00     0.041 A 
BRANCH   8  14
HETATM   14  C   UNL     1      41.831  -6.904  13.601  1.00  0.00     0.059 A 
HETATM   15  C   UNL     1      40.513  -6.790  14.078  1.00  0.00     0.031 A 
HETATM   16  C   UNL     1      40.250  -6.787  15.449  1.00  0.00     0.002 A 
HETATM   17  C   UNL     1      41.296  -6.902  16.361  1.00  0.00     0.000 A 
HETATM   18  C   UNL     1      42.605  -7.020  15.901  1.00  0.00     0.002 A 
HETATM   19  C   UNL     1      42.875  -7.022  14.528  1.00  0.00     0.031 A 
ENDBRANCH   8  14
ENDBRANCH   1   5
BRANCH   2  20
HETATM   20  N   UNL     1      43.655 -12.358   7.511  1.00  0.00    -0.249 N 
HETATM   21  C   UNL     1      42.825 -12.841   6.507  1.00  0.00     0.339 C 
HETATM   22  N   UNL     1      43.205 -14.091   6.077  1.00  0.00    -0.308 N 
HETATM   23  O   UNL     1      41.897 -12.160   6.080  1.00  0.00    -0.245 OA
HETATM   24  H   UNL     1      44.028 -14.477   6.515  1.00  0.00     0.170 HD
HETATM   25  H   UNL     1      44.114 -13.000   8.151  1.00  0.00     0.192 HD
BRANCH  22  26
HETATM   26  C   UNL     1      42.617 -14.856   5.048  1.00  0.00     0.038 A 
HETATM   27  C   UNL     1      43.202 -15.061   3.796  1.00  0.00     0.053 A 
HETATM   28  C   UNL     1      42.556 -15.848   2.840  1.00  0.00     0.036 A 
HETATM   29 CL   UNL     1      43.291 -16.104   1.303  1.00  0.00    -0.084 Cl
HETATM   30  C   UNL     1      41.322 -16.433   3.115  1.00  0.00     0.024 A 
HETATM   31  C   UNL     1      40.729 -16.229   4.358  1.00  0.00     0.004 A 
HETATM   32  C   UNL     1      41.374 -15.445   5.319  1.00  0.00     0.029 A 
ENDBRANCH  22  26
ENDBRANCH   2  20
TORSDOF 4
ENDMDL
