MODEL 1
REMARK VINA RESULT:      -9.8      0.000      0.000
REMARK  5 active torsions:
REMARK  status: ('A' for Active; 'I' for Inactive)
REMARK    1  A    between atoms: C_4  and  C_5 
REMARK    2  A    between atoms: C_5  and  C_6 
REMARK       I    between atoms: C_6  and  N_7 
REMARK    3  A    between atoms: N_7  and  C_8 
REMARK    4  A    between atoms: C_8  and  C_9 
REMARK    5  A    between atoms: N_11  and  C_12 
ROOT
HETATM    1  C   UNL     1      43.268 -16.457   1.707  1.00  0.00     0.184 C 
ENDROOT
BRANCH   1   2
HETATM    2  N   UNL     1      42.615 -15.178   1.513  1.00  0.00    -0.354 N 
HETATM    3  C   UNL     1      41.244 -15.037   1.454  1.00  0.00     0.231 C 
HETATM    4  O   UNL     1      40.490 -16.003   1.560  1.00  0.00    -0.272 OA
HETATM    5  H   UNL     1      43.208 -14.384   1.299  1.00  0.00     0.162 HD
BRANCH   3   6
HETATM    6  C   UNL     1      40.736 -13.578   1.276  1.00  0.00     0.072 C 
HETATM    7  C   UNL     1      41.816 -12.643   1.895  1.00  0.00     0.050 C 
HETATM    8  C   UNL     1      41.312 -11.219   2.112  1.00  0.00     0.169 C 
HETATM    9  O   UNL     1      40.127 -11.208   2.900  1.00  0.00    -0.391 OA
HETATM   10  C   UNL     1      39.067 -11.929   2.277  1.00  0.00     0.169 C 
HETATM   11  C   UNL     1      39.452 -13.394   2.137  1.00  0.00     0.050 C 
BRANCH   6  12
HETATM   12  C   UNL     1      40.435 -13.342  -0.222  1.00  0.00    -0.040 A 
HETATM   13  C   UNL     1      39.580 -14.227  -0.908  1.00  0.00     0.008 A 
HETATM   14  C   UNL     1      39.289 -14.058  -2.264  1.00  0.00     0.001 A 
HETATM   15  C   UNL     1      39.861 -13.008  -2.973  1.00  0.00     0.000 A 
HETATM   16  C   UNL     1      40.730 -12.136  -2.328  1.00  0.00     0.001 A 
HETATM   17  C   UNL     1      41.019 -12.303  -0.969  1.00  0.00     0.008 A 
ENDBRANCH   6  12
ENDBRANCH   3   6
ENDBRANCH   1   2
BRANCH   1  18
HETATM   18  C   UNL     1      43.280 -16.760   3.201  1.00  0.00     0.084 A 
HETATM   19  N   UNL     1      43.017 -15.770   4.001  1.00  0.00    -0.171 NA
HETATM   20  N   UNL     1      42.992 -15.977   5.359  1.00  0.00    -0.229 N 
HETATM   21  C   UNL     1      43.315 -17.195   5.959  1.00  0.00     0.275 A 
HETATM   22  O   UNL     1      43.393 -17.366   7.174  1.00  0.00    -0.266 OA
HETATM   23  C   UNL     1      43.569 -18.331   5.055  1.00  0.00     0.046 A 
HETATM   24  C   UNL     1      43.553 -18.133   3.679  1.00  0.00     0.008 A 
HETATM   25  C   UNL     1      43.826 -19.602   5.588  1.00  0.00     0.018 A 
HETATM   26  C   UNL     1      43.789 -19.220   2.827  1.00  0.00     0.014 A 
HETATM   27  C   UNL     1      44.041 -20.488   3.357  1.00  0.00     0.001 A 
HETATM   28  C   UNL     1      44.062 -20.680   4.736  1.00  0.00     0.001 A 
BRANCH  20  29
HETATM   29  C   UNL     1      42.827 -14.801   6.213  1.00  0.00     0.114 C 
HETATM   30  C   UNL     1      44.146 -14.053   6.424  1.00  0.00     0.027 C 
HETATM   31  C   UNL     1      43.689 -12.685   6.900  1.00  0.00     0.002 C 
HETATM   32  C   UNL     1      42.499 -12.379   6.003  1.00  0.00     0.002 C 
HETATM   33  C   UNL     1      41.841 -13.731   5.712  1.00  0.00     0.027 C 
ENDBRANCH  20  29
ENDBRANCH   1  18
TORSDOF 5
ENDMDL
MODEL 2
REMARK VINA RESULT:      -9.4      2.636      7.390
REMARK  5 active torsions:
REMARK  status: ('A' for Active; 'I' for Inactive)
REMARK    1  A    between atoms: C_4  and  C_5 
REMARK    2  A    between atoms: C_5  and  C_6 
REMARK       I    between atoms: C_6  and  N_7 
REMARK    3  A    between atoms: N_7  and  C_8 
REMARK    4  A    between atoms: C_8  and  C_9 
REMARK    5  A    between atoms: N_11  and  C_12 
ROOT
HETATM    1  C   UNL     1      42.083 -10.815   1.877  1.00  0.00     0.184 C 
ENDROOT
BRANCH   1   2
HETATM    2  N   UNL     1      42.088 -10.980   3.317  1.00  0.00    -0.354 N 
HETATM    3  C   UNL     1      43.222 -11.310   4.029  1.00  0.00     0.231 C 
HETATM    4  O   UNL     1      44.306 -11.487   3.475  1.00  0.00    -0.272 OA
HETATM    5  H   UNL     1      41.191 -10.963   3.787  1.00  0.00     0.162 HD
BRANCH   3   6
HETATM    6  C   UNL     1      43.031 -11.406   5.570  1.00  0.00     0.072 C 
HETATM    7  C   UNL     1      42.205 -10.161   6.004  1.00  0.00     0.050 C 
HETATM    8  C   UNL     1      42.231  -9.928   7.512  1.00  0.00     0.169 C 
HETATM    9  O   UNL     1      43.567  -9.838   7.993  1.00  0.00    -0.391 OA
HETATM   10  C   UNL     1      44.303 -11.033   7.749  1.00  0.00     0.169 C 
HETATM   11  C   UNL     1      44.424 -11.267   6.251  1.00  0.00     0.050 C 
BRANCH   6  12
HETATM   12  C   UNL     1      42.389 -12.774   5.900  1.00  0.00    -0.040 A 
HETATM   13  C   UNL     1      40.989 -12.920   5.835  1.00  0.00     0.008 A 
HETATM   14  C   UNL     1      40.366 -14.134   6.135  1.00  0.00     0.001 A 
HETATM   15  C   UNL     1      41.128 -15.230   6.524  1.00  0.00     0.000 A 
HETATM   16  C   UNL     1      42.509 -15.106   6.623  1.00  0.00     0.001 A 
HETATM   17  C   UNL     1      43.133 -13.891   6.320  1.00  0.00     0.008 A 
ENDBRANCH   6  12
ENDBRANCH   3   6
ENDBRANCH   1   2
BRANCH   1  18
HETATM   18  C   UNL     1      41.337 -11.997   1.268  1.00  0.00     0.084 A 
HETATM   19  N   UNL     1      41.718 -13.183   1.638  1.00  0.00    -0.171 NA
HETATM   20  N   UNL     1      41.076 -14.292   1.143  1.00  0.00    -0.229 N 
HETATM   21  C   UNL     1      40.066 -14.233   0.183  1.00  0.00     0.275 A 
HETATM   22  O   UNL     1      39.553 -15.220  -0.341  1.00  0.00    -0.266 OA
HETATM   23  C   UNL     1      39.600 -12.890  -0.206  1.00  0.00     0.046 A 
HETATM   24  C   UNL     1      40.219 -11.765   0.327  1.00  0.00     0.008 A 
HETATM   25  C   UNL     1      38.537 -12.755  -1.110  1.00  0.00     0.018 A 
HETATM   26  C   UNL     1      39.766 -10.492  -0.043  1.00  0.00     0.014 A 
HETATM   27  C   UNL     1      38.703 -10.357  -0.941  1.00  0.00     0.001 A 
HETATM   28  C   UNL     1      38.090 -11.487  -1.476  1.00  0.00     0.001 A 
BRANCH  20  29
HETATM   29  C   UNL     1      41.636 -15.599   1.487  1.00  0.00     0.114 C 
HETATM   30  C   UNL     1      43.163 -15.563   1.589  1.00  0.00     0.027 C 
HETATM   31  C   UNL     1      43.481 -16.817   2.384  1.00  0.00     0.002 C 
HETATM   32  C   UNL     1      42.408 -16.832   3.462  1.00  0.00     0.002 C 
HETATM   33  C   UNL     1      41.166 -16.210   2.818  1.00  0.00     0.027 C 
ENDBRANCH  20  29
ENDBRANCH   1  18
TORSDOF 5
ENDMDL
MODEL 3
REMARK VINA RESULT:      -9.1      2.072      3.004
REMARK  5 active torsions:
REMARK  status: ('A' for Active; 'I' for Inactive)
REMARK    1  A    between atoms: C_4  and  C_5 
REMARK    2  A    between atoms: C_5  and  C_6 
REMARK       I    between atoms: C_6  and  N_7 
REMARK    3  A    between atoms: N_7  and  C_8 
REMARK    4  A    between atoms: C_8  and  C_9 
REMARK    5  A    between atoms: N_11  and  C_12 
ROOT
HETATM    1  C   UNL     1      41.668 -15.280   1.161  1.00  0.00     0.184 C 
ENDROOT
BRANCH   1   2
HETATM    2  N   UNL     1      41.510 -13.877   0.835  1.00  0.00    -0.354 N 
HETATM    3  C   UNL     1      40.465 -13.396   0.075  1.00  0.00     0.231 C 
HETATM    4  O   UNL     1      39.598 -14.142  -0.378  1.00  0.00    -0.272 OA
HETATM    5  H   UNL     1      42.271 -13.256   1.087  1.00  0.00     0.162 HD
BRANCH   3   6
HETATM    6  C   UNL     1      40.452 -11.855  -0.134  1.00  0.00     0.072 C 
HETATM    7  C   UNL     1      41.146 -11.576  -1.498  1.00  0.00     0.050 C 
HETATM    8  C   UNL     1      41.522 -10.108  -1.683  1.00  0.00     0.169 C 
HETATM    9  O   UNL     1      42.328  -9.646  -0.605  1.00  0.00    -0.391 OA
HETATM   10  C   UNL     1      41.653  -9.744   0.646  1.00  0.00     0.169 C 
HETATM   11  C   UNL     1      41.351 -11.202   0.957  1.00  0.00     0.050 C 
BRANCH   6  12
HETATM   12  C   UNL     1      38.993 -11.356  -0.018  1.00  0.00    -0.040 A 
HETATM   13  C   UNL     1      38.374 -11.301   1.247  1.00  0.00     0.008 A 
HETATM   14  C   UNL     1      37.055 -10.867   1.397  1.00  0.00     0.001 A 
HETATM   15  C   UNL     1      36.314 -10.492   0.282  1.00  0.00     0.000 A 
HETATM   16  C   UNL     1      36.891 -10.563  -0.981  1.00  0.00     0.001 A 
HETATM   17  C   UNL     1      38.214 -10.994  -1.131  1.00  0.00     0.008 A 
ENDBRANCH   6  12
ENDBRANCH   3   6
ENDBRANCH   1   2
BRANCH   1  18
HETATM   18  C   UNL     1      42.044 -15.384   2.634  1.00  0.00     0.084 A 
HETATM   19  N   UNL     1      41.630 -14.428   3.413  1.00  0.00    -0.171 NA
HETATM   20  N   UNL     1      41.917 -14.469   4.755  1.00  0.00    -0.229 N 
HETATM   21  C   UNL     1      42.711 -15.453   5.345  1.00  0.00     0.275 A 
HETATM   22  O   UNL     1      43.057 -15.447   6.524  1.00  0.00    -0.266 OA
HETATM   23  C   UNL     1      43.145 -16.562   4.476  1.00  0.00     0.046 A 
HETATM   24  C   UNL     1      42.818 -16.546   3.124  1.00  0.00     0.008 A 
HETATM   25  C   UNL     1      43.882 -17.625   5.016  1.00  0.00     0.018 A 
HETATM   26  C   UNL     1      43.228 -17.606   2.306  1.00  0.00     0.014 A 
HETATM   27  C   UNL     1      43.960 -18.668   2.845  1.00  0.00     0.001 A 
HETATM   28  C   UNL     1      44.289 -18.678   4.198  1.00  0.00     0.001 A 
BRANCH  20  29
HETATM   29  C   UNL     1      41.546 -13.302   5.555  1.00  0.00     0.114 C 
HETATM   30  C   UNL     1      41.760 -11.991   4.794  1.00  0.00     0.027 C 
HETATM   31  C   UNL     1      40.907 -11.003   5.571  1.00  0.00     0.002 C 
HETATM   32  C   UNL     1      39.640 -11.790   5.869  1.00  0.00     0.002 C 
HETATM   33  C   UNL     1      40.086 -13.245   6.037  1.00  0.00     0.027 C 
ENDBRANCH  20  29
ENDBRANCH   1  18
TORSDOF 5
ENDMDL
MODEL 4
REMARK VINA RESULT:      -9.1      2.354      6.019
REMARK  5 active torsions:
REMARK  status: ('A' for Active; 'I' for Inactive)
REMARK    1  A    between atoms: C_4  and  C_5 
REMARK    2  A    between atoms: C_5  and  C_6 
REMARK       I    between atoms: C_6  and  N_7 
REMARK    3  A    between atoms: N_7  and  C_8 
REMARK    4  A    between atoms: C_8  and  C_9 
REMARK    5  A    between atoms: N_11  and  C_12 
ROOT
HETATM    1  C   UNL     1      41.803 -15.008   6.569  1.00  0.00     0.184 C 
ENDROOT
BRANCH   1   2
HETATM    2  N   UNL     1      42.299 -13.667   6.806  1.00  0.00    -0.354 N 
HETATM    3  C   UNL     1      43.640 -13.346   6.775  1.00  0.00     0.231 C 
HETATM    4  O   UNL     1      44.502 -14.192   6.545  1.00  0.00    -0.272 OA
HETATM    5  H   UNL     1      41.627 -12.975   7.119  1.00  0.00     0.162 HD
BRANCH   3   6
HETATM    6  C   UNL     1      43.967 -11.845   7.020  1.00  0.00     0.072 C 
HETATM    7  C   UNL     1      45.489 -11.663   6.755  1.00  0.00     0.050 C 
HETATM    8  C   UNL     1      46.029 -10.337   7.284  1.00  0.00     0.169 C 
HETATM    9  O   UNL     1      45.738 -10.182   8.668  1.00  0.00    -0.391 OA
HETATM   10  C   UNL     1      44.335 -10.186   8.921  1.00  0.00     0.169 C 
HETATM   11  C   UNL     1      43.744 -11.531   8.528  1.00  0.00     0.050 C 
BRANCH   6  12
HETATM   12  C   UNL     1      43.033 -10.988   6.133  1.00  0.00    -0.040 A 
HETATM   13  C   UNL     1      43.140 -11.067   4.730  1.00  0.00     0.008 A 
HETATM   14  C   UNL     1      42.324 -10.304   3.891  1.00  0.00     0.001 A 
HETATM   15  C   UNL     1      41.392  -9.428   4.435  1.00  0.00     0.000 A 
HETATM   16  C   UNL     1      41.285  -9.311   5.816  1.00  0.00     0.001 A 
HETATM   17  C   UNL     1      42.099 -10.077   6.657  1.00  0.00     0.008 A 
ENDBRANCH   6  12
ENDBRANCH   3   6
ENDBRANCH   1   2
BRANCH   1  18
HETATM   18  C   UNL     1      41.672 -15.203   5.062  1.00  0.00     0.084 A 
HETATM   19  N   UNL     1      40.942 -14.339   4.421  1.00  0.00    -0.171 NA
HETATM   20  N   UNL     1      40.797 -14.445   3.060  1.00  0.00    -0.229 N 
HETATM   21  C   UNL     1      41.331 -15.490   2.306  1.00  0.00     0.275 A 
HETATM   22  O   UNL     1      41.127 -15.650   1.104  1.00  0.00    -0.266 OA
HETATM   23  C   UNL     1      42.196 -16.446   3.021  1.00  0.00     0.046 A 
HETATM   24  C   UNL     1      42.380 -16.316   4.393  1.00  0.00     0.008 A 
HETATM   25  C   UNL     1      42.828 -17.479   2.314  1.00  0.00     0.018 A 
HETATM   26  C   UNL     1      43.209 -17.225   5.063  1.00  0.00     0.014 A 
HETATM   27  C   UNL     1      43.842 -18.252   4.359  1.00  0.00     0.001 A 
HETATM   28  C   UNL     1      43.651 -18.382   2.985  1.00  0.00     0.001 A 
BRANCH  20  29
HETATM   29  C   UNL     1      39.856 -13.529   2.413  1.00  0.00     0.114 C 
HETATM   30  C   UNL     1      39.213 -12.564   3.412  1.00  0.00     0.027 C 
HETATM   31  C   UNL     1      38.681 -11.455   2.521  1.00  0.00     0.002 C 
HETATM   32  C   UNL     1      39.800 -11.249   1.511  1.00  0.00     0.002 C 
HETATM   33  C   UNL     1      40.435 -12.628   1.309  1.00  0.00     0.027 C 
ENDBRANCH  20  29
ENDBRANCH   1  18
TORSDOF 5
ENDMDL
MODEL 5
REMARK VINA RESULT:      -9.0      2.214      7.328
REMARK  5 active torsions:
REMARK  status: ('A' for Active; 'I' for Inactive)
REMARK    1  A    between atoms: C_4  and  C_5 
REMARK    2  A    between atoms: C_5  and  C_6 
REMARK       I    between atoms: C_6  and  N_7 
REMARK    3  A    between atoms: N_7  and  C_8 
REMARK    4  A    between atoms: C_8  and  C_9 
REMARK    5  A    between atoms: N_11  and  C_12 
ROOT
HETATM    1  C   UNL     1      40.854 -14.620   0.354  1.00  0.00     0.184 C 
ENDROOT
BRANCH   1   2
HETATM    2  N   UNL     1      41.075 -15.255   1.638  1.00  0.00    -0.354 N 
HETATM    3  C   UNL     1      42.322 -15.359   2.218  1.00  0.00     0.231 C 
HETATM    4  O   UNL     1      43.330 -14.917   1.669  1.00  0.00    -0.272 OA
HETATM    5  H   UNL     1      40.288 -15.737   2.057  1.00  0.00     0.162 HD
BRANCH   3   6
HETATM    6  C   UNL     1      42.347 -16.042   3.615  1.00  0.00     0.072 C 
HETATM    7  C   UNL     1      40.896 -15.986   4.174  1.00  0.00     0.050 C 
HETATM    8  C   UNL     1      40.823 -16.298   5.666  1.00  0.00     0.169 C 
HETATM    9  O   UNL     1      41.682 -15.442   6.411  1.00  0.00    -0.391 OA
HETATM   10  C   UNL     1      43.046 -15.589   6.026  1.00  0.00     0.169 C 
HETATM   11  C   UNL     1      43.219 -15.177   4.572  1.00  0.00     0.050 C 
BRANCH   6  12
HETATM   12  C   UNL     1      42.942 -17.461   3.457  1.00  0.00    -0.040 A 
HETATM   13  C   UNL     1      42.671 -18.204   2.291  1.00  0.00     0.008 A 
HETATM   14  C   UNL     1      43.179 -19.493   2.111  1.00  0.00     0.001 A 
HETATM   15  C   UNL     1      43.958 -20.079   3.102  1.00  0.00     0.000 A 
HETATM   16  C   UNL     1      44.218 -19.379   4.274  1.00  0.00     0.001 A 
HETATM   17  C   UNL     1      43.712 -18.087   4.453  1.00  0.00     0.008 A 
ENDBRANCH   6  12
ENDBRANCH   3   6
ENDBRANCH   1   2
BRANCH   1  18
HETATM   18  C   UNL     1      39.927 -13.429   0.570  1.00  0.00     0.084 A 
HETATM   19  N   UNL     1      39.952 -12.873   1.744  1.00  0.00    -0.171 NA
HETATM   20  N   UNL     1      39.156 -11.783   2.000  1.00  0.00    -0.229 N 
HETATM   21  C   UNL     1      38.240 -11.264   1.085  1.00  0.00     0.275 A 
HETATM   22  O   UNL     1      37.453 -10.354   1.335  1.00  0.00    -0.266 OA
HETATM   23  C   UNL     1      38.241 -11.863  -0.262  1.00  0.00     0.046 A 
HETATM   24  C   UNL     1      39.077 -12.939  -0.538  1.00  0.00     0.008 A 
HETATM   25  C   UNL     1      37.400 -11.344  -1.257  1.00  0.00     0.018 A 
HETATM   26  C   UNL     1      39.076 -13.497  -1.823  1.00  0.00     0.014 A 
HETATM   27  C   UNL     1      38.241 -12.978  -2.815  1.00  0.00     0.001 A 
HETATM   28  C   UNL     1      37.401 -11.903  -2.533  1.00  0.00     0.001 A 
BRANCH  20  29
HETATM   29  C   UNL     1      39.124 -11.286   3.376  1.00  0.00     0.114 C 
HETATM   30  C   UNL     1      39.445 -12.385   4.393  1.00  0.00     0.027 C 
HETATM   31  C   UNL     1      39.817 -11.599   5.638  1.00  0.00     0.002 C 
HETATM   32  C   UNL     1      40.668 -10.460   5.094  1.00  0.00     0.002 C 
HETATM   33  C   UNL     1      40.098 -10.143   3.709  1.00  0.00     0.027 C 
ENDBRANCH  20  29
ENDBRANCH   1  18
TORSDOF 5
ENDMDL
MODEL 6
REMARK VINA RESULT:      -9.0      1.757      7.174
REMARK  5 active torsions:
REMARK  status: ('A' for Active; 'I' for Inactive)
REMARK    1  A    between atoms: C_4  and  C_5 
REMARK    2  A    between atoms: C_5  and  C_6 
REMARK       I    between atoms: C_6  and  N_7 
REMARK    3  A    between atoms: N_7  and  C_8 
REMARK    4  A    between atoms: C_8  and  C_9 
REMARK    5  A    between atoms: N_11  and  C_12 
ROOT
HETATM    1  C   UNL     1      40.417 -15.472   1.813  1.00  0.00     0.184 C 
ENDROOT
BRANCH   1   2
HETATM    2  N   UNL     1      41.347 -15.579   2.920  1.00  0.00    -0.354 N 
HETATM    3  C   UNL     1      40.981 -16.051   4.163  1.00  0.00     0.231 C 
HETATM    4  O   UNL     1      39.830 -16.409   4.406  1.00  0.00    -0.272 OA
HETATM    5  H   UNL     1      42.269 -15.179   2.789  1.00  0.00     0.162 HD
BRANCH   3   6
HETATM    6  C   UNL     1      42.132 -16.124   5.207  1.00  0.00     0.072 C 
HETATM    7  C   UNL     1      41.475 -16.021   6.614  1.00  0.00     0.050 C 
HETATM    8  C   UNL     1      42.485 -15.728   7.720  1.00  0.00     0.169 C 
HETATM    9  O   UNL     1      43.238 -14.556   7.429  1.00  0.00    -0.391 OA
HETATM   10  C   UNL     1      43.978 -14.685   6.219  1.00  0.00     0.169 C 
HETATM   11  C   UNL     1      43.025 -14.859   5.046  1.00  0.00     0.050 C 
BRANCH   6  12
HETATM   12  C   UNL     1      42.948 -17.412   4.950  1.00  0.00    -0.040 A 
HETATM   13  C   UNL     1      42.992 -18.418   5.937  1.00  0.00     0.008 A 
HETATM   14  C   UNL     1      43.724 -19.592   5.751  1.00  0.00     0.001 A 
HETATM   15  C   UNL     1      44.447 -19.784   4.579  1.00  0.00     0.000 A 
HETATM   16  C   UNL     1      44.443 -18.797   3.600  1.00  0.00     0.001 A 
HETATM   17  C   UNL     1      43.707 -17.621   3.785  1.00  0.00     0.008 A 
ENDBRANCH   6  12
ENDBRANCH   3   6
ENDBRANCH   1   2
BRANCH   1  18
HETATM   18  C   UNL     1      40.605 -14.102   1.170  1.00  0.00     0.084 A 
HETATM   19  N   UNL     1      41.182 -13.189   1.893  1.00  0.00    -0.171 NA
HETATM   20  N   UNL     1      41.399 -11.939   1.368  1.00  0.00    -0.229 N 
HETATM   21  C   UNL     1      40.961 -11.546   0.103  1.00  0.00     0.275 A 
HETATM   22  O   UNL     1      41.061 -10.404  -0.339  1.00  0.00    -0.266 OA
HETATM   23  C   UNL     1      40.347 -12.590  -0.737  1.00  0.00     0.046 A 
HETATM   24  C   UNL     1      40.165 -13.870  -0.224  1.00  0.00     0.008 A 
HETATM   25  C   UNL     1      39.951 -12.287  -2.047  1.00  0.00     0.018 A 
HETATM   26  C   UNL     1      39.586 -14.857  -1.031  1.00  0.00     0.014 A 
HETATM   27  C   UNL     1      39.195 -14.557  -2.339  1.00  0.00     0.001 A 
HETATM   28  C   UNL     1      39.374 -13.273  -2.847  1.00  0.00     0.001 A 
BRANCH  20  29
HETATM   29  C   UNL     1      41.926 -10.916   2.272  1.00  0.00     0.114 C 
HETATM   30  C   UNL     1      40.870 -10.426   3.266  1.00  0.00     0.027 C 
HETATM   31  C   UNL     1      41.702  -9.773   4.354  1.00  0.00     0.002 C 
HETATM   32  C   UNL     1      42.869 -10.733   4.529  1.00  0.00     0.002 C 
HETATM   33  C   UNL     1      43.125 -11.330   3.142  1.00  0.00     0.027 C 
ENDBRANCH  20  29
ENDBRANCH   1  18
TORSDOF 5
ENDMDL
MODEL 7
REMARK VINA RESULT:      -8.9      2.087      2.963
REMARK  5 active torsions:
REMARK  status: ('A' for Active; 'I' for Inactive)
REMARK    1  A    between atoms: C_4  and  C_5 
REMARK    2  A    between atoms: C_5  and  C_6 
REMARK       I    between atoms: C_6  and  N_7 
REMARK    3  A    between atoms: N_7  and  C_8 
REMARK    4  A    between atoms: C_8  and  C_9 
REMARK    5  A    between atoms: N_11  and  C_12 
ROOT
HETATM    1  C   UNL     1      40.204 -15.561   1.624  1.00  0.00     0.184 C 
ENDROOT
BRANCH   1   2
HETATM    2  N   UNL     1      39.686 -14.223   1.424  1.00  0.00    -0.354 N 
HETATM    3  C   UNL     1      39.837 -13.529   0.242  1.00  0.00     0.231 C 
HETATM    4  O   UNL     1      40.431 -14.012  -0.721  1.00  0.00    -0.272 OA
HETATM    5  H   UNL     1      39.301 -13.750   2.234  1.00  0.00     0.162 HD
BRANCH   3   6
HETATM    6  C   UNL     1      39.178 -12.120   0.213  1.00  0.00     0.072 C 
HETATM    7  C   UNL     1      38.747 -11.790   1.671  1.00  0.00     0.050 C 
HETATM    8  C   UNL     1      37.783 -10.609   1.751  1.00  0.00     0.169 C 
HETATM    9  O   UNL     1      36.644 -10.820   0.925  1.00  0.00    -0.391 OA
HETATM   10  C   UNL     1      37.001 -10.968  -0.447  1.00  0.00     0.169 C 
HETATM   11  C   UNL     1      37.868 -12.204  -0.624  1.00  0.00     0.050 C 
BRANCH   6  12
HETATM   12  C   UNL     1      40.177 -11.125  -0.424  1.00  0.00    -0.040 A 
HETATM   13  C   UNL     1      41.062 -10.403   0.402  1.00  0.00     0.008 A 
HETATM   14  C   UNL     1      41.973  -9.486  -0.129  1.00  0.00     0.001 A 
HETATM   15  C   UNL     1      42.010  -9.255  -1.499  1.00  0.00     0.000 A 
HETATM   16  C   UNL     1      41.129  -9.933  -2.334  1.00  0.00     0.001 A 
HETATM   17  C   UNL     1      40.219 -10.854  -1.803  1.00  0.00     0.008 A 
ENDBRANCH   6  12
ENDBRANCH   3   6
ENDBRANCH   1   2
BRANCH   1  18
HETATM   18  C   UNL     1      41.078 -15.548   2.873  1.00  0.00     0.084 A 
HETATM   19  N   UNL     1      40.857 -14.598   3.732  1.00  0.00    -0.171 NA
HETATM   20  N   UNL     1      41.596 -14.538   4.889  1.00  0.00    -0.229 N 
HETATM   21  C   UNL     1      42.650 -15.406   5.176  1.00  0.00     0.275 A 
HETATM   22  O   UNL     1      43.382 -15.302   6.159  1.00  0.00    -0.266 OA
HETATM   23  C   UNL     1      42.875 -16.511   4.227  1.00  0.00     0.046 A 
HETATM   24  C   UNL     1      42.099 -16.599   3.076  1.00  0.00     0.008 A 
HETATM   25  C   UNL     1      43.868 -17.465   4.490  1.00  0.00     0.018 A 
HETATM   26  C   UNL     1      42.315 -17.656   2.183  1.00  0.00     0.014 A 
HETATM   27  C   UNL     1      43.302 -18.610   2.446  1.00  0.00     0.001 A 
HETATM   28  C   UNL     1      44.080 -18.515   3.598  1.00  0.00     0.001 A 
BRANCH  20  29
HETATM   29  C   UNL     1      41.398 -13.372   5.750  1.00  0.00     0.114 C 
HETATM   30  C   UNL     1      42.112 -12.130   5.211  1.00  0.00     0.027 C 
HETATM   31  C   UNL     1      41.418 -10.994   5.941  1.00  0.00     0.002 C 
HETATM   32  C   UNL     1      39.952 -11.398   5.906  1.00  0.00     0.002 C 
HETATM   33  C   UNL     1      39.941 -12.927   5.967  1.00  0.00     0.027 C 
ENDBRANCH  20  29
ENDBRANCH   1  18
TORSDOF 5
ENDMDL
MODEL 8
REMARK VINA RESULT:      -8.8      2.280      5.985
REMARK  5 active torsions:
REMARK  status: ('A' for Active; 'I' for Inactive)
REMARK    1  A    between atoms: C_4  and  C_5 
REMARK    2  A    between atoms: C_5  and  C_6 
REMARK       I    between atoms: C_6  and  N_7 
REMARK    3  A    between atoms: N_7  and  C_8 
REMARK    4  A    between atoms: C_8  and  C_9 
REMARK    5  A    between atoms: N_11  and  C_12 
ROOT
HETATM    1  C   UNL     1      40.772 -14.518   6.136  1.00  0.00     0.184 C 
ENDROOT
BRANCH   1   2
HETATM    2  N   UNL     1      41.249 -13.150   6.174  1.00  0.00    -0.354 N 
HETATM    3  C   UNL     1      40.406 -12.060   6.109  1.00  0.00     0.231 C 
HETATM    4  O   UNL     1      39.187 -12.190   6.009  1.00  0.00    -0.272 OA
HETATM    5  H   UNL     1      42.252 -13.009   6.131  1.00  0.00     0.162 HD
BRANCH   3   6
HETATM    6  C   UNL     1      41.108 -10.675   6.202  1.00  0.00     0.072 C 
HETATM    7  C   UNL     1      40.432  -9.901   7.370  1.00  0.00     0.050 C 
HETATM    8  C   UNL     1      40.764  -8.411   7.366  1.00  0.00     0.169 C 
HETATM    9  O   UNL     1      40.438  -7.818   6.114  1.00  0.00    -0.391 OA
HETATM   10  C   UNL     1      41.166  -8.406   5.039  1.00  0.00     0.169 C 
HETATM   11  C   UNL     1      40.792  -9.874   4.905  1.00  0.00     0.050 C 
BRANCH   6  12
HETATM   12  C   UNL     1      42.630 -10.905   6.352  1.00  0.00    -0.040 A 
HETATM   13  C   UNL     1      43.399 -11.239   5.219  1.00  0.00     0.008 A 
HETATM   14  C   UNL     1      44.774 -11.465   5.311  1.00  0.00     0.001 A 
HETATM   15  C   UNL     1      45.413 -11.381   6.542  1.00  0.00     0.000 A 
HETATM   16  C   UNL     1      44.674 -11.080   7.680  1.00  0.00     0.001 A 
HETATM   17  C   UNL     1      43.297 -10.850   7.589  1.00  0.00     0.008 A 
ENDBRANCH   6  12
ENDBRANCH   3   6
ENDBRANCH   1   2
BRANCH   1  18
HETATM   18  C   UNL     1      41.465 -15.227   4.977  1.00  0.00     0.084 A 
HETATM   19  N   UNL     1      41.292 -14.721   3.793  1.00  0.00    -0.171 NA
HETATM   20  N   UNL     1      41.903 -15.298   2.707  1.00  0.00    -0.229 N 
HETATM   21  C   UNL     1      42.655 -16.471   2.779  1.00  0.00     0.275 A 
HETATM   22  O   UNL     1      43.124 -17.052   1.803  1.00  0.00    -0.266 OA
HETATM   23  C   UNL     1      42.891 -17.024   4.125  1.00  0.00     0.046 A 
HETATM   24  C   UNL     1      42.309 -16.415   5.232  1.00  0.00     0.008 A 
HETATM   25  C   UNL     1      43.700 -18.158   4.282  1.00  0.00     0.018 A 
HETATM   26  C   UNL     1      42.544 -16.943   6.508  1.00  0.00     0.014 A 
HETATM   27  C   UNL     1      43.354 -18.071   6.665  1.00  0.00     0.001 A 
HETATM   28  C   UNL     1      43.931 -18.680   5.553  1.00  0.00     0.001 A 
BRANCH  20  29
HETATM   29  C   UNL     1      41.562 -14.769   1.387  1.00  0.00     0.114 C 
HETATM   30  C   UNL     1      40.209 -15.285   0.891  1.00  0.00     0.027 C 
HETATM   31  C   UNL     1      39.846 -14.295  -0.202  1.00  0.00     0.002 C 
HETATM   32  C   UNL     1      40.247 -12.953   0.392  1.00  0.00     0.002 C 
HETATM   33  C   UNL     1      41.467 -13.238   1.272  1.00  0.00     0.027 C 
ENDBRANCH  20  29
ENDBRANCH   1  18
TORSDOF 5
ENDMDL
MODEL 9
REMARK VINA RESULT:      -8.7      1.525      2.980
REMARK  5 active torsions:
REMARK  status: ('A' for Active; 'I' for Inactive)
REMARK    1  A    between atoms: C_4  and  C_5 
REMARK    2  A    between atoms: C_5  and  C_6 
REMARK       I    between atoms: C_6  and  N_7 
REMARK    3  A    between atoms: N_7  and  C_8 
REMARK    4  A    between atoms: C_8  and  C_9 
REMARK    5  A    between atoms: N_11  and  C_12 
ROOT
HETATM    1  C   UNL     1      42.994 -15.567   1.390  1.00  0.00     0.184 C 
ENDROOT
BRANCH   1   2
HETATM    2  N   UNL     1      42.260 -14.339   1.159  1.00  0.00    -0.354 N 
HETATM    3  C   UNL     1      40.939 -14.317   0.763  1.00  0.00     0.231 C 
HETATM    4  O   UNL     1      40.303 -15.353   0.577  1.00  0.00    -0.272 OA
HETATM    5  H   UNL     1      42.788 -13.474   1.183  1.00  0.00     0.162 HD
BRANCH   3   6
HETATM    6  C   UNL     1      40.319 -12.900   0.603  1.00  0.00     0.072 C 
HETATM    7  C   UNL     1      39.040 -13.059  -0.268  1.00  0.00     0.050 C 
HETATM    8  C   UNL     1      38.516 -11.729  -0.802  1.00  0.00     0.169 C 
HETATM    9  O   UNL     1      39.528 -11.031  -1.518  1.00  0.00    -0.391 OA
HETATM   10  C   UNL     1      40.653 -10.730  -0.696  1.00  0.00     0.169 C 
HETATM   11  C   UNL     1      41.305 -12.020  -0.222  1.00  0.00     0.050 C 
BRANCH   6  12
HETATM   12  C   UNL     1      40.092 -12.302   2.011  1.00  0.00    -0.040 A 
HETATM   13  C   UNL     1      39.580 -13.118   3.040  1.00  0.00     0.008 A 
HETATM   14  C   UNL     1      39.349 -12.617   4.323  1.00  0.00     0.001 A 
HETATM   15  C   UNL     1      39.609 -11.281   4.606  1.00  0.00     0.000 A 
HETATM   16  C   UNL     1      40.090 -10.447   3.603  1.00  0.00     0.001 A 
HETATM   17  C   UNL     1      40.324 -10.949   2.318  1.00  0.00     0.008 A 
ENDBRANCH   6  12
ENDBRANCH   3   6
ENDBRANCH   1   2
BRANCH   1  18
HETATM   18  C   UNL     1      43.147 -15.750   2.895  1.00  0.00     0.084 A 
HETATM   19  N   UNL     1      42.973 -14.695   3.635  1.00  0.00    -0.171 NA
HETATM   20  N   UNL     1      43.077 -14.793   5.000  1.00  0.00    -0.229 N 
HETATM   21  C   UNL     1      43.444 -15.965   5.664  1.00  0.00     0.275 A 
HETATM   22  O   UNL     1      43.637 -16.041   6.875  1.00  0.00    -0.266 OA
HETATM   23  C   UNL     1      43.598 -17.173   4.834  1.00  0.00     0.046 A 
HETATM   24  C   UNL     1      43.450 -17.086   3.454  1.00  0.00     0.008 A 
HETATM   25  C   UNL     1      43.891 -18.403   5.441  1.00  0.00     0.018 A 
HETATM   26  C   UNL     1      43.591 -18.241   2.675  1.00  0.00     0.014 A 
HETATM   27  C   UNL     1      43.880 -19.467   3.279  1.00  0.00     0.001 A 
HETATM   28  C   UNL     1      44.032 -19.549   4.661  1.00  0.00     0.001 A 
BRANCH  20  29
HETATM   29  C   UNL     1      43.008 -13.550   5.768  1.00  0.00     0.114 C 
HETATM   30  C   UNL     1      44.202 -13.389   6.713  1.00  0.00     0.027 C 
HETATM   31  C   UNL     1      44.189 -11.904   7.030  1.00  0.00     0.002 C 
HETATM   32  C   UNL     1      43.884 -11.260   5.686  1.00  0.00     0.002 C 
HETATM   33  C   UNL     1      42.974 -12.247   4.950  1.00  0.00     0.027 C 
ENDBRANCH  20  29
ENDBRANCH   1  18
TORSDOF 5
ENDMDL
MODEL 10
REMARK VINA RESULT:      -8.7      2.529      7.347
REMARK  5 active torsions:
REMARK  status: ('A' for Active; 'I' for Inactive)
REMARK    1  A    between atoms: C_4  and  C_5 
REMARK    2  A    between atoms: C_5  and  C_6 
REMARK       I    between atoms: C_6  and  N_7 
REMARK    3  A    between atoms: N_7  and  C_8 
REMARK    4  A    between atoms: C_8  and  C_9 
REMARK    5  A    between atoms: N_11  and  C_12 
ROOT
HETATM    1  C   UNL     1      41.139 -14.820   1.022  1.00  0.00     0.184 C 
ENDROOT
BRANCH   1   2
HETATM    2  N   UNL     1      41.155 -14.761   2.470  1.00  0.00    -0.354 N 
HETATM    3  C   UNL     1      42.304 -14.927   3.214  1.00  0.00     0.231 C 
HETATM    4  O   UNL     1      43.393 -15.141   2.685  1.00  0.00    -0.272 OA
HETATM    5  H   UNL     1      40.259 -14.710   2.940  1.00  0.00     0.162 HD
BRANCH   3   6
HETATM    6  C   UNL     1      42.120 -14.792   4.753  1.00  0.00     0.072 C 
HETATM    7  C   UNL     1      42.517 -16.160   5.379  1.00  0.00     0.050 C 
HETATM    8  C   UNL     1      42.063 -16.303   6.830  1.00  0.00     0.169 C 
HETATM    9  O   UNL     1      40.663 -16.080   6.953  1.00  0.00    -0.391 OA
HETATM   10  C   UNL     1      40.293 -14.770   6.532  1.00  0.00     0.169 C 
HETATM   11  C   UNL     1      40.605 -14.595   5.054  1.00  0.00     0.050 C 
BRANCH   6  12
HETATM   12  C   UNL     1      42.943 -13.577   5.241  1.00  0.00    -0.040 A 
HETATM   13  C   UNL     1      42.832 -12.345   4.566  1.00  0.00     0.008 A 
HETATM   14  C   UNL     1      43.564 -11.224   4.966  1.00  0.00     0.001 A 
HETATM   15  C   UNL     1      44.439 -11.312   6.042  1.00  0.00     0.000 A 
HETATM   16  C   UNL     1      44.588 -12.523   6.709  1.00  0.00     0.001 A 
HETATM   17  C   UNL     1      43.853 -13.644   6.311  1.00  0.00     0.008 A 
ENDBRANCH   6  12
ENDBRANCH   3   6
ENDBRANCH   1   2
BRANCH   1  18
HETATM   18  C   UNL     1      40.262 -13.682   0.512  1.00  0.00     0.084 A 
HETATM   19  N   UNL     1      40.268 -12.582   1.205  1.00  0.00    -0.171 NA
HETATM   20  N   UNL     1      39.516 -11.511   0.792  1.00  0.00    -0.229 N 
HETATM   21  C   UNL     1      38.660 -11.548  -0.310  1.00  0.00     0.275 A 
HETATM   22  O   UNL     1      37.908 -10.631  -0.631  1.00  0.00    -0.266 OA
HETATM   23  C   UNL     1      38.683 -12.776  -1.124  1.00  0.00     0.046 A 
HETATM   24  C   UNL     1      39.478 -13.848  -0.732  1.00  0.00     0.008 A 
HETATM   25  C   UNL     1      37.906 -12.857  -2.287  1.00  0.00     0.018 A 
HETATM   26  C   UNL     1      39.500 -15.009  -1.515  1.00  0.00     0.014 A 
HETATM   27  C   UNL     1      38.728 -15.089  -2.677  1.00  0.00     0.001 A 
HETATM   28  C   UNL     1      37.929 -14.015  -3.063  1.00  0.00     0.001 A 
BRANCH  20  29
HETATM   29  C   UNL     1      39.455 -10.352   1.683  1.00  0.00     0.114 C 
HETATM   30  C   UNL     1      38.486 -10.571   2.848  1.00  0.00     0.027 C 
HETATM   31  C   UNL     1      38.915  -9.516   3.852  1.00  0.00     0.002 C 
HETATM   32  C   UNL     1      40.435  -9.572   3.792  1.00  0.00     0.002 C 
HETATM   33  C   UNL     1      40.779  -9.933   2.344  1.00  0.00     0.027 C 
ENDBRANCH  20  29
ENDBRANCH   1  18
TORSDOF 5
ENDMDL
