MODEL 1
REMARK VINA RESULT:      -9.4      0.000      0.000
REMARK  4 active torsions:
REMARK  status: ('A' for Active; 'I' for Inactive)
REMARK    1  A    between atoms: C_3  and  C_4 
REMARK    2  A    between atoms: C_4  and  N_5 
REMARK       I    between atoms: N_5  and  C_6 
REMARK       I    between atoms: C_6  and  N_7 
REMARK    3  A    between atoms: N_7  and  C_8 
REMARK    4  A    between atoms: C_17  and  C_18 
ROOT
HETATM    1  C   UNL     1      45.736 -11.051   7.324  1.00  0.00     0.049 C 
HETATM    2  C   UNL     1      44.424 -11.643   6.887  1.00  0.00    -0.053 A 
HETATM    3  C   UNL     1      43.209 -10.933   6.994  1.00  0.00    -0.035 A 
HETATM    4  C   UNL     1      42.027 -11.519   6.502  1.00  0.00     0.010 A 
HETATM    5  C   UNL     1      42.029 -12.814   5.982  1.00  0.00     0.014 A 
HETATM    6  C   UNL     1      43.211 -13.556   5.979  1.00  0.00    -0.004 A 
HETATM    7  C   UNL     1      44.407 -12.959   6.395  1.00  0.00     0.021 A 
ENDROOT
BRANCH   3   8
HETATM    8  C   UNL     1      43.128  -9.557   7.611  1.00  0.00     0.163 C 
BRANCH   8   9
HETATM    9  N   UNL     1      42.335  -9.553   8.816  1.00  0.00    -0.339 N 
HETATM   10  C   UNL     1      42.979  -9.638  10.022  1.00  0.00     0.316 C 
HETATM   11  N   UNL     1      42.111  -9.570  11.078  1.00  0.00    -0.339 N 
HETATM   12  O   UNL     1      44.189  -9.787  10.135  1.00  0.00    -0.247 OA
HETATM   13  H   UNL     1      41.145  -9.358  10.883  1.00  0.00     0.164 HD
HETATM   14  H   UNL     1      41.470  -9.037   8.794  1.00  0.00     0.164 HD
BRANCH  11  15
HETATM   15  C   UNL     1      42.584  -9.505  12.456  1.00  0.00     0.086 C 
HETATM   16  C   UNL     1      43.314  -8.180  12.720  1.00  0.00     0.025 C 
HETATM   17  C   UNL     1      42.358  -6.990  12.781  1.00  0.00     0.002 C 
HETATM   18  C   UNL     1      41.243  -7.218  13.797  1.00  0.00     0.000 C 
HETATM   19  C   UNL     1      40.488  -8.516  13.526  1.00  0.00     0.002 C 
HETATM   20  C   UNL     1      41.432  -9.715  13.445  1.00  0.00     0.025 C 
ENDBRANCH  11  15
ENDBRANCH   8   9
ENDBRANCH   3   8
BRANCH   6  21
HETATM   21  C   UNL     1      43.250 -14.964   5.494  1.00  0.00     0.098 A 
HETATM   22  N   UNL     1      43.319 -15.888   6.406  1.00  0.00    -0.169 NA
HETATM   23  N   UNL     1      43.392 -17.203   6.031  1.00  0.00    -0.238 N 
HETATM   24  C   UNL     1      43.452 -18.178   7.100  1.00  0.00     0.183 C 
HETATM   25  C   UNL     1      43.481 -17.641   4.716  1.00  0.00     0.274 A 
HETATM   26  O   UNL     1      43.625 -18.819   4.393  1.00  0.00    -0.266 OA
HETATM   27  C   UNL     1      43.359 -16.608   3.674  1.00  0.00     0.046 A 
HETATM   28  C   UNL     1      43.196 -15.276   4.043  1.00  0.00     0.011 A 
HETATM   29  C   UNL     1      43.350 -16.981   2.321  1.00  0.00     0.018 A 
HETATM   30  C   UNL     1      42.953 -14.320   3.046  1.00  0.00     0.015 A 
HETATM   31  C   UNL     1      42.944 -14.690   1.697  1.00  0.00     0.001 A 
HETATM   32  C   UNL     1      43.154 -16.017   1.333  1.00  0.00     0.001 A 
ENDBRANCH   6  21
TORSDOF 4
ENDMDL
MODEL 2
REMARK VINA RESULT:      -9.0      1.036      1.965
REMARK  4 active torsions:
REMARK  status: ('A' for Active; 'I' for Inactive)
REMARK    1  A    between atoms: C_3  and  C_4 
REMARK    2  A    between atoms: C_4  and  N_5 
REMARK       I    between atoms: N_5  and  C_6 
REMARK       I    between atoms: C_6  and  N_7 
REMARK    3  A    between atoms: N_7  and  C_8 
REMARK    4  A    between atoms: C_17  and  C_18 
ROOT
HETATM    1  C   UNL     1      40.350 -11.060   6.125  1.00  0.00     0.049 C 
HETATM    2  C   UNL     1      41.696 -11.716   6.276  1.00  0.00    -0.053 A 
HETATM    3  C   UNL     1      42.817 -11.018   6.771  1.00  0.00    -0.035 A 
HETATM    4  C   UNL     1      44.030 -11.709   6.952  1.00  0.00     0.010 A 
HETATM    5  C   UNL     1      44.157 -13.048   6.581  1.00  0.00     0.014 A 
HETATM    6  C   UNL     1      43.077 -13.706   5.989  1.00  0.00    -0.004 A 
HETATM    7  C   UNL     1      41.845 -13.053   5.871  1.00  0.00     0.021 A 
ENDROOT
BRANCH   3   8
HETATM    8  C   UNL     1      42.765  -9.550   7.125  1.00  0.00     0.163 C 
BRANCH   8   9
HETATM    9  N   UNL     1      42.994  -9.327   8.532  1.00  0.00    -0.339 N 
HETATM   10  C   UNL     1      42.121  -8.524   9.217  1.00  0.00     0.316 C 
HETATM   11  N   UNL     1      42.428  -8.445  10.549  1.00  0.00    -0.339 N 
HETATM   12  O   UNL     1      41.192  -7.928   8.689  1.00  0.00    -0.247 OA
HETATM   13  H   UNL     1      43.158  -9.042  10.903  1.00  0.00     0.164 HD
HETATM   14  H   UNL     1      43.435 -10.071   9.048  1.00  0.00     0.164 HD
BRANCH  11  15
HETATM   15  C   UNL     1      41.558  -7.756  11.495  1.00  0.00     0.086 C 
HETATM   16  C   UNL     1      40.663  -8.757  12.240  1.00  0.00     0.025 C 
HETATM   17  C   UNL     1      41.441  -9.592  13.256  1.00  0.00     0.002 C 
HETATM   18  C   UNL     1      42.215  -8.710  14.231  1.00  0.00     0.000 C 
HETATM   19  C   UNL     1      43.133  -7.733  13.504  1.00  0.00     0.002 C 
HETATM   20  C   UNL     1      42.373  -6.901  12.472  1.00  0.00     0.025 C 
ENDBRANCH  11  15
ENDBRANCH   8   9
ENDBRANCH   3   8
BRANCH   6  21
HETATM   21  C   UNL     1      43.184 -15.115   5.516  1.00  0.00     0.098 A 
HETATM   22  N   UNL     1      43.270 -16.029   6.436  1.00  0.00    -0.169 NA
HETATM   23  N   UNL     1      43.405 -17.342   6.073  1.00  0.00    -0.238 N 
HETATM   24  C   UNL     1      43.482 -18.307   7.151  1.00  0.00     0.183 C 
HETATM   25  C   UNL     1      43.540 -17.786   4.764  1.00  0.00     0.274 A 
HETATM   26  O   UNL     1      43.739 -18.959   4.453  1.00  0.00    -0.266 OA
HETATM   27  C   UNL     1      43.398 -16.765   3.712  1.00  0.00     0.046 A 
HETATM   28  C   UNL     1      43.173 -15.439   4.066  1.00  0.00     0.011 A 
HETATM   29  C   UNL     1      43.433 -17.148   2.362  1.00  0.00     0.018 A 
HETATM   30  C   UNL     1      42.913 -14.501   3.057  1.00  0.00     0.015 A 
HETATM   31  C   UNL     1      42.947 -14.880   1.711  1.00  0.00     0.001 A 
HETATM   32  C   UNL     1      43.219 -16.200   1.362  1.00  0.00     0.001 A 
ENDBRANCH   6  21
TORSDOF 4
ENDMDL
MODEL 3
REMARK VINA RESULT:      -8.9      4.974     13.001
REMARK  4 active torsions:
REMARK  status: ('A' for Active; 'I' for Inactive)
REMARK    1  A    between atoms: C_3  and  C_4 
REMARK    2  A    between atoms: C_4  and  N_5 
REMARK       I    between atoms: N_5  and  C_6 
REMARK       I    between atoms: C_6  and  N_7 
REMARK    3  A    between atoms: N_7  and  C_8 
REMARK    4  A    between atoms: C_17  and  C_18 
ROOT
HETATM    1  C   UNL     1      38.490  -7.244  12.488  1.00  0.00     0.049 C 
HETATM    2  C   UNL     1      39.580  -7.622  13.453  1.00  0.00    -0.053 A 
HETATM    3  C   UNL     1      40.380  -8.768  13.268  1.00  0.00    -0.035 A 
HETATM    4  C   UNL     1      41.428  -9.026  14.171  1.00  0.00     0.010 A 
HETATM    5  C   UNL     1      41.637  -8.209  15.284  1.00  0.00     0.014 A 
HETATM    6  C   UNL     1      40.774  -7.139  15.525  1.00  0.00    -0.004 A 
HETATM    7  C   UNL     1      39.775  -6.828  14.596  1.00  0.00     0.021 A 
ENDROOT
BRANCH   3   8
HETATM    8  C   UNL     1      40.161  -9.731  12.125  1.00  0.00     0.163 C 
BRANCH   8   9
HETATM    9  N   UNL     1      41.391 -10.036  11.435  1.00  0.00    -0.339 N 
HETATM   10  C   UNL     1      41.588  -9.507  10.186  1.00  0.00     0.316 C 
HETATM   11  N   UNL     1      42.814  -9.833   9.674  1.00  0.00    -0.339 N 
HETATM   12  O   UNL     1      40.749  -8.843   9.592  1.00  0.00    -0.247 OA
HETATM   13  H   UNL     1      43.467 -10.309  10.276  1.00  0.00     0.164 HD
HETATM   14  H   UNL     1      42.209 -10.191  12.002  1.00  0.00     0.164 HD
BRANCH  11  15
HETATM   15  C   UNL     1      43.294  -9.269   8.418  1.00  0.00     0.086 C 
HETATM   16  C   UNL     1      44.553  -8.420   8.647  1.00  0.00     0.025 C 
HETATM   17  C   UNL     1      45.780  -9.273   8.965  1.00  0.00     0.002 C 
HETATM   18  C   UNL     1      46.017 -10.335   7.896  1.00  0.00     0.000 C 
HETATM   19  C   UNL     1      44.784 -11.207   7.682  1.00  0.00     0.002 C 
HETATM   20  C   UNL     1      43.543 -10.368   7.379  1.00  0.00     0.025 C 
ENDBRANCH  11  15
ENDBRANCH   8   9
ENDBRANCH   3   8
BRANCH   6  21
HETATM   21  C   UNL     1      40.916  -6.277  16.733  1.00  0.00     0.098 A 
HETATM   22  N   UNL     1      41.351  -5.068  16.533  1.00  0.00    -0.169 NA
HETATM   23  N   UNL     1      41.538  -4.233  17.601  1.00  0.00    -0.238 N 
HETATM   24  C   UNL     1      42.011  -2.897  17.303  1.00  0.00     0.183 C 
HETATM   25  C   UNL     1      41.372  -4.605  18.929  1.00  0.00     0.274 A 
HETATM   26  O   UNL     1      41.617  -3.871  19.885  1.00  0.00    -0.266 OA
HETATM   27  C   UNL     1      40.836  -5.957  19.165  1.00  0.00     0.046 A 
HETATM   28  C   UNL     1      40.559  -6.785  18.082  1.00  0.00     0.011 A 
HETATM   29  C   UNL     1      40.556  -6.376  20.475  1.00  0.00     0.018 A 
HETATM   30  C   UNL     1      39.932  -8.018  18.313  1.00  0.00     0.015 A 
HETATM   31  C   UNL     1      39.652  -8.438  19.617  1.00  0.00     0.001 A 
HETATM   32  C   UNL     1      39.974  -7.622  20.699  1.00  0.00     0.001 A 
ENDBRANCH   6  21
TORSDOF 4
ENDMDL
MODEL 4
REMARK VINA RESULT:      -8.9      3.345     10.012
REMARK  4 active torsions:
REMARK  status: ('A' for Active; 'I' for Inactive)
REMARK    1  A    between atoms: C_3  and  C_4 
REMARK    2  A    between atoms: C_4  and  N_5 
REMARK       I    between atoms: N_5  and  C_6 
REMARK       I    between atoms: C_6  and  N_7 
REMARK    3  A    between atoms: N_7  and  C_8 
REMARK    4  A    between atoms: C_17  and  C_18 
ROOT
HETATM    1  C   UNL     1      41.822 -15.677   5.350  1.00  0.00     0.049 C 
HETATM    2  C   UNL     1      42.304 -14.318   4.920  1.00  0.00    -0.053 A 
HETATM    3  C   UNL     1      42.826 -14.081   3.631  1.00  0.00    -0.035 A 
HETATM    4  C   UNL     1      43.196 -12.772   3.271  1.00  0.00     0.010 A 
HETATM    5  C   UNL     1      43.123 -11.725   4.191  1.00  0.00     0.014 A 
HETATM    6  C   UNL     1      42.711 -11.983   5.500  1.00  0.00    -0.004 A 
HETATM    7  C   UNL     1      42.271 -13.265   5.850  1.00  0.00     0.021 A 
ENDROOT
BRANCH   3   8
HETATM    8  C   UNL     1      42.996 -15.184   2.613  1.00  0.00     0.163 C 
BRANCH   8   9
HETATM    9  N   UNL     1      42.570 -14.772   1.297  1.00  0.00    -0.339 N 
HETATM   10  C   UNL     1      41.233 -14.806   1.003  1.00  0.00     0.316 C 
HETATM   11  N   UNL     1      40.968 -14.340  -0.256  1.00  0.00    -0.339 N 
HETATM   12  O   UNL     1      40.381 -15.232   1.771  1.00  0.00    -0.247 OA
HETATM   13  H   UNL     1      41.727 -13.930  -0.778  1.00  0.00     0.164 HD
HETATM   14  H   UNL     1      43.124 -14.068   0.836  1.00  0.00     0.164 HD
BRANCH  11  15
HETATM   15  C   UNL     1      39.603 -14.158  -0.734  1.00  0.00     0.086 C 
HETATM   16  C   UNL     1      39.104 -12.737  -0.432  1.00  0.00     0.025 C 
HETATM   17  C   UNL     1      39.768 -11.686  -1.319  1.00  0.00     0.002 C 
HETATM   18  C   UNL     1      39.614 -12.022  -2.799  1.00  0.00     0.000 C 
HETATM   19  C   UNL     1      40.136 -13.419  -3.119  1.00  0.00     0.002 C 
HETATM   20  C   UNL     1      39.494 -14.482  -2.228  1.00  0.00     0.025 C 
ENDBRANCH  11  15
ENDBRANCH   8   9
ENDBRANCH   3   8
BRANCH   6  21
HETATM   21  C   UNL     1      42.679 -10.912   6.535  1.00  0.00     0.098 A 
HETATM   22  N   UNL     1      41.507 -10.452   6.856  1.00  0.00    -0.169 NA
HETATM   23  N   UNL     1      41.405  -9.443   7.775  1.00  0.00    -0.238 N 
HETATM   24  C   UNL     1      40.067  -8.990   8.094  1.00  0.00     0.183 C 
HETATM   25  C   UNL     1      42.489  -8.796   8.355  1.00  0.00     0.274 A 
HETATM   26  O   UNL     1      42.388  -7.839   9.121  1.00  0.00    -0.266 OA
HETATM   27  C   UNL     1      43.820  -9.339   8.035  1.00  0.00     0.046 A 
HETATM   28  C   UNL     1      43.931 -10.421   7.168  1.00  0.00     0.011 A 
HETATM   29  C   UNL     1      44.959  -8.797   8.650  1.00  0.00     0.018 A 
HETATM   30  C   UNL     1      45.189 -11.009   6.971  1.00  0.00     0.015 A 
HETATM   31  C   UNL     1      46.325 -10.471   7.583  1.00  0.00     0.001 A 
HETATM   32  C   UNL     1      46.213  -9.358   8.413  1.00  0.00     0.001 A 
ENDBRANCH   6  21
TORSDOF 4
ENDMDL
MODEL 5
REMARK VINA RESULT:      -8.9      2.332      3.195
REMARK  4 active torsions:
REMARK  status: ('A' for Active; 'I' for Inactive)
REMARK    1  A    between atoms: C_3  and  C_4 
REMARK    2  A    between atoms: C_4  and  N_5 
REMARK       I    between atoms: N_5  and  C_6 
REMARK       I    between atoms: C_6  and  N_7 
REMARK    3  A    between atoms: N_7  and  C_8 
REMARK    4  A    between atoms: C_17  and  C_18 
ROOT
HETATM    1  C   UNL     1      46.058 -11.257   6.131  1.00  0.00     0.049 C 
HETATM    2  C   UNL     1      44.575 -11.451   5.973  1.00  0.00    -0.053 A 
HETATM    3  C   UNL     1      43.658 -11.062   6.972  1.00  0.00    -0.035 A 
HETATM    4  C   UNL     1      42.279 -11.208   6.732  1.00  0.00     0.010 A 
HETATM    5  C   UNL     1      41.812 -11.799   5.556  1.00  0.00     0.014 A 
HETATM    6  C   UNL     1      42.725 -12.284   4.618  1.00  0.00    -0.004 A 
HETATM    7  C   UNL     1      44.096 -12.078   4.810  1.00  0.00     0.021 A 
ENDROOT
BRANCH   3   8
HETATM    8  C   UNL     1      44.101 -10.482   8.295  1.00  0.00     0.163 C 
BRANCH   8   9
HETATM    9  N   UNL     1      42.981 -10.157   9.143  1.00  0.00    -0.339 N 
HETATM   10  C   UNL     1      43.082 -10.413  10.485  1.00  0.00     0.316 C 
HETATM   11  N   UNL     1      41.970 -10.007  11.174  1.00  0.00    -0.339 N 
HETATM   12  O   UNL     1      44.045 -10.965  10.999  1.00  0.00    -0.247 OA
HETATM   13  H   UNL     1      41.269  -9.483  10.674  1.00  0.00     0.164 HD
HETATM   14  H   UNL     1      42.407  -9.376   8.866  1.00  0.00     0.164 HD
BRANCH  11  15
HETATM   15  C   UNL     1      41.912 -10.056  12.630  1.00  0.00     0.086 C 
HETATM   16  C   UNL     1      42.613  -8.836  13.245  1.00  0.00     0.025 C 
HETATM   17  C   UNL     1      41.813  -7.548  13.056  1.00  0.00     0.002 C 
HETATM   18  C   UNL     1      40.389  -7.690  13.582  1.00  0.00     0.000 C 
HETATM   19  C   UNL     1      39.669  -8.879  12.954  1.00  0.00     0.002 C 
HETATM   20  C   UNL     1      40.464 -10.174  13.120  1.00  0.00     0.025 C 
ENDBRANCH  11  15
ENDBRANCH   8   9
ENDBRANCH   3   8
BRANCH   6  21
HETATM   21  C   UNL     1      42.277 -12.980   3.379  1.00  0.00     0.098 A 
HETATM   22  N   UNL     1      41.823 -12.225   2.423  1.00  0.00    -0.169 NA
HETATM   23  N   UNL     1      41.362 -12.800   1.269  1.00  0.00    -0.238 N 
HETATM   24  C   UNL     1      40.884 -11.897   0.243  1.00  0.00     0.183 C 
HETATM   25  C   UNL     1      41.264 -14.169   1.058  1.00  0.00     0.274 A 
HETATM   26  O   UNL     1      40.776 -14.676   0.049  1.00  0.00    -0.266 OA
HETATM   27  C   UNL     1      41.818 -15.033   2.114  1.00  0.00     0.046 A 
HETATM   28  C   UNL     1      42.368 -14.458   3.255  1.00  0.00     0.011 A 
HETATM   29  C   UNL     1      41.837 -16.425   1.936  1.00  0.00     0.018 A 
HETATM   30  C   UNL     1      43.006 -15.283   4.193  1.00  0.00     0.015 A 
HETATM   31  C   UNL     1      43.026 -16.670   4.017  1.00  0.00     0.001 A 
HETATM   32  C   UNL     1      42.432 -17.243   2.896  1.00  0.00     0.001 A 
ENDBRANCH   6  21
TORSDOF 4
ENDMDL
MODEL 6
REMARK VINA RESULT:      -8.7      2.287      3.187
REMARK  4 active torsions:
REMARK  status: ('A' for Active; 'I' for Inactive)
REMARK    1  A    between atoms: C_3  and  C_4 
REMARK    2  A    between atoms: C_4  and  N_5 
REMARK       I    between atoms: N_5  and  C_6 
REMARK       I    between atoms: C_6  and  N_7 
REMARK    3  A    between atoms: N_7  and  C_8 
REMARK    4  A    between atoms: C_17  and  C_18 
ROOT
HETATM    1  C   UNL     1      41.700  -9.363   4.507  1.00  0.00     0.049 C 
HETATM    2  C   UNL     1      41.090 -10.635   5.028  1.00  0.00    -0.053 A 
HETATM    3  C   UNL     1      40.249 -10.653   6.160  1.00  0.00    -0.035 A 
HETATM    4  C   UNL     1      39.655 -11.867   6.554  1.00  0.00     0.010 A 
HETATM    5  C   UNL     1      39.946 -13.060   5.888  1.00  0.00     0.014 A 
HETATM    6  C   UNL     1      40.864 -13.057   4.837  1.00  0.00    -0.004 A 
HETATM    7  C   UNL     1      41.404 -11.846   4.389  1.00  0.00     0.021 A 
ENDROOT
BRANCH   3   8
HETATM    8  C   UNL     1      39.950  -9.411   6.966  1.00  0.00     0.163 C 
BRANCH   8   9
HETATM    9  N   UNL     1      40.290  -9.578   8.358  1.00  0.00    -0.339 N 
HETATM   10  C   UNL     1      41.604  -9.463   8.728  1.00  0.00     0.316 C 
HETATM   11  N   UNL     1      41.774  -9.590  10.080  1.00  0.00    -0.339 N 
HETATM   12  O   UNL     1      42.519  -9.293   7.934  1.00  0.00    -0.247 OA
HETATM   13  H   UNL     1      40.949  -9.639  10.658  1.00  0.00     0.164 HD
HETATM   14  H   UNL     1      39.597  -9.302   9.036  1.00  0.00     0.164 HD
BRANCH  11  15
HETATM   15  C   UNL     1      43.068  -9.369  10.714  1.00  0.00     0.086 C 
HETATM   16  C   UNL     1      43.252  -7.888  11.076  1.00  0.00     0.025 C 
HETATM   17  C   UNL     1      42.377  -7.464  12.255  1.00  0.00     0.002 C 
HETATM   18  C   UNL     1      42.598  -8.361  13.469  1.00  0.00     0.000 C 
HETATM   19  C   UNL     1      42.387  -9.833  13.130  1.00  0.00     0.002 C 
HETATM   20  C   UNL     1      43.242 -10.270  11.942  1.00  0.00     0.025 C 
ENDBRANCH  11  15
ENDBRANCH   8   9
ENDBRANCH   3   8
BRANCH   6  21
HETATM   21  C   UNL     1      41.256 -14.313   4.138  1.00  0.00     0.098 A 
HETATM   22  N   UNL     1      40.607 -14.595   3.048  1.00  0.00    -0.169 NA
HETATM   23  N   UNL     1      40.891 -15.752   2.372  1.00  0.00    -0.238 N 
HETATM   24  C   UNL     1      40.139 -15.994   1.159  1.00  0.00     0.183 C 
HETATM   25  C   UNL     1      41.788 -16.718   2.810  1.00  0.00     0.274 A 
HETATM   26  O   UNL     1      41.979 -17.788   2.236  1.00  0.00    -0.266 OA
HETATM   27  C   UNL     1      42.562 -16.388   4.019  1.00  0.00     0.046 A 
HETATM   28  C   UNL     1      42.344 -15.176   4.666  1.00  0.00     0.011 A 
HETATM   29  C   UNL     1      43.551 -17.274   4.475  1.00  0.00     0.018 A 
HETATM   30  C   UNL     1      43.174 -14.819   5.739  1.00  0.00     0.015 A 
HETATM   31  C   UNL     1      44.161 -15.699   6.194  1.00  0.00     0.001 A 
HETATM   32  C   UNL     1      44.342 -16.931   5.570  1.00  0.00     0.001 A 
ENDBRANCH   6  21
TORSDOF 4
ENDMDL
MODEL 7
REMARK VINA RESULT:      -8.6      2.782     10.382
REMARK  4 active torsions:
REMARK  status: ('A' for Active; 'I' for Inactive)
REMARK    1  A    between atoms: C_3  and  C_4 
REMARK    2  A    between atoms: C_4  and  N_5 
REMARK       I    between atoms: N_5  and  C_6 
REMARK       I    between atoms: C_6  and  N_7 
REMARK    3  A    between atoms: N_7  and  C_8 
REMARK    4  A    between atoms: C_17  and  C_18 
ROOT
HETATM    1  C   UNL     1      46.933  -9.714   7.917  1.00  0.00     0.049 C 
HETATM    2  C   UNL     1      45.441  -9.606   8.079  1.00  0.00    -0.053 A 
HETATM    3  C   UNL     1      44.546 -10.341   7.275  1.00  0.00    -0.035 A 
HETATM    4  C   UNL     1      43.164 -10.246   7.524  1.00  0.00     0.010 A 
HETATM    5  C   UNL     1      42.667  -9.382   8.502  1.00  0.00     0.014 A 
HETATM    6  C   UNL     1      43.549  -8.573   9.221  1.00  0.00    -0.004 A 
HETATM    7  C   UNL     1      44.929  -8.712   9.034  1.00  0.00     0.021 A 
ENDROOT
BRANCH   3   8
HETATM    8  C   UNL     1      45.015 -11.240   6.154  1.00  0.00     0.163 C 
BRANCH   8   9
HETATM    9  N   UNL     1      43.985 -12.158   5.733  1.00  0.00    -0.339 N 
HETATM   10  C   UNL     1      43.642 -12.192   4.407  1.00  0.00     0.316 C 
HETATM   11  N   UNL     1      42.694 -13.143   4.143  1.00  0.00    -0.339 N 
HETATM   12  O   UNL     1      44.112 -11.437   3.567  1.00  0.00    -0.247 OA
HETATM   13  H   UNL     1      42.435 -13.773   4.886  1.00  0.00     0.164 HD
HETATM   14  H   UNL     1      43.898 -13.018   6.252  1.00  0.00     0.164 HD
BRANCH  11  15
HETATM   15  C   UNL     1      42.277 -13.449   2.779  1.00  0.00     0.086 C 
HETATM   16  C   UNL     1      43.274 -14.402   2.105  1.00  0.00     0.025 C 
HETATM   17  C   UNL     1      43.191 -15.822   2.662  1.00  0.00     0.002 C 
HETATM   18  C   UNL     1      41.769 -16.370   2.593  1.00  0.00     0.000 C 
HETATM   19  C   UNL     1      40.773 -15.448   3.289  1.00  0.00     0.002 C 
HETATM   20  C   UNL     1      40.854 -14.019   2.754  1.00  0.00     0.025 C 
ENDBRANCH  11  15
ENDBRANCH   8   9
ENDBRANCH   3   8
BRANCH   6  21
HETATM   21  C   UNL     1      43.062  -7.589  10.228  1.00  0.00     0.098 A 
HETATM   22  N   UNL     1      42.891  -6.370   9.810  1.00  0.00    -0.169 NA
HETATM   23  N   UNL     1      42.479  -5.405  10.690  1.00  0.00    -0.238 N 
HETATM   24  C   UNL     1      42.295  -4.074  10.151  1.00  0.00     0.183 C 
HETATM   25  C   UNL     1      42.299  -5.610  12.052  1.00  0.00     0.274 A 
HETATM   26  O   UNL     1      42.003  -4.719  12.847  1.00  0.00    -0.266 OA
HETATM   27  C   UNL     1      42.445  -6.996  12.528  1.00  0.00     0.046 A 
HETATM   28  C   UNL     1      42.779  -8.001  11.627  1.00  0.00     0.011 A 
HETATM   29  C   UNL     1      42.192  -7.299  13.875  1.00  0.00     0.018 A 
HETATM   30  C   UNL     1      42.791  -9.332  12.067  1.00  0.00     0.015 A 
HETATM   31  C   UNL     1      42.539  -9.637  13.409  1.00  0.00     0.001 A 
HETATM   32  C   UNL     1      42.251  -8.620  14.315  1.00  0.00     0.001 A 
ENDBRANCH   6  21
TORSDOF 4
ENDMDL
MODEL 8
REMARK VINA RESULT:      -8.6      2.909     10.716
REMARK  4 active torsions:
REMARK  status: ('A' for Active; 'I' for Inactive)
REMARK    1  A    between atoms: C_3  and  C_4 
REMARK    2  A    between atoms: C_4  and  N_5 
REMARK       I    between atoms: N_5  and  C_6 
REMARK       I    between atoms: C_6  and  N_7 
REMARK    3  A    between atoms: N_7  and  C_8 
REMARK    4  A    between atoms: C_17  and  C_18 
ROOT
HETATM    1  C   UNL     1      43.741  -7.269   9.031  1.00  0.00     0.049 C 
HETATM    2  C   UNL     1      43.397  -8.119  10.224  1.00  0.00    -0.053 A 
HETATM    3  C   UNL     1      43.731  -9.488  10.290  1.00  0.00    -0.035 A 
HETATM    4  C   UNL     1      43.441 -10.209  11.463  1.00  0.00     0.010 A 
HETATM    5  C   UNL     1      42.764  -9.610  12.527  1.00  0.00     0.014 A 
HETATM    6  C   UNL     1      42.336  -8.286  12.415  1.00  0.00    -0.004 A 
HETATM    7  C   UNL     1      42.683  -7.536  11.285  1.00  0.00     0.021 A 
ENDROOT
BRANCH   3   8
HETATM    8  C   UNL     1      44.401 -10.213   9.146  1.00  0.00     0.163 C 
BRANCH   8   9
HETATM    9  N   UNL     1      43.491 -11.098   8.463  1.00  0.00    -0.339 N 
HETATM   10  C   UNL     1      43.990 -11.929   7.495  1.00  0.00     0.316 C 
HETATM   11  N   UNL     1      43.028 -12.749   6.970  1.00  0.00    -0.339 N 
HETATM   12  O   UNL     1      45.157 -11.916   7.127  1.00  0.00    -0.247 OA
HETATM   13  H   UNL     1      42.117 -12.745   7.400  1.00  0.00     0.164 HD
HETATM   14  H   UNL     1      42.694 -11.428   8.984  1.00  0.00     0.164 HD
BRANCH  11  15
HETATM   15  C   UNL     1      43.358 -13.808   6.022  1.00  0.00     0.086 C 
HETATM   16  C   UNL     1      43.784 -15.085   6.759  1.00  0.00     0.025 C 
HETATM   17  C   UNL     1      42.608 -15.785   7.440  1.00  0.00     0.002 C 
HETATM   18  C   UNL     1      41.477 -16.066   6.456  1.00  0.00     0.000 C 
HETATM   19  C   UNL     1      41.022 -14.798   5.741  1.00  0.00     0.002 C 
HETATM   20  C   UNL     1      42.189 -14.076   5.068  1.00  0.00     0.025 C 
ENDBRANCH  11  15
ENDBRANCH   8   9
ENDBRANCH   3   8
BRANCH   6  21
HETATM   21  C   UNL     1      41.553  -7.622  13.495  1.00  0.00     0.098 A 
HETATM   22  N   UNL     1      42.162  -7.455  14.632  1.00  0.00    -0.169 NA
HETATM   23  N   UNL     1      41.492  -6.884  15.680  1.00  0.00    -0.238 N 
HETATM   24  C   UNL     1      42.238  -6.716  16.910  1.00  0.00     0.183 C 
HETATM   25  C   UNL     1      40.150  -6.528  15.654  1.00  0.00     0.274 A 
HETATM   26  O   UNL     1      39.537  -6.087  16.625  1.00  0.00    -0.266 OA
HETATM   27  C   UNL     1      39.463  -6.670  14.359  1.00  0.00     0.046 A 
HETATM   28  C   UNL     1      40.158  -7.169  13.262  1.00  0.00     0.011 A 
HETATM   29  C   UNL     1      38.130  -6.248  14.229  1.00  0.00     0.018 A 
HETATM   30  C   UNL     1      39.531  -7.180  12.008  1.00  0.00     0.015 A 
HETATM   31  C   UNL     1      38.204  -6.760  11.875  1.00  0.00     0.001 A 
HETATM   32  C   UNL     1      37.499  -6.305  12.987  1.00  0.00     0.001 A 
ENDBRANCH   6  21
TORSDOF 4
ENDMDL
MODEL 9
REMARK VINA RESULT:      -8.5      1.514      3.160
REMARK  4 active torsions:
REMARK  status: ('A' for Active; 'I' for Inactive)
REMARK    1  A    between atoms: C_3  and  C_4 
REMARK    2  A    between atoms: C_4  and  N_5 
REMARK       I    between atoms: N_5  and  C_6 
REMARK       I    between atoms: C_6  and  N_7 
REMARK    3  A    between atoms: N_7  and  C_8 
REMARK    4  A    between atoms: C_17  and  C_18 
ROOT
HETATM    1  C   UNL     1      39.979 -11.189   6.342  1.00  0.00     0.049 C 
HETATM    2  C   UNL     1      41.389 -11.704   6.233  1.00  0.00    -0.053 A 
HETATM    3  C   UNL     1      42.492 -10.978   6.730  1.00  0.00    -0.035 A 
HETATM    4  C   UNL     1      43.777 -11.548   6.657  1.00  0.00     0.010 A 
HETATM    5  C   UNL     1      43.982 -12.782   6.035  1.00  0.00     0.014 A 
HETATM    6  C   UNL     1      42.905 -13.446   5.447  1.00  0.00    -0.004 A 
HETATM    7  C   UNL     1      41.612 -12.926   5.577  1.00  0.00     0.021 A 
ENDROOT
BRANCH   3   8
HETATM    8  C   UNL     1      42.346  -9.608   7.349  1.00  0.00     0.163 C 
BRANCH   8   9
HETATM    9  N   UNL     1      42.245  -9.676   8.787  1.00  0.00    -0.339 N 
HETATM   10  C   UNL     1      41.862  -8.550   9.468  1.00  0.00     0.316 C 
HETATM   11  N   UNL     1      41.757  -8.772  10.815  1.00  0.00    -0.339 N 
HETATM   12  O   UNL     1      41.665  -7.468   8.932  1.00  0.00    -0.247 OA
HETATM   13  H   UNL     1      41.854  -9.719  11.148  1.00  0.00     0.164 HD
HETATM   14  H   UNL     1      41.989 -10.564   9.187  1.00  0.00     0.164 HD
BRANCH  11  15
HETATM   15  C   UNL     1      41.235  -7.755  11.720  1.00  0.00     0.086 C 
HETATM   16  C   UNL     1      40.318  -8.386  12.778  1.00  0.00     0.025 C 
HETATM   17  C   UNL     1      41.096  -9.195  13.815  1.00  0.00     0.002 C 
HETATM   18  C   UNL     1      42.198  -8.363  14.463  1.00  0.00     0.000 C 
HETATM   19  C   UNL     1      43.136  -7.757  13.424  1.00  0.00     0.002 C 
HETATM   20  C   UNL     1      42.372  -6.958  12.369  1.00  0.00     0.025 C 
ENDBRANCH  11  15
ENDBRANCH   8   9
ENDBRANCH   3   8
BRANCH   6  21
HETATM   21  C   UNL     1      43.084 -14.733   4.716  1.00  0.00     0.098 A 
HETATM   22  N   UNL     1      43.094 -14.664   3.418  1.00  0.00    -0.169 NA
HETATM   23  N   UNL     1      43.220 -15.811   2.682  1.00  0.00    -0.238 N 
HETATM   24  C   UNL     1      43.238 -15.658   1.242  1.00  0.00     0.183 C 
HETATM   25  C   UNL     1      43.261 -17.091   3.221  1.00  0.00     0.274 A 
HETATM   26  O   UNL     1      43.297 -18.120   2.549  1.00  0.00    -0.266 OA
HETATM   27  C   UNL     1      43.297 -17.178   4.691  1.00  0.00     0.046 A 
HETATM   28  C   UNL     1      43.257 -16.012   5.450  1.00  0.00     0.011 A 
HETATM   29  C   UNL     1      43.429 -18.430   5.311  1.00  0.00     0.018 A 
HETATM   30  C   UNL     1      43.420 -16.101   6.840  1.00  0.00     0.015 A 
HETATM   31  C   UNL     1      43.552 -17.347   7.460  1.00  0.00     0.001 A 
HETATM   32  C   UNL     1      43.544 -18.513   6.698  1.00  0.00     0.001 A 
ENDBRANCH   6  21
TORSDOF 4
ENDMDL
MODEL 10
REMARK VINA RESULT:      -8.5      6.902     10.793
REMARK  4 active torsions:
REMARK  status: ('A' for Active; 'I' for Inactive)
REMARK    1  A    between atoms: C_3  and  C_4 
REMARK    2  A    between atoms: C_4  and  N_5 
REMARK       I    between atoms: N_5  and  C_6 
REMARK       I    between atoms: C_6  and  N_7 
REMARK    3  A    between atoms: N_7  and  C_8 
REMARK    4  A    between atoms: C_17  and  C_18 
ROOT
HETATM    1  C   UNL     1      41.322 -11.047  -0.985  1.00  0.00     0.049 C 
HETATM    2  C   UNL     1      40.843 -12.408  -0.559  1.00  0.00    -0.053 A 
HETATM    3  C   UNL     1      40.114 -13.250  -1.426  1.00  0.00    -0.035 A 
HETATM    4  C   UNL     1      39.755 -14.539  -0.988  1.00  0.00     0.010 A 
HETATM    5  C   UNL     1      40.044 -14.964   0.310  1.00  0.00     0.014 A 
HETATM    6  C   UNL     1      40.668 -14.089   1.201  1.00  0.00    -0.004 A 
HETATM    7  C   UNL     1      41.096 -12.832   0.756  1.00  0.00     0.021 A 
ENDROOT
BRANCH   3   8
HETATM    8  C   UNL     1      39.708 -12.823  -2.817  1.00  0.00     0.163 C 
BRANCH   8   9
HETATM    9  N   UNL     1      38.291 -12.569  -2.911  1.00  0.00    -0.339 N 
HETATM   10  C   UNL     1      37.872 -11.291  -3.172  1.00  0.00     0.316 C 
HETATM   11  N   UNL     1      36.511 -11.207  -3.287  1.00  0.00    -0.339 N 
HETATM   12  O   UNL     1      38.630 -10.335  -3.264  1.00  0.00    -0.247 OA
HETATM   13  H   UNL     1      35.981 -12.065  -3.283  1.00  0.00     0.164 HD
HETATM   14  H   UNL     1      37.713 -13.320  -3.251  1.00  0.00     0.164 HD
BRANCH  11  15
HETATM   15  C   UNL     1      35.852  -9.972  -3.697  1.00  0.00     0.086 C 
HETATM   16  C   UNL     1      34.634 -10.272  -4.582  1.00  0.00     0.025 C 
HETATM   17  C   UNL     1      33.470 -10.866  -3.789  1.00  0.00     0.002 C 
HETATM   18  C   UNL     1      33.089  -9.983  -2.606  1.00  0.00     0.000 C 
HETATM   19  C   UNL     1      34.285  -9.704  -1.700  1.00  0.00     0.002 C 
HETATM   20  C   UNL     1      35.464  -9.125  -2.480  1.00  0.00     0.025 C 
ENDBRANCH  11  15
ENDBRANCH   8   9
ENDBRANCH   3   8
BRANCH   6  21
HETATM   21  C   UNL     1      40.939 -14.473   2.615  1.00  0.00     0.098 A 
HETATM   22  N   UNL     1      40.347 -13.766   3.530  1.00  0.00    -0.169 NA
HETATM   23  N   UNL     1      40.577 -14.041   4.851  1.00  0.00    -0.238 N 
HETATM   24  C   UNL     1      39.873 -13.222   5.816  1.00  0.00     0.183 C 
HETATM   25  C   UNL     1      41.480 -14.992   5.310  1.00  0.00     0.274 A 
HETATM   26  O   UNL     1      41.737 -15.179   6.498  1.00  0.00    -0.266 OA
HETATM   27  C   UNL     1      42.122 -15.830   4.283  1.00  0.00     0.046 A 
HETATM   28  C   UNL     1      41.829 -15.617   2.940  1.00  0.00     0.011 A 
HETATM   29  C   UNL     1      42.979 -16.872   4.671  1.00  0.00     0.018 A 
HETATM   30  C   UNL     1      42.347 -16.502   1.982  1.00  0.00     0.015 A 
HETATM   31  C   UNL     1      43.200 -17.541   2.367  1.00  0.00     0.001 A 
HETATM   32  C   UNL     1      43.526 -17.720   3.709  1.00  0.00     0.001 A 
ENDBRANCH   6  21
TORSDOF 4
ENDMDL
