MODEL 1
REMARK VINA RESULT:      -8.3      0.000      0.000
REMARK  5 active torsions:
REMARK  status: ('A' for Active; 'I' for Inactive)
REMARK    1  A    between atoms: O_2  and  C_3 
REMARK    2  A    between atoms: C_6  and  C_7 
REMARK       I    between atoms: C_7  and  N_8 
REMARK    3  A    between atoms: N_8  and  C_9 
REMARK    4  A    between atoms: C_9  and  C_10 
REMARK       I    between atoms: C_10  and  N_11 
REMARK    5  A    between atoms: N_11  and  N_12 
ROOT
HETATM    1  C   UNL     1      41.143 -12.264   4.191  1.00  0.00     0.255 C 
HETATM    2  N   UNL     1      41.253 -12.387   5.564  1.00  0.00    -0.245 N 
HETATM    3  O   UNL     1      41.369 -11.232   3.559  1.00  0.00    -0.270 OA
HETATM    4  H   UNL     1      41.134 -13.305   6.000  1.00  0.00     0.192 HD
ENDROOT
BRANCH   1   5
HETATM    5  C   UNL     1      40.785 -13.560   3.464  1.00  0.00     0.227 C 
BRANCH   5   6
HETATM    6  N   UNL     1      41.544 -14.752   3.822  1.00  0.00    -0.348 N 
HETATM    7  C   UNL     1      42.630 -15.155   3.075  1.00  0.00     0.252 C 
HETATM    8  O   UNL     1      43.168 -14.412   2.261  1.00  0.00    -0.268 OA
HETATM    9  H   UNL     1      41.199 -15.314   4.585  1.00  0.00     0.163 HD
BRANCH   7  10
HETATM   10  C   UNL     1      43.132 -16.549   3.271  1.00  0.00     0.032 A 
HETATM   11  C   UNL     1      43.711 -16.989   4.467  1.00  0.00     0.020 A 
HETATM   12  C   UNL     1      44.072 -18.333   4.618  1.00  0.00     0.038 A 
HETATM   13  C   UNL     1      43.840 -19.255   3.596  1.00  0.00     0.068 A 
HETATM   14  C   UNL     1      43.282 -18.818   2.396  1.00  0.00     0.038 A 
HETATM   15  C   UNL     1      42.928 -17.473   2.237  1.00  0.00     0.020 A 
BRANCH  13  16
HETATM   16  O   UNL     1      44.202 -20.541   3.887  1.00  0.00    -0.356 OA
HETATM   17  C   UNL     1      44.083 -20.933   5.251  1.00  0.00     0.210 C 
ENDBRANCH  13  16
ENDBRANCH   7  10
ENDBRANCH   5   6
ENDBRANCH   1   5
BRANCH   2  18
HETATM   18  N   UNL     1      41.661 -11.322   6.310  1.00  0.00    -0.166 NA
HETATM   19  C   UNL     1      42.902 -11.293   6.668  1.00  0.00     0.157 A 
HETATM   20  C   UNL     1      44.001 -12.329   6.418  1.00  0.00     0.277 A 
HETATM   21  C   UNL     1      43.529 -10.220   7.432  1.00  0.00     0.028 A 
HETATM   22  O   UNL     1      43.853 -13.375   5.822  1.00  0.00    -0.266 OA
HETATM   23  N   UNL     1      45.133 -11.818   7.020  1.00  0.00    -0.321 N 
HETATM   24  C   UNL     1      44.861 -10.587   7.613  1.00  0.00     0.048 A 
HETATM   25  H   UNL     1      46.023 -12.293   7.018  1.00  0.00     0.169 HD
HETATM   26  C   UNL     1      45.737  -9.775   8.302  1.00  0.00     0.032 A 
HETATM   27  C   UNL     1      45.233  -8.570   8.808  1.00  0.00     0.021 A 
HETATM   28  C   UNL     1      43.882  -8.210   8.613  1.00  0.00     0.012 A 
HETATM   29 BR   UNL     1      43.252  -6.569   9.310  1.00  0.00    -0.051 Br
HETATM   30  C   UNL     1      43.004  -9.040   7.916  1.00  0.00     0.035 A 
ENDBRANCH   2  18
TORSDOF 5
ENDMDL
MODEL 2
REMARK VINA RESULT:      -8.3      1.564      1.668
REMARK  5 active torsions:
REMARK  status: ('A' for Active; 'I' for Inactive)
REMARK    1  A    between atoms: O_2  and  C_3 
REMARK    2  A    between atoms: C_6  and  C_7 
REMARK       I    between atoms: C_7  and  N_8 
REMARK    3  A    between atoms: N_8  and  C_9 
REMARK    4  A    between atoms: C_9  and  C_10 
REMARK       I    between atoms: C_10  and  N_11 
REMARK    5  A    between atoms: N_11  and  N_12 
ROOT
HETATM    1  C   UNL     1      42.290 -12.253   4.679  1.00  0.00     0.255 C 
HETATM    2  N   UNL     1      43.119 -11.284   5.213  1.00  0.00    -0.245 N 
HETATM    3  O   UNL     1      41.283 -12.698   5.231  1.00  0.00    -0.270 OA
HETATM    4  H   UNL     1      43.884 -10.906   4.648  1.00  0.00     0.192 HD
ENDROOT
BRANCH   1   5
HETATM    5  C   UNL     1      42.666 -12.703   3.267  1.00  0.00     0.227 C 
BRANCH   5   6
HETATM    6  N   UNL     1      43.204 -14.050   3.123  1.00  0.00    -0.348 N 
HETATM    7  C   UNL     1      42.370 -15.139   2.978  1.00  0.00     0.252 C 
HETATM    8  O   UNL     1      41.183 -15.011   2.696  1.00  0.00    -0.268 OA
HETATM    9  H   UNL     1      44.202 -14.168   3.214  1.00  0.00     0.163 HD
BRANCH   7  10
HETATM   10  C   UNL     1      42.952 -16.497   3.196  1.00  0.00     0.032 A 
HETATM   11  C   UNL     1      43.541 -16.889   4.404  1.00  0.00     0.020 A 
HETATM   12  C   UNL     1      43.980 -18.206   4.575  1.00  0.00     0.038 A 
HETATM   13  C   UNL     1      43.818 -19.152   3.560  1.00  0.00     0.068 A 
HETATM   14  C   UNL     1      43.251 -18.762   2.348  1.00  0.00     0.038 A 
HETATM   15  C   UNL     1      42.819 -17.443   2.170  1.00  0.00     0.020 A 
BRANCH  13  16
HETATM   16  O   UNL     1      44.253 -20.410   3.870  1.00  0.00    -0.356 OA
HETATM   17  C   UNL     1      44.271 -20.745   5.254  1.00  0.00     0.210 C 
ENDBRANCH  13  16
ENDBRANCH   7  10
ENDBRANCH   5   6
ENDBRANCH   1   5
BRANCH   2  18
HETATM   18  N   UNL     1      42.828 -10.736   6.427  1.00  0.00    -0.166 NA
HETATM   19  C   UNL     1      43.799 -10.622   7.270  1.00  0.00     0.157 A 
HETATM   20  C   UNL     1      45.256 -11.071   7.128  1.00  0.00     0.277 A 
HETATM   21  C   UNL     1      43.691 -10.027   8.598  1.00  0.00     0.028 A 
HETATM   22  O   UNL     1      45.724 -11.626   6.156  1.00  0.00    -0.266 OA
HETATM   23  N   UNL     1      45.865 -10.726   8.317  1.00  0.00    -0.321 N 
HETATM   24  C   UNL     1      44.955 -10.117   9.178  1.00  0.00     0.048 A 
HETATM   25  H   UNL     1      46.839 -10.904   8.512  1.00  0.00     0.169 HD
HETATM   26  C   UNL     1      45.192  -9.635  10.447  1.00  0.00     0.032 A 
HETATM   27  C   UNL     1      44.114  -9.052  11.125  1.00  0.00     0.021 A 
HETATM   28  C   UNL     1      42.840  -8.966  10.524  1.00  0.00     0.012 A 
HETATM   29 BR   UNL     1      41.419  -8.163  11.478  1.00  0.00    -0.051 Br
HETATM   30  C   UNL     1      42.611  -9.458   9.239  1.00  0.00     0.035 A 
ENDBRANCH   2  18
TORSDOF 5
ENDMDL
MODEL 3
REMARK VINA RESULT:      -8.3      4.315      9.579
REMARK  5 active torsions:
REMARK  status: ('A' for Active; 'I' for Inactive)
REMARK    1  A    between atoms: O_2  and  C_3 
REMARK    2  A    between atoms: C_6  and  C_7 
REMARK       I    between atoms: C_7  and  N_8 
REMARK    3  A    between atoms: N_8  and  C_9 
REMARK    4  A    between atoms: C_9  and  C_10 
REMARK       I    between atoms: C_10  and  N_11 
REMARK    5  A    between atoms: N_11  and  N_12 
ROOT
HETATM    1  C   UNL     1      43.603 -11.968   6.952  1.00  0.00     0.255 C 
HETATM    2  N   UNL     1      42.603 -12.741   6.393  1.00  0.00    -0.245 N 
HETATM    3  O   UNL     1      44.729 -12.376   7.237  1.00  0.00    -0.270 OA
HETATM    4  H   UNL     1      41.726 -12.301   6.103  1.00  0.00     0.192 HD
ENDROOT
BRANCH   1   5
HETATM    5  C   UNL     1      43.242 -10.493   7.129  1.00  0.00     0.227 C 
BRANCH   5   6
HETATM    6  N   UNL     1      42.829 -10.068   8.462  1.00  0.00    -0.348 N 
HETATM    7  C   UNL     1      43.653  -9.289   9.247  1.00  0.00     0.252 C 
HETATM    8  O   UNL     1      44.624  -8.702   8.782  1.00  0.00    -0.268 OA
HETATM    9  H   UNL     1      41.958 -10.429   8.819  1.00  0.00     0.163 HD
BRANCH   7  10
HETATM   10  C   UNL     1      43.339  -9.193  10.704  1.00  0.00     0.032 A 
HETATM   11  C   UNL     1      43.214  -7.972  11.377  1.00  0.00     0.020 A 
HETATM   12  C   UNL     1      42.823  -7.949  12.721  1.00  0.00     0.038 A 
HETATM   13  C   UNL     1      42.529  -9.132  13.401  1.00  0.00     0.068 A 
HETATM   14  C   UNL     1      42.671 -10.352  12.741  1.00  0.00     0.038 A 
HETATM   15  C   UNL     1      43.071 -10.380  11.400  1.00  0.00     0.020 A 
BRANCH  13  16
HETATM   16  O   UNL     1      42.121  -8.967  14.695  1.00  0.00    -0.356 OA
HETATM   17  C   UNL     1      41.082  -8.017  14.909  1.00  0.00     0.210 C 
ENDBRANCH  13  16
ENDBRANCH   7  10
ENDBRANCH   5   6
ENDBRANCH   1   5
BRANCH   2  18
HETATM   18  N   UNL     1      42.842 -14.051   6.098  1.00  0.00    -0.166 NA
HETATM   19  C   UNL     1      42.866 -14.379   4.849  1.00  0.00     0.157 A 
HETATM   20  C   UNL     1      42.606 -13.506   3.618  1.00  0.00     0.277 A 
HETATM   21  C   UNL     1      43.144 -15.717   4.339  1.00  0.00     0.028 A 
HETATM   22  O   UNL     1      42.325 -12.326   3.645  1.00  0.00    -0.266 OA
HETATM   23  N   UNL     1      42.743 -14.348   2.534  1.00  0.00    -0.321 N 
HETATM   24  C   UNL     1      43.057 -15.640   2.950  1.00  0.00     0.048 A 
HETATM   25  H   UNL     1      42.625 -14.045   1.579  1.00  0.00     0.169 HD
HETATM   26  C   UNL     1      43.273 -16.748   2.160  1.00  0.00     0.032 A 
HETATM   27  C   UNL     1      43.584 -17.950   2.809  1.00  0.00     0.021 A 
HETATM   28  C   UNL     1      43.672 -18.012   4.217  1.00  0.00     0.012 A 
HETATM   29 BR   UNL     1      44.102 -19.657   5.045  1.00  0.00    -0.051 Br
HETATM   30  C   UNL     1      43.450 -16.885   5.007  1.00  0.00     0.035 A 
ENDBRANCH   2  18
TORSDOF 5
ENDMDL
MODEL 4
REMARK VINA RESULT:      -8.1      4.528      9.822
REMARK  5 active torsions:
REMARK  status: ('A' for Active; 'I' for Inactive)
REMARK    1  A    between atoms: O_2  and  C_3 
REMARK    2  A    between atoms: C_6  and  C_7 
REMARK       I    between atoms: C_7  and  N_8 
REMARK    3  A    between atoms: N_8  and  C_9 
REMARK    4  A    between atoms: C_9  and  C_10 
REMARK       I    between atoms: C_10  and  N_11 
REMARK    5  A    between atoms: N_11  and  N_12 
ROOT
HETATM    1  C   UNL     1      44.012 -11.841   7.171  1.00  0.00     0.255 C 
HETATM    2  N   UNL     1      42.944 -12.701   7.002  1.00  0.00    -0.245 N 
HETATM    3  O   UNL     1      45.174 -12.094   6.851  1.00  0.00    -0.270 OA
HETATM    4  H   UNL     1      41.996 -12.378   7.213  1.00  0.00     0.192 HD
ENDROOT
BRANCH   1   5
HETATM    5  C   UNL     1      43.640 -10.468   7.730  1.00  0.00     0.227 C 
BRANCH   5   6
HETATM    6  N   UNL     1      43.283 -10.401   9.142  1.00  0.00    -0.348 N 
HETATM    7  C   UNL     1      42.454  -9.409   9.620  1.00  0.00     0.252 C 
HETATM    8  O   UNL     1      41.774  -8.717   8.870  1.00  0.00    -0.268 OA
HETATM    9  H   UNL     1      43.728 -11.055   9.768  1.00  0.00     0.163 HD
BRANCH   7  10
HETATM   10  C   UNL     1      42.419  -9.182  11.096  1.00  0.00     0.032 A 
HETATM   11  C   UNL     1      43.324  -8.346  11.760  1.00  0.00     0.020 A 
HETATM   12  C   UNL     1      43.177  -8.101  13.130  1.00  0.00     0.038 A 
HETATM   13  C   UNL     1      42.117  -8.661  13.847  1.00  0.00     0.068 A 
HETATM   14  C   UNL     1      41.224  -9.509  13.195  1.00  0.00     0.038 A 
HETATM   15  C   UNL     1      41.374  -9.765  11.827  1.00  0.00     0.020 A 
BRANCH  13  16
HETATM   16  O   UNL     1      42.065  -8.309  15.167  1.00  0.00    -0.356 OA
HETATM   17  C   UNL     1      42.446  -6.972  15.476  1.00  0.00     0.210 C 
ENDBRANCH  13  16
ENDBRANCH   7  10
ENDBRANCH   5   6
ENDBRANCH   1   5
BRANCH   2  18
HETATM   18  N   UNL     1      43.138 -13.920   6.423  1.00  0.00    -0.166 NA
HETATM   19  C   UNL     1      42.584 -14.122   5.274  1.00  0.00     0.157 A 
HETATM   20  C   UNL     1      41.672 -13.193   4.467  1.00  0.00     0.277 A 
HETATM   21  C   UNL     1      42.711 -15.342   4.485  1.00  0.00     0.028 A 
HETATM   22  O   UNL     1      41.324 -12.083   4.813  1.00  0.00    -0.266 OA
HETATM   23  N   UNL     1      41.348 -13.896   3.325  1.00  0.00    -0.321 N 
HETATM   24  C   UNL     1      41.952 -15.151   3.332  1.00  0.00     0.048 A 
HETATM   25  H   UNL     1      40.751 -13.528   2.600  1.00  0.00     0.169 HD
HETATM   26  C   UNL     1      41.865 -16.130   2.365  1.00  0.00     0.032 A 
HETATM   27  C   UNL     1      42.571 -17.319   2.590  1.00  0.00     0.021 A 
HETATM   28  C   UNL     1      43.338 -17.497   3.761  1.00  0.00     0.012 A 
HETATM   29 BR   UNL     1      44.278 -19.119   4.014  1.00  0.00    -0.051 Br
HETATM   30  C   UNL     1      43.418 -16.501   4.734  1.00  0.00     0.035 A 
ENDBRANCH   2  18
TORSDOF 5
ENDMDL
MODEL 5
REMARK VINA RESULT:      -8.0      6.173      9.761
REMARK  5 active torsions:
REMARK  status: ('A' for Active; 'I' for Inactive)
REMARK    1  A    between atoms: O_2  and  C_3 
REMARK    2  A    between atoms: C_6  and  C_7 
REMARK       I    between atoms: C_7  and  N_8 
REMARK    3  A    between atoms: N_8  and  C_9 
REMARK    4  A    between atoms: C_9  and  C_10 
REMARK       I    between atoms: C_10  and  N_11 
REMARK    5  A    between atoms: N_11  and  N_12 
ROOT
HETATM    1  C   UNL     1      40.643 -13.425   0.003  1.00  0.00     0.255 C 
HETATM    2  N   UNL     1      41.595 -13.637   0.981  1.00  0.00    -0.245 N 
HETATM    3  O   UNL     1      40.158 -14.306  -0.708  1.00  0.00    -0.270 OA
HETATM    4  H   UNL     1      41.879 -12.864   1.588  1.00  0.00     0.192 HD
ENDROOT
BRANCH   1   5
HETATM    5  C   UNL     1      40.146 -11.983  -0.097  1.00  0.00     0.227 C 
BRANCH   5   6
HETATM    6  N   UNL     1      40.793 -11.126  -1.083  1.00  0.00    -0.348 N 
HETATM    7  C   UNL     1      41.615 -10.089  -0.695  1.00  0.00     0.252 C 
HETATM    8  O   UNL     1      42.052 -10.003   0.448  1.00  0.00    -0.268 OA
HETATM    9  H   UNL     1      40.555 -11.266  -2.054  1.00  0.00     0.163 HD
BRANCH   7  10
HETATM   10  C   UNL     1      41.950  -9.046  -1.711  1.00  0.00     0.032 A 
HETATM   11  C   UNL     1      41.306  -8.957  -2.951  1.00  0.00     0.020 A 
HETATM   12  C   UNL     1      41.599  -7.899  -3.819  1.00  0.00     0.038 A 
HETATM   13  C   UNL     1      42.513  -6.908  -3.455  1.00  0.00     0.068 A 
HETATM   14  C   UNL     1      43.171  -7.002  -2.229  1.00  0.00     0.038 A 
HETATM   15  C   UNL     1      42.888  -8.065  -1.363  1.00  0.00     0.020 A 
BRANCH  13  16
HETATM   16  O   UNL     1      42.678  -5.910  -4.375  1.00  0.00    -0.356 OA
HETATM   17  C   UNL     1      42.990  -6.324  -5.701  1.00  0.00     0.210 C 
ENDBRANCH  13  16
ENDBRANCH   7  10
ENDBRANCH   5   6
ENDBRANCH   1   5
BRANCH   2  18
HETATM   18  N   UNL     1      42.044 -14.901   1.229  1.00  0.00    -0.166 NA
HETATM   19  C   UNL     1      42.493 -15.145   2.415  1.00  0.00     0.157 A 
HETATM   20  C   UNL     1      42.651 -14.190   3.601  1.00  0.00     0.277 A 
HETATM   21  C   UNL     1      42.977 -16.441   2.877  1.00  0.00     0.028 A 
HETATM   22  O   UNL     1      42.364 -13.012   3.592  1.00  0.00    -0.266 OA
HETATM   23  N   UNL     1      43.186 -14.953   4.619  1.00  0.00    -0.321 N 
HETATM   24  C   UNL     1      43.378 -16.267   4.201  1.00  0.00     0.048 A 
HETATM   25  H   UNL     1      43.401 -14.583   5.533  1.00  0.00     0.169 HD
HETATM   26  C   UNL     1      43.887 -17.317   4.935  1.00  0.00     0.032 A 
HETATM   27  C   UNL     1      43.982 -18.561   4.298  1.00  0.00     0.021 A 
HETATM   28  C   UNL     1      43.568 -18.722   2.958  1.00  0.00     0.012 A 
HETATM   29 BR   UNL     1      43.710 -20.424   2.145  1.00  0.00    -0.051 Br
HETATM   30  C   UNL     1      43.056 -17.653   2.223  1.00  0.00     0.035 A 
ENDBRANCH   2  18
TORSDOF 5
ENDMDL
MODEL 6
REMARK VINA RESULT:      -7.5      4.671      6.683
REMARK  5 active torsions:
REMARK  status: ('A' for Active; 'I' for Inactive)
REMARK    1  A    between atoms: O_2  and  C_3 
REMARK    2  A    between atoms: C_6  and  C_7 
REMARK       I    between atoms: C_7  and  N_8 
REMARK    3  A    between atoms: N_8  and  C_9 
REMARK    4  A    between atoms: C_9  and  C_10 
REMARK       I    between atoms: C_10  and  N_11 
REMARK    5  A    between atoms: N_11  and  N_12 
ROOT
HETATM    1  C   UNL     1      39.730 -12.006   3.270  1.00  0.00     0.255 C 
HETATM    2  N   UNL     1      40.922 -11.806   2.599  1.00  0.00    -0.245 N 
HETATM    3  O   UNL     1      38.663 -11.465   2.982  1.00  0.00    -0.270 OA
HETATM    4  H   UNL     1      41.742 -12.365   2.847  1.00  0.00     0.192 HD
ENDROOT
BRANCH   1   5
HETATM    5  C   UNL     1      39.799 -13.045   4.390  1.00  0.00     0.227 C 
BRANCH   5   6
HETATM    6  N   UNL     1      40.392 -14.335   4.061  1.00  0.00    -0.348 N 
HETATM    7  C   UNL     1      41.431 -14.851   4.806  1.00  0.00     0.252 C 
HETATM    8  O   UNL     1      41.720 -14.403   5.911  1.00  0.00    -0.268 OA
HETATM    9  H   UNL     1      40.072 -14.798   3.224  1.00  0.00     0.163 HD
BRANCH   7  10
HETATM   10  C   UNL     1      42.220 -15.976   4.218  1.00  0.00     0.032 A 
HETATM   11  C   UNL     1      43.318 -16.556   4.864  1.00  0.00     0.020 A 
HETATM   12  C   UNL     1      43.954 -17.669   4.303  1.00  0.00     0.038 A 
HETATM   13  C   UNL     1      43.492 -18.231   3.110  1.00  0.00     0.068 A 
HETATM   14  C   UNL     1      42.412 -17.645   2.453  1.00  0.00     0.038 A 
HETATM   15  C   UNL     1      41.779 -16.525   3.006  1.00  0.00     0.020 A 
BRANCH  13  16
HETATM   16  O   UNL     1      44.177 -19.338   2.693  1.00  0.00    -0.356 OA
HETATM   17  C   UNL     1      43.430 -20.292   1.945  1.00  0.00     0.210 C 
ENDBRANCH  13  16
ENDBRANCH   7  10
ENDBRANCH   5   6
ENDBRANCH   1   5
BRANCH   2  18
HETATM   18  N   UNL     1      40.961 -10.974   1.519  1.00  0.00    -0.166 NA
HETATM   19  C   UNL     1      40.934 -11.524   0.350  1.00  0.00     0.157 A 
HETATM   20  C   UNL     1      40.917 -13.011  -0.016  1.00  0.00     0.277 A 
HETATM   21  C   UNL     1      40.928 -10.800  -0.916  1.00  0.00     0.028 A 
HETATM   22  O   UNL     1      40.931 -13.926   0.781  1.00  0.00    -0.266 OA
HETATM   23  N   UNL     1      40.903 -13.051  -1.395  1.00  0.00    -0.321 N 
HETATM   24  C   UNL     1      40.910 -11.762  -1.924  1.00  0.00     0.048 A 
HETATM   25  H   UNL     1      40.892 -13.910  -1.923  1.00  0.00     0.169 HD
HETATM   26  C   UNL     1      40.897 -11.401  -3.254  1.00  0.00     0.032 A 
HETATM   27  C   UNL     1      40.901 -10.031  -3.548  1.00  0.00     0.021 A 
HETATM   28  C   UNL     1      40.916  -9.068  -2.516  1.00  0.00     0.012 A 
HETATM   29 BR   UNL     1      40.914  -7.231  -2.965  1.00  0.00    -0.051 Br
HETATM   30  C   UNL     1      40.931  -9.445  -1.173  1.00  0.00     0.035 A 
ENDBRANCH   2  18
TORSDOF 5
ENDMDL
MODEL 7
REMARK VINA RESULT:      -7.4      4.501      8.475
REMARK  5 active torsions:
REMARK  status: ('A' for Active; 'I' for Inactive)
REMARK    1  A    between atoms: O_2  and  C_3 
REMARK    2  A    between atoms: C_6  and  C_7 
REMARK       I    between atoms: C_7  and  N_8 
REMARK    3  A    between atoms: N_8  and  C_9 
REMARK    4  A    between atoms: C_9  and  C_10 
REMARK       I    between atoms: C_10  and  N_11 
REMARK    5  A    between atoms: N_11  and  N_12 
ROOT
HETATM    1  C   UNL     1      40.584 -13.551   0.222  1.00  0.00     0.255 C 
HETATM    2  N   UNL     1      41.704 -13.740   1.010  1.00  0.00    -0.245 N 
HETATM    3  O   UNL     1      39.939 -14.455  -0.311  1.00  0.00    -0.270 OA
HETATM    4  H   UNL     1      42.126 -12.940   1.489  1.00  0.00     0.192 HD
ENDROOT
BRANCH   1   5
HETATM    5  C   UNL     1      40.124 -12.097   0.111  1.00  0.00     0.227 C 
BRANCH   5   6
HETATM    6  N   UNL     1      39.642 -11.460   1.331  1.00  0.00    -0.348 N 
HETATM    7  C   UNL     1      40.447 -10.604   2.052  1.00  0.00     0.252 C 
HETATM    8  O   UNL     1      41.476 -10.131   1.580  1.00  0.00    -0.268 OA
HETATM    9  H   UNL     1      38.732 -11.729   1.672  1.00  0.00     0.163 HD
BRANCH   7  10
HETATM   10  C   UNL     1      40.039 -10.275   3.451  1.00  0.00     0.032 A 
HETATM   11  C   UNL     1      40.960 -10.022   4.474  1.00  0.00     0.020 A 
HETATM   12  C   UNL     1      40.511  -9.626   5.739  1.00  0.00     0.038 A 
HETATM   13  C   UNL     1      39.149  -9.453   5.993  1.00  0.00     0.068 A 
HETATM   14  C   UNL     1      38.226  -9.723   4.984  1.00  0.00     0.038 A 
HETATM   15  C   UNL     1      38.671 -10.129   3.720  1.00  0.00     0.020 A 
BRANCH  13  16
HETATM   16  O   UNL     1      38.848  -9.025   7.256  1.00  0.00    -0.356 OA
HETATM   17  C   UNL     1      39.638  -7.952   7.759  1.00  0.00     0.210 C 
ENDBRANCH  13  16
ENDBRANCH   7  10
ENDBRANCH   5   6
ENDBRANCH   1   5
BRANCH   2  18
HETATM   18  N   UNL     1      42.151 -15.003   1.261  1.00  0.00    -0.166 NA
HETATM   19  C   UNL     1      42.584 -15.249   2.453  1.00  0.00     0.157 A 
HETATM   20  C   UNL     1      42.723 -14.297   3.644  1.00  0.00     0.277 A 
HETATM   21  C   UNL     1      43.063 -16.546   2.919  1.00  0.00     0.028 A 
HETATM   22  O   UNL     1      42.434 -13.118   3.633  1.00  0.00    -0.266 OA
HETATM   23  N   UNL     1      43.245 -15.060   4.668  1.00  0.00    -0.321 N 
HETATM   24  C   UNL     1      43.445 -16.373   4.249  1.00  0.00     0.048 A 
HETATM   25  H   UNL     1      43.446 -14.692   5.585  1.00  0.00     0.169 HD
HETATM   26  C   UNL     1      43.946 -17.424   4.988  1.00  0.00     0.032 A 
HETATM   27  C   UNL     1      44.052 -18.666   4.350  1.00  0.00     0.021 A 
HETATM   28  C   UNL     1      43.658 -18.826   3.004  1.00  0.00     0.012 A 
HETATM   29 BR   UNL     1      43.814 -20.526   2.189  1.00  0.00    -0.051 Br
HETATM   30  C   UNL     1      43.154 -17.756   2.264  1.00  0.00     0.035 A 
ENDBRANCH   2  18
TORSDOF 5
ENDMDL
MODEL 8
REMARK VINA RESULT:      -7.4      3.986      6.855
REMARK  5 active torsions:
REMARK  status: ('A' for Active; 'I' for Inactive)
REMARK    1  A    between atoms: O_2  and  C_3 
REMARK    2  A    between atoms: C_6  and  C_7 
REMARK       I    between atoms: C_7  and  N_8 
REMARK    3  A    between atoms: N_8  and  C_9 
REMARK    4  A    between atoms: C_9  and  C_10 
REMARK       I    between atoms: C_10  and  N_11 
REMARK    5  A    between atoms: N_11  and  N_12 
ROOT
HETATM    1  C   UNL     1      41.290 -11.468   4.538  1.00  0.00     0.255 C 
HETATM    2  N   UNL     1      41.083 -12.467   3.606  1.00  0.00    -0.245 N 
HETATM    3  O   UNL     1      41.455 -10.278   4.268  1.00  0.00    -0.270 OA
HETATM    4  H   UNL     1      40.865 -13.416   3.921  1.00  0.00     0.192 HD
ENDROOT
BRANCH   1   5
HETATM    5  C   UNL     1      41.218 -11.933   5.993  1.00  0.00     0.227 C 
BRANCH   5   6
HETATM    6  N   UNL     1      41.431 -13.353   6.246  1.00  0.00    -0.348 N 
HETATM    7  C   UNL     1      42.702 -13.870   6.381  1.00  0.00     0.252 C 
HETATM    8  O   UNL     1      43.677 -13.148   6.566  1.00  0.00    -0.268 OA
HETATM    9  H   UNL     1      40.622 -13.956   6.237  1.00  0.00     0.163 HD
BRANCH   7  10
HETATM   10  C   UNL     1      42.867 -15.351   6.278  1.00  0.00     0.032 A 
HETATM   11  C   UNL     1      42.755 -16.047   5.069  1.00  0.00     0.020 A 
HETATM   12  C   UNL     1      43.017 -17.421   5.024  1.00  0.00     0.038 A 
HETATM   13  C   UNL     1      43.415 -18.111   6.171  1.00  0.00     0.068 A 
HETATM   14  C   UNL     1      43.508 -17.427   7.382  1.00  0.00     0.038 A 
HETATM   15  C   UNL     1      43.238 -16.054   7.432  1.00  0.00     0.020 A 
BRANCH  13  16
HETATM   16  O   UNL     1      43.677 -19.440   5.982  1.00  0.00    -0.356 OA
HETATM   17  C   UNL     1      44.322 -19.784   4.760  1.00  0.00     0.210 C 
ENDBRANCH  13  16
ENDBRANCH   7  10
ENDBRANCH   5   6
ENDBRANCH   1   5
BRANCH   2  18
HETATM   18  N   UNL     1      41.029 -12.157   2.279  1.00  0.00    -0.166 NA
HETATM   19  C   UNL     1      40.576 -13.065   1.479  1.00  0.00     0.157 A 
HETATM   20  C   UNL     1      40.131 -14.494   1.798  1.00  0.00     0.277 A 
HETATM   21  C   UNL     1      40.407 -12.904   0.039  1.00  0.00     0.028 A 
HETATM   22  O   UNL     1      40.143 -15.000   2.900  1.00  0.00    -0.266 OA
HETATM   23  N   UNL     1      39.752 -15.040   0.588  1.00  0.00    -0.321 N 
HETATM   24  C   UNL     1      39.912 -14.115  -0.440  1.00  0.00     0.048 A 
HETATM   25  H   UNL     1      39.411 -15.984   0.490  1.00  0.00     0.169 HD
HETATM   26  C   UNL     1      39.638 -14.292  -1.780  1.00  0.00     0.032 A 
HETATM   27  C   UNL     1      39.874 -13.207  -2.634  1.00  0.00     0.021 A 
HETATM   28  C   UNL     1      40.373 -11.985  -2.132  1.00  0.00     0.012 A 
HETATM   29 BR   UNL     1      40.669 -10.548  -3.325  1.00  0.00    -0.051 Br
HETATM   30  C   UNL     1      40.649 -11.817  -0.775  1.00  0.00     0.035 A 
ENDBRANCH   2  18
TORSDOF 5
ENDMDL
MODEL 9
REMARK VINA RESULT:      -7.3      4.387     10.041
REMARK  5 active torsions:
REMARK  status: ('A' for Active; 'I' for Inactive)
REMARK    1  A    between atoms: O_2  and  C_3 
REMARK    2  A    between atoms: C_6  and  C_7 
REMARK       I    between atoms: C_7  and  N_8 
REMARK    3  A    between atoms: N_8  and  C_9 
REMARK    4  A    between atoms: C_9  and  C_10 
REMARK       I    between atoms: C_10  and  N_11 
REMARK    5  A    between atoms: N_11  and  N_12 
ROOT
HETATM    1  C   UNL     1      44.018 -11.442   7.063  1.00  0.00     0.255 C 
HETATM    2  N   UNL     1      43.761 -11.551   5.709  1.00  0.00    -0.245 N 
HETATM    3  O   UNL     1      44.086 -12.392   7.843  1.00  0.00    -0.270 OA
HETATM    4  H   UNL     1      43.811 -10.719   5.116  1.00  0.00     0.192 HD
ENDROOT
BRANCH   1   5
HETATM    5  C   UNL     1      44.304 -10.019   7.542  1.00  0.00     0.227 C 
BRANCH   5   6
HETATM    6  N   UNL     1      43.594  -9.566   8.732  1.00  0.00    -0.348 N 
HETATM    7  C   UNL     1      43.704  -8.264   9.173  1.00  0.00     0.252 C 
HETATM    8  O   UNL     1      44.164  -7.377   8.463  1.00  0.00    -0.268 OA
HETATM    9  H   UNL     1      43.088 -10.256   9.266  1.00  0.00     0.163 HD
BRANCH   7  10
HETATM   10  C   UNL     1      43.258  -7.961  10.567  1.00  0.00     0.032 A 
HETATM   11  C   UNL     1      43.634  -8.732  11.672  1.00  0.00     0.020 A 
HETATM   12  C   UNL     1      43.262  -8.338  12.962  1.00  0.00     0.038 A 
HETATM   13  C   UNL     1      42.534  -7.164  13.169  1.00  0.00     0.068 A 
HETATM   14  C   UNL     1      42.140  -6.403  12.070  1.00  0.00     0.038 A 
HETATM   15  C   UNL     1      42.502  -6.799  10.778  1.00  0.00     0.020 A 
BRANCH  13  16
HETATM   16  O   UNL     1      42.270  -6.873  14.479  1.00  0.00    -0.356 OA
HETATM   17  C   UNL     1      40.901  -6.669  14.812  1.00  0.00     0.210 C 
ENDBRANCH  13  16
ENDBRANCH   7  10
ENDBRANCH   5   6
ENDBRANCH   1   5
BRANCH   2  18
HETATM   18  N   UNL     1      43.585 -12.782   5.148  1.00  0.00    -0.166 NA
HETATM   19  C   UNL     1      42.462 -13.003   4.550  1.00  0.00     0.157 A 
HETATM   20  C   UNL     1      41.243 -12.085   4.419  1.00  0.00     0.277 A 
HETATM   21  C   UNL     1      42.108 -14.238   3.861  1.00  0.00     0.028 A 
HETATM   22  O   UNL     1      41.158 -10.967   4.883  1.00  0.00    -0.266 OA
HETATM   23  N   UNL     1      40.313 -12.808   3.701  1.00  0.00    -0.321 N 
HETATM   24  C   UNL     1      40.814 -14.065   3.373  1.00  0.00     0.048 A 
HETATM   25  H   UNL     1      39.401 -12.450   3.460  1.00  0.00     0.169 HD
HETATM   26  C   UNL     1      40.182 -15.062   2.661  1.00  0.00     0.032 A 
HETATM   27  C   UNL     1      40.892 -16.250   2.449  1.00  0.00     0.021 A 
HETATM   28  C   UNL     1      42.203 -16.410   2.946  1.00  0.00     0.012 A 
HETATM   29 BR   UNL     1      43.123 -18.031   2.626  1.00  0.00    -0.051 Br
HETATM   30  C   UNL     1      42.834 -15.395   3.667  1.00  0.00     0.035 A 
ENDBRANCH   2  18
TORSDOF 5
ENDMDL
MODEL 10
REMARK VINA RESULT:      -7.3      4.228      9.367
REMARK  5 active torsions:
REMARK  status: ('A' for Active; 'I' for Inactive)
REMARK    1  A    between atoms: O_2  and  C_3 
REMARK    2  A    between atoms: C_6  and  C_7 
REMARK       I    between atoms: C_7  and  N_8 
REMARK    3  A    between atoms: N_8  and  C_9 
REMARK    4  A    between atoms: C_9  and  C_10 
REMARK       I    between atoms: C_10  and  N_11 
REMARK    5  A    between atoms: N_11  and  N_12 
ROOT
HETATM    1  C   UNL     1      42.759 -12.432   4.519  1.00  0.00     0.255 C 
HETATM    2  N   UNL     1      41.758 -13.063   3.804  1.00  0.00    -0.245 N 
HETATM    3  O   UNL     1      43.556 -11.622   4.045  1.00  0.00    -0.270 OA
HETATM    4  H   UNL     1      41.082 -13.654   4.294  1.00  0.00     0.192 HD
ENDROOT
BRANCH   1   5
HETATM    5  C   UNL     1      42.770 -12.752   6.013  1.00  0.00     0.227 C 
BRANCH   5   6
HETATM    6  N   UNL     1      42.784 -11.621   6.933  1.00  0.00    -0.348 N 
HETATM    7  C   UNL     1      43.948 -11.228   7.560  1.00  0.00     0.252 C 
HETATM    8  O   UNL     1      45.048 -11.618   7.184  1.00  0.00    -0.268 OA
HETATM    9  H   UNL     1      41.901 -11.187   7.156  1.00  0.00     0.163 HD
BRANCH   7  10
HETATM   10  C   UNL     1      43.831 -10.317   8.738  1.00  0.00     0.032 A 
HETATM   11  C   UNL     1      42.686  -9.557   9.003  1.00  0.00     0.020 A 
HETATM   12  C   UNL     1      42.605  -8.798  10.176  1.00  0.00     0.038 A 
HETATM   13  C   UNL     1      43.646  -8.805  11.107  1.00  0.00     0.068 A 
HETATM   14  C   UNL     1      44.796  -9.545  10.839  1.00  0.00     0.038 A 
HETATM   15  C   UNL     1      44.886 -10.298   9.662  1.00  0.00     0.020 A 
BRANCH  13  16
HETATM   16  O   UNL     1      43.422  -8.054  12.227  1.00  0.00    -0.356 OA
HETATM   17  C   UNL     1      42.644  -8.667  13.249  1.00  0.00     0.210 C 
ENDBRANCH  13  16
ENDBRANCH   7  10
ENDBRANCH   5   6
ENDBRANCH   1   5
BRANCH   2  18
HETATM   18  N   UNL     1      41.588 -12.781   2.480  1.00  0.00    -0.166 NA
HETATM   19  C   UNL     1      40.923 -13.636   1.776  1.00  0.00     0.157 A 
HETATM   20  C   UNL     1      40.326 -14.980   2.204  1.00  0.00     0.277 A 
HETATM   21  C   UNL     1      40.607 -13.490   0.360  1.00  0.00     0.028 A 
HETATM   22  O   UNL     1      40.400 -15.454   3.318  1.00  0.00    -0.266 OA
HETATM   23  N   UNL     1      39.734 -15.497   1.070  1.00  0.00    -0.321 N 
HETATM   24  C   UNL     1      39.896 -14.631  -0.008  1.00  0.00     0.048 A 
HETATM   25  H   UNL     1      39.257 -16.386   1.051  1.00  0.00     0.169 HD
HETATM   26  C   UNL     1      39.442 -14.801  -1.299  1.00  0.00     0.032 A 
HETATM   27  C   UNL     1      39.722 -13.783  -2.219  1.00  0.00     0.021 A 
HETATM   28  C   UNL     1      40.441 -12.632  -1.830  1.00  0.00     0.012 A 
HETATM   29 BR   UNL     1      40.787 -11.282  -3.108  1.00  0.00    -0.051 Br
HETATM   30  C   UNL     1      40.897 -12.470  -0.522  1.00  0.00     0.035 A 
ENDBRANCH   2  18
TORSDOF 5
ENDMDL
