MODEL 1
REMARK VINA RESULT:      -9.2      0.000      0.000
REMARK  7 active torsions:
REMARK  status: ('A' for Active; 'I' for Inactive)
REMARK    1  A    between atoms: C_2  and  N_3 
REMARK       I    between atoms: N_3  and  C_4 
REMARK    2  A    between atoms: C_4  and  C_5 
REMARK    3  A    between atoms: C_8  and  C_9 
REMARK       I    between atoms: C_9  and  N_10 
REMARK    4  A    between atoms: N_13  and  C_14 
REMARK    5  A    between atoms: C_15  and  O_16 
REMARK    6  A    between atoms: N_26  and  C_27 
REMARK    7  A    between atoms: C_27  and  C_28 
ROOT
HETATM    1  C   UNL     1      40.461 -14.315   1.268  1.00  0.00     0.098 A 
HETATM    2  C   UNL     1      40.267 -13.088   2.093  1.00  0.00     0.206 A 
HETATM    3  O   UNL     1      39.934 -12.024   1.572  1.00  0.00    -0.286 OA
HETATM    4  C   UNL     1      40.515 -13.191   3.559  1.00  0.00     0.098 A 
HETATM    5  C   UNL     1      40.989 -14.357   4.028  1.00  0.00     0.111 A 
HETATM    6  N   UNL     1      41.279 -15.469   3.247  1.00  0.00    -0.364 N 
HETATM    7  C   UNL     1      40.964 -15.395   1.892  1.00  0.00     0.111 A 
ENDROOT
BRANCH   4   8
HETATM    8  C   UNL     1      40.008 -12.170   4.500  1.00  0.00     0.259 C 
HETATM    9  N   UNL     1      40.768 -11.052   4.781  1.00  0.00    -0.345 N 
HETATM   10  C   UNL     1      40.335 -10.172   5.872  1.00  0.00     0.146 C 
HETATM   11  C   UNL     1      42.120 -10.727   4.297  1.00  0.00     0.146 C 
HETATM   12  C   UNL     1      41.313 -10.275   7.055  1.00  0.00     0.143 C 
HETATM   13  N   UNL     1      42.694  -9.956   6.598  1.00  0.00    -0.376 N 
HETATM   14  C   UNL     1      43.145 -10.784   5.457  1.00  0.00     0.143 C 
HETATM   15  O   UNL     1      38.927 -12.386   5.050  1.00  0.00    -0.267 OA
BRANCH  13  16
HETATM   16  C   UNL     1      43.584  -9.733   7.672  1.00  0.00     0.064 A 
HETATM   17  C   UNL     1      43.718  -8.441   8.250  1.00  0.00     0.094 A 
HETATM   18  C   UNL     1      44.588  -8.230   9.330  1.00  0.00     0.039 A 
HETATM   19  C   UNL     1      45.330  -9.285   9.857  1.00  0.00     0.003 A 
HETATM   20  C   UNL     1      45.222 -10.552   9.299  1.00  0.00     0.002 A 
HETATM   21  C   UNL     1      44.363 -10.770   8.217  1.00  0.00     0.032 A 
BRANCH  17  22
HETATM   22  O   UNL     1      43.006  -7.422   7.655  1.00  0.00    -0.354 OA
HETATM   23  C   UNL     1      42.365  -6.491   8.515  1.00  0.00     0.210 C 
ENDBRANCH  17  22
ENDBRANCH  13  16
ENDBRANCH   4   8
BRANCH   1  24
HETATM   24  C   UNL     1      40.102 -14.433  -0.176  1.00  0.00     0.257 C 
HETATM   25  N   UNL     1      40.536 -13.405  -0.975  1.00  0.00    -0.353 N 
HETATM   26  H   UNL     1      41.084 -12.664  -0.535  1.00  0.00     0.163 HD
HETATM   27  O   UNL     1      39.438 -15.380  -0.590  1.00  0.00    -0.267 OA
BRANCH  25  28
HETATM   28  C   UNL     1      40.184 -13.228  -2.377  1.00  0.00     0.076 C 
HETATM   29  C   UNL     1      41.237 -12.418  -3.130  1.00  0.00     0.032 C 
HETATM   30  C   UNL     1      38.786 -12.644  -2.565  1.00  0.00     0.032 C 
ENDBRANCH  25  28
ENDBRANCH   1  24
BRANCH   6  31
HETATM   31  C   UNL     1      41.833 -16.716   3.822  1.00  0.00     0.132 C 
BRANCH  31  32
HETATM   32  C   UNL     1      43.343 -16.909   3.547  1.00  0.00     0.004 C 
HETATM   33  C   UNL     1      44.130 -17.474   4.741  1.00  0.00     0.006 C 
HETATM   34  C   UNL     1      43.832 -18.945   5.007  1.00  0.00     0.000 C 
HETATM   35  C   UNL     1      44.080 -19.792   3.764  1.00  0.00     0.000 C 
HETATM   36  C   UNL     1      43.296 -19.276   2.562  1.00  0.00     0.000 C 
HETATM   37  C   UNL     1      43.561 -17.793   2.304  1.00  0.00     0.006 C 
ENDBRANCH  31  32
ENDBRANCH   6  31
TORSDOF 7
ENDMDL
MODEL 2
REMARK VINA RESULT:      -8.6      1.962      8.025
REMARK  7 active torsions:
REMARK  status: ('A' for Active; 'I' for Inactive)
REMARK    1  A    between atoms: C_2  and  N_3 
REMARK       I    between atoms: N_3  and  C_4 
REMARK    2  A    between atoms: C_4  and  C_5 
REMARK    3  A    between atoms: C_8  and  C_9 
REMARK       I    between atoms: C_9  and  N_10 
REMARK    4  A    between atoms: N_13  and  C_14 
REMARK    5  A    between atoms: C_15  and  O_16 
REMARK    6  A    between atoms: N_26  and  C_27 
REMARK    7  A    between atoms: C_27  and  C_28 
ROOT
HETATM    1  C   UNL     1      43.162 -12.871   6.561  1.00  0.00     0.098 A 
HETATM    2  C   UNL     1      41.837 -12.321   6.156  1.00  0.00     0.206 A 
HETATM    3  O   UNL     1      41.519 -11.168   6.442  1.00  0.00    -0.286 OA
HETATM    4  C   UNL     1      40.908 -13.224   5.419  1.00  0.00     0.098 A 
HETATM    5  C   UNL     1      41.285 -14.502   5.251  1.00  0.00     0.111 A 
HETATM    6  N   UNL     1      42.471 -15.049   5.726  1.00  0.00    -0.364 N 
HETATM    7  C   UNL     1      43.373 -14.181   6.338  1.00  0.00     0.111 A 
ENDROOT
BRANCH   4   8
HETATM    8  C   UNL     1      39.755 -12.692   4.662  1.00  0.00     0.259 C 
HETATM    9  N   UNL     1      39.460 -13.195   3.410  1.00  0.00    -0.345 N 
HETATM   10  C   UNL     1      38.448 -12.504   2.603  1.00  0.00     0.146 C 
HETATM   11  C   UNL     1      40.199 -14.209   2.641  1.00  0.00     0.146 C 
HETATM   12  C   UNL     1      39.114 -11.812   1.401  1.00  0.00     0.143 C 
HETATM   13  N   UNL     1      39.875 -12.811   0.601  1.00  0.00    -0.376 N 
HETATM   14  C   UNL     1      40.865 -13.572   1.395  1.00  0.00     0.143 C 
HETATM   15  O   UNL     1      39.120 -11.764   5.164  1.00  0.00    -0.267 OA
BRANCH  13  16
HETATM   16  C   UNL     1      40.253 -12.317  -0.667  1.00  0.00     0.064 A 
HETATM   17  C   UNL     1      39.930 -13.032  -1.853  1.00  0.00     0.094 A 
HETATM   18  C   UNL     1      40.289 -12.526  -3.111  1.00  0.00     0.039 A 
HETATM   19  C   UNL     1      40.964 -11.311  -3.219  1.00  0.00     0.003 A 
HETATM   20  C   UNL     1      41.299 -10.604  -2.072  1.00  0.00     0.002 A 
HETATM   21  C   UNL     1      40.952 -11.104  -0.813  1.00  0.00     0.032 A 
BRANCH  17  22
HETATM   22  O   UNL     1      39.313 -14.253  -1.688  1.00  0.00    -0.354 OA
HETATM   23  C   UNL     1      38.798 -14.883  -2.852  1.00  0.00     0.210 C 
ENDBRANCH  17  22
ENDBRANCH  13  16
ENDBRANCH   4   8
BRANCH   1  24
HETATM   24  C   UNL     1      44.271 -12.066   7.155  1.00  0.00     0.257 C 
HETATM   25  N   UNL     1      43.935 -11.339   8.269  1.00  0.00    -0.353 N 
HETATM   26  H   UNL     1      42.979 -11.421   8.617  1.00  0.00     0.163 HD
HETATM   27  O   UNL     1      45.388 -12.049   6.644  1.00  0.00    -0.267 OA
BRANCH  25  28
HETATM   28  C   UNL     1      44.802 -10.371   8.929  1.00  0.00     0.076 C 
HETATM   29  C   UNL     1      44.545 -10.312  10.434  1.00  0.00     0.032 C 
HETATM   30  C   UNL     1      44.732  -8.986   8.293  1.00  0.00     0.032 C 
ENDBRANCH  25  28
ENDBRANCH   1  24
BRANCH   6  31
HETATM   31  C   UNL     1      42.815 -16.477   5.538  1.00  0.00     0.132 C 
BRANCH  31  32
HETATM   32  C   UNL     1      43.960 -16.712   4.525  1.00  0.00     0.004 C 
HETATM   33  C   UNL     1      44.528 -18.140   4.542  1.00  0.00     0.006 C 
HETATM   34  C   UNL     1      43.576 -19.166   3.937  1.00  0.00     0.000 C 
HETATM   35  C   UNL     1      43.171 -18.775   2.520  1.00  0.00     0.000 C 
HETATM   36  C   UNL     1      42.580 -17.370   2.467  1.00  0.00     0.000 C 
HETATM   37  C   UNL     1      43.512 -16.337   3.100  1.00  0.00     0.006 C 
ENDBRANCH  31  32
ENDBRANCH   6  31
TORSDOF 7
ENDMDL
MODEL 3
REMARK VINA RESULT:      -8.3      1.560      5.223
REMARK  7 active torsions:
REMARK  status: ('A' for Active; 'I' for Inactive)
REMARK    1  A    between atoms: C_2  and  N_3 
REMARK       I    between atoms: N_3  and  C_4 
REMARK    2  A    between atoms: C_4  and  C_5 
REMARK    3  A    between atoms: C_8  and  C_9 
REMARK       I    between atoms: C_9  and  N_10 
REMARK    4  A    between atoms: N_13  and  C_14 
REMARK    5  A    between atoms: C_15  and  O_16 
REMARK    6  A    between atoms: N_26  and  C_27 
REMARK    7  A    between atoms: C_27  and  C_28 
ROOT
HETATM    1  C   UNL     1      41.546 -14.864   2.337  1.00  0.00     0.098 A 
HETATM    2  C   UNL     1      41.051 -14.345   3.645  1.00  0.00     0.206 A 
HETATM    3  O   UNL     1      41.480 -14.797   4.705  1.00  0.00    -0.286 OA
HETATM    4  C   UNL     1      40.004 -13.284   3.618  1.00  0.00     0.098 A 
HETATM    5  C   UNL     1      39.507 -12.931   2.422  1.00  0.00     0.111 A 
HETATM    6  N   UNL     1      39.884 -13.492   1.208  1.00  0.00    -0.364 N 
HETATM    7  C   UNL     1      40.922 -14.420   1.231  1.00  0.00     0.111 A 
ENDROOT
BRANCH   4   8
HETATM    8  C   UNL     1      39.718 -12.455   4.808  1.00  0.00     0.259 C 
HETATM    9  N   UNL     1      40.413 -11.280   5.014  1.00  0.00    -0.345 N 
HETATM   10  C   UNL     1      40.257 -10.596   6.303  1.00  0.00     0.146 C 
HETATM   11  C   UNL     1      41.506 -10.717   4.205  1.00  0.00     0.146 C 
HETATM   12  C   UNL     1      41.561 -10.692   7.114  1.00  0.00     0.143 C 
HETATM   13  N   UNL     1      42.691 -10.133   6.321  1.00  0.00    -0.376 N 
HETATM   14  C   UNL     1      42.843 -10.758   4.988  1.00  0.00     0.143 C 
HETATM   15  O   UNL     1      38.890 -12.880   5.615  1.00  0.00    -0.267 OA
BRANCH  13  16
HETATM   16  C   UNL     1      43.845  -9.908   7.103  1.00  0.00     0.064 A 
HETATM   17  C   UNL     1      43.949  -8.760   7.935  1.00  0.00     0.094 A 
HETATM   18  C   UNL     1      45.089  -8.553   8.727  1.00  0.00     0.039 A 
HETATM   19  C   UNL     1      46.135  -9.473   8.713  1.00  0.00     0.003 A 
HETATM   20  C   UNL     1      46.059 -10.594   7.899  1.00  0.00     0.002 A 
HETATM   21  C   UNL     1      44.930 -10.806   7.101  1.00  0.00     0.032 A 
BRANCH  17  22
HETATM   22  O   UNL     1      42.912  -7.854   7.868  1.00  0.00    -0.354 OA
HETATM   23  C   UNL     1      42.916  -6.792   8.811  1.00  0.00     0.210 C 
ENDBRANCH  17  22
ENDBRANCH  13  16
ENDBRANCH   4   8
BRANCH   1  24
HETATM   24  C   UNL     1      42.698 -15.799   2.175  1.00  0.00     0.257 C 
HETATM   25  N   UNL     1      42.554 -17.017   2.790  1.00  0.00    -0.353 N 
HETATM   26  H   UNL     1      41.677 -17.199   3.280  1.00  0.00     0.163 HD
HETATM   27  O   UNL     1      43.705 -15.466   1.556  1.00  0.00    -0.267 OA
BRANCH  25  28
HETATM   28  C   UNL     1      43.597 -18.030   2.895  1.00  0.00     0.076 C 
HETATM   29  C   UNL     1      43.195 -19.333   2.207  1.00  0.00     0.032 C 
HETATM   30  C   UNL     1      44.042 -18.270   4.335  1.00  0.00     0.032 C 
ENDBRANCH  25  28
ENDBRANCH   1  24
BRANCH   6  31
HETATM   31  C   UNL     1      39.272 -13.082  -0.077  1.00  0.00     0.132 C 
BRANCH  31  32
HETATM   32  C   UNL     1      39.421 -11.573  -0.382  1.00  0.00     0.004 C 
HETATM   33  C   UNL     1      40.870 -11.126  -0.636  1.00  0.00     0.006 C 
HETATM   34  C   UNL     1      41.415 -11.609  -1.976  1.00  0.00     0.000 C 
HETATM   35  C   UNL     1      40.518 -11.171  -3.128  1.00  0.00     0.000 C 
HETATM   36  C   UNL     1      39.074 -11.618  -2.923  1.00  0.00     0.000 C 
HETATM   37  C   UNL     1      38.526 -11.168  -1.569  1.00  0.00     0.006 C 
ENDBRANCH  31  32
ENDBRANCH   6  31
TORSDOF 7
ENDMDL
MODEL 4
REMARK VINA RESULT:      -8.3      1.509      1.929
REMARK  7 active torsions:
REMARK  status: ('A' for Active; 'I' for Inactive)
REMARK    1  A    between atoms: C_2  and  N_3 
REMARK       I    between atoms: N_3  and  C_4 
REMARK    2  A    between atoms: C_4  and  C_5 
REMARK    3  A    between atoms: C_8  and  C_9 
REMARK       I    between atoms: C_9  and  N_10 
REMARK    4  A    between atoms: N_13  and  C_14 
REMARK    5  A    between atoms: C_15  and  O_16 
REMARK    6  A    between atoms: N_26  and  C_27 
REMARK    7  A    between atoms: C_27  and  C_28 
ROOT
HETATM    1  C   UNL     1      40.818 -12.769   1.179  1.00  0.00     0.098 A 
HETATM    2  C   UNL     1      40.295 -11.830   2.213  1.00  0.00     0.206 A 
HETATM    3  O   UNL     1      39.637 -10.842   1.893  1.00  0.00    -0.286 OA
HETATM    4  C   UNL     1      40.620 -12.119   3.639  1.00  0.00     0.098 A 
HETATM    5  C   UNL     1      41.440 -13.152   3.893  1.00  0.00     0.111 A 
HETATM    6  N   UNL     1      42.021 -13.962   2.925  1.00  0.00    -0.364 N 
HETATM    7  C   UNL     1      41.646 -13.741   1.602  1.00  0.00     0.111 A 
ENDROOT
BRANCH   4   8
HETATM    8  C   UNL     1      39.866 -11.489   4.744  1.00  0.00     0.259 C 
HETATM    9  N   UNL     1      40.360 -10.355   5.357  1.00  0.00    -0.345 N 
HETATM   10  C   UNL     1      39.701  -9.882   6.580  1.00  0.00     0.146 C 
HETATM   11  C   UNL     1      41.633  -9.662   5.098  1.00  0.00     0.146 C 
HETATM   12  C   UNL     1      40.624 -10.092   7.793  1.00  0.00     0.143 C 
HETATM   13  N   UNL     1      41.926  -9.406   7.561  1.00  0.00    -0.376 N 
HETATM   14  C   UNL     1      42.593  -9.813   6.305  1.00  0.00     0.143 C 
HETATM   15  O   UNL     1      38.832 -12.042   5.119  1.00  0.00    -0.267 OA
BRANCH  13  16
HETATM   16  C   UNL     1      42.699  -9.296   8.739  1.00  0.00     0.064 A 
HETATM   17  C   UNL     1      42.488  -8.226   9.651  1.00  0.00     0.094 A 
HETATM   18  C   UNL     1      43.244  -8.134  10.829  1.00  0.00     0.039 A 
HETATM   19  C   UNL     1      44.211  -9.094  11.126  1.00  0.00     0.003 A 
HETATM   20  C   UNL     1      44.440 -10.140  10.242  1.00  0.00     0.002 A 
HETATM   21  C   UNL     1      43.696 -10.236   9.062  1.00  0.00     0.032 A 
BRANCH  17  22
HETATM   22  O   UNL     1      41.562  -7.275   9.282  1.00  0.00    -0.354 OA
HETATM   23  C   UNL     1      40.427  -7.115  10.121  1.00  0.00     0.210 C 
ENDBRANCH  17  22
ENDBRANCH  13  16
ENDBRANCH   4   8
BRANCH   1  24
HETATM   24  C   UNL     1      40.455 -12.726  -0.268  1.00  0.00     0.257 C 
HETATM   25  N   UNL     1      39.291 -13.371  -0.601  1.00  0.00    -0.353 N 
HETATM   26  H   UNL     1      38.757 -13.803   0.156  1.00  0.00     0.163 HD
HETATM   27  O   UNL     1      41.181 -12.169  -1.089  1.00  0.00    -0.267 OA
BRANCH  25  28
HETATM   28  C   UNL     1      38.812 -13.589  -1.959  1.00  0.00     0.076 C 
HETATM   29  C   UNL     1      37.423 -12.991  -2.175  1.00  0.00     0.032 C 
HETATM   30  C   UNL     1      38.863 -15.057  -2.375  1.00  0.00     0.032 C 
ENDBRANCH  25  28
ENDBRANCH   1  24
BRANCH   6  31
HETATM   31  C   UNL     1      42.946 -15.065   3.268  1.00  0.00     0.132 C 
BRANCH  31  32
HETATM   32  C   UNL     1      42.229 -16.367   3.698  1.00  0.00     0.004 C 
HETATM   33  C   UNL     1      42.301 -17.495   2.655  1.00  0.00     0.006 C 
HETATM   34  C   UNL     1      43.690 -18.115   2.544  1.00  0.00     0.000 C 
HETATM   35  C   UNL     1      44.181 -18.614   3.898  1.00  0.00     0.000 C 
HETATM   36  C   UNL     1      44.147 -17.515   4.954  1.00  0.00     0.000 C 
HETATM   37  C   UNL     1      42.768 -16.863   5.053  1.00  0.00     0.006 C 
ENDBRANCH  31  32
ENDBRANCH   6  31
TORSDOF 7
ENDMDL
MODEL 5
REMARK VINA RESULT:      -8.3      3.502      7.522
REMARK  7 active torsions:
REMARK  status: ('A' for Active; 'I' for Inactive)
REMARK    1  A    between atoms: C_2  and  N_3 
REMARK       I    between atoms: N_3  and  C_4 
REMARK    2  A    between atoms: C_4  and  C_5 
REMARK    3  A    between atoms: C_8  and  C_9 
REMARK       I    between atoms: C_9  and  N_10 
REMARK    4  A    between atoms: N_13  and  C_14 
REMARK    5  A    between atoms: C_15  and  O_16 
REMARK    6  A    between atoms: N_26  and  C_27 
REMARK    7  A    between atoms: C_27  and  C_28 
ROOT
HETATM    1  C   UNL     1      39.766  -9.120   1.979  1.00  0.00     0.098 A 
HETATM    2  C   UNL     1      40.336  -9.938   3.088  1.00  0.00     0.206 A 
HETATM    3  O   UNL     1      41.020  -9.417   3.968  1.00  0.00    -0.286 OA
HETATM    4  C   UNL     1      40.072 -11.405   3.074  1.00  0.00     0.098 A 
HETATM    5  C   UNL     1      39.417 -11.909   2.016  1.00  0.00     0.111 A 
HETATM    6  N   UNL     1      38.981 -11.168   0.924  1.00  0.00    -0.364 N 
HETATM    7  C   UNL     1      39.155  -9.787   0.983  1.00  0.00     0.111 A 
ENDROOT
BRANCH   4   8
HETATM    8  C   UNL     1      40.263 -12.233   4.284  1.00  0.00     0.259 C 
HETATM    9  N   UNL     1      41.466 -12.878   4.495  1.00  0.00    -0.345 N 
HETATM   10  C   UNL     1      41.550 -13.855   5.586  1.00  0.00     0.146 C 
HETATM   11  C   UNL     1      42.645 -12.913   3.614  1.00  0.00     0.146 C 
HETATM   12  C   UNL     1      41.687 -15.277   5.014  1.00  0.00     0.143 C 
HETATM   13  N   UNL     1      42.871 -15.346   4.113  1.00  0.00    -0.376 N 
HETATM   14  C   UNL     1      42.852 -14.335   3.033  1.00  0.00     0.143 C 
HETATM   15  O   UNL     1      39.305 -12.363   5.046  1.00  0.00    -0.267 OA
BRANCH  13  16
HETATM   16  C   UNL     1      43.236 -16.674   3.797  1.00  0.00     0.064 A 
HETATM   17  C   UNL     1      44.055 -17.433   4.677  1.00  0.00     0.094 A 
HETATM   18  C   UNL     1      44.396 -18.759   4.367  1.00  0.00     0.039 A 
HETATM   19  C   UNL     1      43.933 -19.353   3.195  1.00  0.00     0.003 A 
HETATM   20  C   UNL     1      43.142 -18.624   2.317  1.00  0.00     0.002 A 
HETATM   21  C   UNL     1      42.803 -17.300   2.613  1.00  0.00     0.032 A 
BRANCH  17  22
HETATM   22  O   UNL     1      44.531 -16.781   5.793  1.00  0.00    -0.354 OA
HETATM   23  C   UNL     1      43.958 -17.131   7.044  1.00  0.00     0.210 C 
ENDBRANCH  17  22
ENDBRANCH  13  16
ENDBRANCH   4   8
BRANCH   1  24
HETATM   24  C   UNL     1      39.792  -7.629   1.923  1.00  0.00     0.257 C 
HETATM   25  N   UNL     1      41.018  -7.074   1.656  1.00  0.00    -0.353 N 
HETATM   26  H   UNL     1      41.800  -7.710   1.494  1.00  0.00     0.163 HD
HETATM   27  O   UNL     1      38.779  -6.967   2.134  1.00  0.00    -0.267 OA
BRANCH  25  28
HETATM   28  C   UNL     1      41.320  -5.649   1.698  1.00  0.00     0.076 C 
HETATM   29  C   UNL     1      42.293  -5.241   0.593  1.00  0.00     0.032 C 
HETATM   30  C   UNL     1      41.802  -5.188   3.070  1.00  0.00     0.032 C 
ENDBRANCH  25  28
ENDBRANCH   1  24
BRANCH   6  31
HETATM   31  C   UNL     1      38.294 -11.789  -0.230  1.00  0.00     0.132 C 
BRANCH  31  32
HETATM   32  C   UNL     1      39.218 -12.029  -1.448  1.00  0.00     0.004 C 
HETATM   33  C   UNL     1      40.217 -13.182  -1.257  1.00  0.00     0.006 C 
HETATM   34  C   UNL     1      39.555 -14.555  -1.294  1.00  0.00     0.000 C 
HETATM   35  C   UNL     1      38.761 -14.751  -2.580  1.00  0.00     0.000 C 
HETATM   36  C   UNL     1      37.741 -13.637  -2.792  1.00  0.00     0.000 C 
HETATM   37  C   UNL     1      38.387 -12.254  -2.725  1.00  0.00     0.006 C 
ENDBRANCH  31  32
ENDBRANCH   6  31
TORSDOF 7
ENDMDL
MODEL 6
REMARK VINA RESULT:      -8.3      2.171      8.456
REMARK  7 active torsions:
REMARK  status: ('A' for Active; 'I' for Inactive)
REMARK    1  A    between atoms: C_2  and  N_3 
REMARK       I    between atoms: N_3  and  C_4 
REMARK    2  A    between atoms: C_4  and  C_5 
REMARK    3  A    between atoms: C_8  and  C_9 
REMARK       I    between atoms: C_9  and  N_10 
REMARK    4  A    between atoms: N_13  and  C_14 
REMARK    5  A    between atoms: C_15  and  O_16 
REMARK    6  A    between atoms: N_26  and  C_27 
REMARK    7  A    between atoms: C_27  and  C_28 
ROOT
HETATM    1  C   UNL     1      43.489 -11.740   6.902  1.00  0.00     0.098 A 
HETATM    2  C   UNL     1      42.448 -10.915   6.223  1.00  0.00     0.206 A 
HETATM    3  O   UNL     1      42.046  -9.867   6.726  1.00  0.00    -0.286 OA
HETATM    4  C   UNL     1      41.898 -11.419   4.932  1.00  0.00     0.098 A 
HETATM    5  C   UNL     1      42.305 -12.628   4.512  1.00  0.00     0.111 A 
HETATM    6  N   UNL     1      43.190 -13.451   5.199  1.00  0.00    -0.364 N 
HETATM    7  C   UNL     1      43.766 -12.939   6.359  1.00  0.00     0.111 A 
ENDROOT
BRANCH   4   8
HETATM    8  C   UNL     1      41.159 -10.531   4.011  1.00  0.00     0.259 C 
HETATM    9  N   UNL     1      40.057 -11.007   3.327  1.00  0.00    -0.345 N 
HETATM   10  C   UNL     1      39.480 -10.172   2.269  1.00  0.00     0.146 C 
HETATM   11  C   UNL     1      39.503 -12.371   3.335  1.00  0.00     0.146 C 
HETATM   12  C   UNL     1      39.737 -10.809   0.892  1.00  0.00     0.143 C 
HETATM   13  N   UNL     1      39.192 -12.194   0.867  1.00  0.00    -0.376 N 
HETATM   14  C   UNL     1      39.706 -13.052   1.958  1.00  0.00     0.143 C 
HETATM   15  O   UNL     1      41.593  -9.391   3.844  1.00  0.00    -0.267 OA
BRANCH  13  16
HETATM   16  C   UNL     1      39.117 -12.725  -0.440  1.00  0.00     0.064 A 
HETATM   17  C   UNL     1      38.063 -12.353  -1.319  1.00  0.00     0.094 A 
HETATM   18  C   UNL     1      38.007 -12.868  -2.623  1.00  0.00     0.039 A 
HETATM   19  C   UNL     1      38.987 -13.747  -3.079  1.00  0.00     0.003 A 
HETATM   20  C   UNL     1      40.018 -14.132  -2.232  1.00  0.00     0.002 A 
HETATM   21  C   UNL     1      40.078 -13.631  -0.928  1.00  0.00     0.032 A 
BRANCH  17  22
HETATM   22  O   UNL     1      37.091 -11.526  -0.800  1.00  0.00    -0.354 OA
HETATM   23  C   UNL     1      36.835 -10.312  -1.490  1.00  0.00     0.210 C 
ENDBRANCH  17  22
ENDBRANCH  13  16
ENDBRANCH   4   8
BRANCH   1  24
HETATM   24  C   UNL     1      44.261 -11.310   8.105  1.00  0.00     0.257 C 
HETATM   25  N   UNL     1      43.503 -10.894   9.170  1.00  0.00    -0.353 N 
HETATM   26  H   UNL     1      42.487 -10.933   9.071  1.00  0.00     0.163 HD
HETATM   27  O   UNL     1      45.489 -11.311   8.106  1.00  0.00    -0.267 OA
BRANCH  25  28
HETATM   28  C   UNL     1      44.029 -10.295  10.390  1.00  0.00     0.076 C 
HETATM   29  C   UNL     1      43.481 -10.979  11.641  1.00  0.00     0.032 C 
HETATM   30  C   UNL     1      43.824  -8.783  10.440  1.00  0.00     0.032 C 
ENDBRANCH  25  28
ENDBRANCH   1  24
BRANCH   6  31
HETATM   31  C   UNL     1      43.574 -14.790   4.699  1.00  0.00     0.132 C 
BRANCH  31  32
HETATM   32  C   UNL     1      42.388 -15.778   4.593  1.00  0.00     0.004 C 
HETATM   33  C   UNL     1      41.775 -15.873   3.186  1.00  0.00     0.006 C 
HETATM   34  C   UNL     1      42.673 -16.605   2.195  1.00  0.00     0.000 C 
HETATM   35  C   UNL     1      43.042 -17.993   2.705  1.00  0.00     0.000 C 
HETATM   36  C   UNL     1      43.676 -17.937   4.091  1.00  0.00     0.000 C 
HETATM   37  C   UNL     1      42.800 -17.177   5.087  1.00  0.00     0.006 C 
ENDBRANCH  31  32
ENDBRANCH   6  31
TORSDOF 7
ENDMDL
MODEL 7
REMARK VINA RESULT:      -8.2      1.993      5.401
REMARK  7 active torsions:
REMARK  status: ('A' for Active; 'I' for Inactive)
REMARK    1  A    between atoms: C_2  and  N_3 
REMARK       I    between atoms: N_3  and  C_4 
REMARK    2  A    between atoms: C_4  and  C_5 
REMARK    3  A    between atoms: C_8  and  C_9 
REMARK       I    between atoms: C_9  and  N_10 
REMARK    4  A    between atoms: N_13  and  C_14 
REMARK    5  A    between atoms: C_15  and  O_16 
REMARK    6  A    between atoms: N_26  and  C_27 
REMARK    7  A    between atoms: C_27  and  C_28 
ROOT
HETATM    1  C   UNL     1      40.677 -14.397   4.219  1.00  0.00     0.098 A 
HETATM    2  C   UNL     1      40.124 -13.198   4.913  1.00  0.00     0.206 A 
HETATM    3  O   UNL     1      39.868 -13.228   6.116  1.00  0.00    -0.286 OA
HETATM    4  C   UNL     1      39.872 -11.979   4.094  1.00  0.00     0.098 A 
HETATM    5  C   UNL     1      40.069 -12.068   2.768  1.00  0.00     0.111 A 
HETATM    6  N   UNL     1      40.477 -13.217   2.101  1.00  0.00    -0.364 N 
HETATM    7  C   UNL     1      40.793 -14.327   2.881  1.00  0.00     0.111 A 
ENDROOT
BRANCH   4   8
HETATM    8  C   UNL     1      39.685 -10.654   4.722  1.00  0.00     0.259 C 
HETATM    9  N   UNL     1      40.772  -9.975   5.238  1.00  0.00    -0.345 N 
HETATM   10  C   UNL     1      40.524  -8.771   6.038  1.00  0.00     0.146 C 
HETATM   11  C   UNL     1      42.172 -10.423   5.311  1.00  0.00     0.146 C 
HETATM   12  C   UNL     1      40.874  -9.035   7.513  1.00  0.00     0.143 C 
HETATM   13  N   UNL     1      42.286  -9.495   7.623  1.00  0.00    -0.376 N 
HETATM   14  C   UNL     1      42.590 -10.674   6.782  1.00  0.00     0.143 C 
HETATM   15  O   UNL     1      38.536 -10.220   4.812  1.00  0.00    -0.267 OA
BRANCH  13  16
HETATM   16  C   UNL     1      42.767  -9.463   8.951  1.00  0.00     0.064 A 
HETATM   17  C   UNL     1      44.152  -9.621   9.228  1.00  0.00     0.094 A 
HETATM   18  C   UNL     1      44.626  -9.566  10.548  1.00  0.00     0.039 A 
HETATM   19  C   UNL     1      43.746  -9.351  11.607  1.00  0.00     0.003 A 
HETATM   20  C   UNL     1      42.388  -9.206  11.358  1.00  0.00     0.002 A 
HETATM   21  C   UNL     1      41.905  -9.266  10.047  1.00  0.00     0.032 A 
BRANCH  17  22
HETATM   22  O   UNL     1      44.970  -9.887   8.152  1.00  0.00    -0.354 OA
HETATM   23  C   UNL     1      46.171  -9.137   8.047  1.00  0.00     0.210 C 
ENDBRANCH  17  22
ENDBRANCH  13  16
ENDBRANCH   4   8
BRANCH   1  24
HETATM   24  C   UNL     1      41.140 -15.638   4.908  1.00  0.00     0.257 C 
HETATM   25  N   UNL     1      42.495 -15.853   4.881  1.00  0.00    -0.353 N 
HETATM   26  H   UNL     1      43.076 -15.148   4.423  1.00  0.00     0.163 HD
HETATM   27  O   UNL     1      40.341 -16.412   5.429  1.00  0.00    -0.267 OA
BRANCH  25  28
HETATM   28  C   UNL     1      43.162 -17.059   5.353  1.00  0.00     0.076 C 
HETATM   29  C   UNL     1      44.255 -16.743   6.371  1.00  0.00     0.032 C 
HETATM   30  C   UNL     1      43.689 -17.926   4.213  1.00  0.00     0.032 C 
ENDBRANCH  25  28
ENDBRANCH   1  24
BRANCH   6  31
HETATM   31  C   UNL     1      40.643 -13.261   0.631  1.00  0.00     0.132 C 
BRANCH  31  32
HETATM   32  C   UNL     1      39.311 -13.409  -0.141  1.00  0.00     0.004 C 
HETATM   33  C   UNL     1      38.767 -12.088  -0.711  1.00  0.00     0.006 C 
HETATM   34  C   UNL     1      39.576 -11.575  -1.897  1.00  0.00     0.000 C 
HETATM   35  C   UNL     1      39.670 -12.625  -2.997  1.00  0.00     0.000 C 
HETATM   36  C   UNL     1      40.229 -13.945  -2.475  1.00  0.00     0.000 C 
HETATM   37  C   UNL     1      39.446 -14.454  -1.264  1.00  0.00     0.006 C 
ENDBRANCH  31  32
ENDBRANCH   6  31
TORSDOF 7
ENDMDL
MODEL 8
REMARK VINA RESULT:      -8.2      2.336      3.771
REMARK  7 active torsions:
REMARK  status: ('A' for Active; 'I' for Inactive)
REMARK    1  A    between atoms: C_2  and  N_3 
REMARK       I    between atoms: N_3  and  C_4 
REMARK    2  A    between atoms: C_4  and  C_5 
REMARK    3  A    between atoms: C_8  and  C_9 
REMARK       I    between atoms: C_9  and  N_10 
REMARK    4  A    between atoms: N_13  and  C_14 
REMARK    5  A    between atoms: C_15  and  O_16 
REMARK    6  A    between atoms: N_26  and  C_27 
REMARK    7  A    between atoms: C_27  and  C_28 
ROOT
HETATM    1  C   UNL     1      41.483 -14.458   1.624  1.00  0.00     0.098 A 
HETATM    2  C   UNL     1      42.031 -13.296   2.382  1.00  0.00     0.206 A 
HETATM    3  O   UNL     1      41.971 -12.157   1.919  1.00  0.00    -0.286 OA
HETATM    4  C   UNL     1      42.673 -13.567   3.699  1.00  0.00     0.098 A 
HETATM    5  C   UNL     1      42.801 -14.850   4.076  1.00  0.00     0.111 A 
HETATM    6  N   UNL     1      42.393 -15.944   3.322  1.00  0.00    -0.364 N 
HETATM    7  C   UNL     1      41.717 -15.681   2.133  1.00  0.00     0.111 A 
ENDROOT
BRANCH   4   8
HETATM    8  C   UNL     1      42.908 -12.485   4.679  1.00  0.00     0.259 C 
HETATM    9  N   UNL     1      41.845 -11.934   5.367  1.00  0.00    -0.345 N 
HETATM   10  C   UNL     1      42.084 -10.728   6.167  1.00  0.00     0.146 C 
HETATM   11  C   UNL     1      40.412 -12.242   5.224  1.00  0.00     0.146 C 
HETATM   12  C   UNL     1      41.388  -9.517   5.519  1.00  0.00     0.143 C 
HETATM   13  N   UNL     1      39.935  -9.798   5.356  1.00  0.00    -0.376 N 
HETATM   14  C   UNL     1      39.654 -11.041   4.605  1.00  0.00     0.143 C 
HETATM   15  O   UNL     1      44.060 -12.071   4.808  1.00  0.00    -0.267 OA
BRANCH  13  16
HETATM   16  C   UNL     1      39.188  -8.637   5.057  1.00  0.00     0.064 A 
HETATM   17  C   UNL     1      38.571  -7.881   6.091  1.00  0.00     0.094 A 
HETATM   18  C   UNL     1      37.848  -6.716   5.790  1.00  0.00     0.039 A 
HETATM   19  C   UNL     1      37.729  -6.280   4.472  1.00  0.00     0.003 A 
HETATM   20  C   UNL     1      38.314  -7.010   3.446  1.00  0.00     0.002 A 
HETATM   21  C   UNL     1      39.030  -8.176   3.736  1.00  0.00     0.032 A 
BRANCH  17  22
HETATM   22  O   UNL     1      38.672  -8.387   7.369  1.00  0.00    -0.354 OA
HETATM   23  C   UNL     1      39.179  -7.519   8.373  1.00  0.00     0.210 C 
ENDBRANCH  17  22
ENDBRANCH  13  16
ENDBRANCH   4   8
BRANCH   1  24
HETATM   24  C   UNL     1      40.669 -14.352   0.378  1.00  0.00     0.257 C 
HETATM   25  N   UNL     1      40.977 -13.291  -0.435  1.00  0.00    -0.353 N 
HETATM   26  H   UNL     1      41.743 -12.680  -0.146  1.00  0.00     0.163 HD
HETATM   27  O   UNL     1      39.771 -15.155   0.135  1.00  0.00    -0.267 OA
BRANCH  25  28
HETATM   28  C   UNL     1      40.227 -12.899  -1.622  1.00  0.00     0.076 C 
HETATM   29  C   UNL     1      38.806 -12.461  -1.277  1.00  0.00     0.032 C 
HETATM   30  C   UNL     1      40.236 -13.973  -2.706  1.00  0.00     0.032 C 
ENDBRANCH  25  28
ENDBRANCH   1  24
BRANCH   6  31
HETATM   31  C   UNL     1      42.594 -17.338   3.779  1.00  0.00     0.132 C 
BRANCH  31  32
HETATM   32  C   UNL     1      43.933 -17.957   3.313  1.00  0.00     0.004 C 
HETATM   33  C   UNL     1      44.685 -18.724   4.413  1.00  0.00     0.006 C 
HETATM   34  C   UNL     1      44.021 -20.048   4.775  1.00  0.00     0.000 C 
HETATM   35  C   UNL     1      43.841 -20.930   3.545  1.00  0.00     0.000 C 
HETATM   36  C   UNL     1      43.077 -20.211   2.438  1.00  0.00     0.000 C 
HETATM   37  C   UNL     1      43.714 -18.866   2.088  1.00  0.00     0.006 C 
ENDBRANCH  31  32
ENDBRANCH   6  31
TORSDOF 7
ENDMDL
MODEL 9
REMARK VINA RESULT:      -8.1      2.311      8.666
REMARK  7 active torsions:
REMARK  status: ('A' for Active; 'I' for Inactive)
REMARK    1  A    between atoms: C_2  and  N_3 
REMARK       I    between atoms: N_3  and  C_4 
REMARK    2  A    between atoms: C_4  and  C_5 
REMARK    3  A    between atoms: C_8  and  C_9 
REMARK       I    between atoms: C_9  and  N_10 
REMARK    4  A    between atoms: N_13  and  C_14 
REMARK    5  A    between atoms: C_15  and  O_16 
REMARK    6  A    between atoms: N_26  and  C_27 
REMARK    7  A    between atoms: C_27  and  C_28 
ROOT
HETATM    1  C   UNL     1      43.024 -14.510   5.076  1.00  0.00     0.098 A 
HETATM    2  C   UNL     1      42.893 -13.654   3.863  1.00  0.00     0.206 A 
HETATM    3  O   UNL     1      42.816 -14.156   2.742  1.00  0.00    -0.286 OA
HETATM    4  C   UNL     1      42.884 -12.176   4.055  1.00  0.00     0.098 A 
HETATM    5  C   UNL     1      43.090 -11.709   5.297  1.00  0.00     0.111 A 
HETATM    6  N   UNL     1      43.326 -12.501   6.415  1.00  0.00    -0.364 N 
HETATM    7  C   UNL     1      43.247 -13.881   6.244  1.00  0.00     0.111 A 
ENDROOT
BRANCH   4   8
HETATM    8  C   UNL     1      42.397 -11.264   2.998  1.00  0.00     0.259 C 
HETATM    9  N   UNL     1      41.109 -11.390   2.517  1.00  0.00    -0.345 N 
HETATM   10  C   UNL     1      40.730 -10.617   1.330  1.00  0.00     0.146 C 
HETATM   11  C   UNL     1      40.097 -12.396   2.883  1.00  0.00     0.146 C 
HETATM   12  C   UNL     1      40.523 -11.558   0.130  1.00  0.00     0.143 C 
HETATM   13  N   UNL     1      39.507 -12.592   0.467  1.00  0.00    -0.376 N 
HETATM   14  C   UNL     1      39.824 -13.354   1.696  1.00  0.00     0.143 C 
HETATM   15  O   UNL     1      43.192 -10.444   2.539  1.00  0.00    -0.267 OA
BRANCH  13  16
HETATM   16  C   UNL     1      39.046 -13.292  -0.669  1.00  0.00     0.064 A 
HETATM   17  C   UNL     1      38.012 -12.757  -1.486  1.00  0.00     0.094 A 
HETATM   18  C   UNL     1      37.574 -13.448  -2.626  1.00  0.00     0.039 A 
HETATM   19  C   UNL     1      38.149 -14.667  -2.978  1.00  0.00     0.003 A 
HETATM   20  C   UNL     1      39.151 -15.213  -2.188  1.00  0.00     0.002 A 
HETATM   21  C   UNL     1      39.590 -14.535  -1.045  1.00  0.00     0.032 A 
BRANCH  17  22
HETATM   22  O   UNL     1      37.440 -11.578  -1.061  1.00  0.00    -0.354 OA
HETATM   23  C   UNL     1      37.139 -10.608  -2.054  1.00  0.00     0.210 C 
ENDBRANCH  17  22
ENDBRANCH  13  16
ENDBRANCH   4   8
BRANCH   1  24
HETATM   24  C   UNL     1      42.887 -15.997   5.086  1.00  0.00     0.257 C 
HETATM   25  N   UNL     1      43.477 -16.647   4.032  1.00  0.00    -0.353 N 
HETATM   26  H   UNL     1      43.978 -16.079   3.347  1.00  0.00     0.163 HD
HETATM   27  O   UNL     1      42.259 -16.571   5.972  1.00  0.00    -0.267 OA
BRANCH  25  28
HETATM   28  C   UNL     1      43.350 -18.071   3.749  1.00  0.00     0.076 C 
HETATM   29  C   UNL     1      44.486 -18.877   4.376  1.00  0.00     0.032 C 
HETATM   30  C   UNL     1      43.208 -18.365   2.258  1.00  0.00     0.032 C 
ENDBRANCH  25  28
ENDBRANCH   1  24
BRANCH   6  31
HETATM   31  C   UNL     1      43.581 -11.923   7.754  1.00  0.00     0.132 C 
BRANCH  31  32
HETATM   32  C   UNL     1      43.955 -10.423   7.722  1.00  0.00     0.004 C 
HETATM   33  C   UNL     1      42.890  -9.499   8.336  1.00  0.00     0.006 C 
HETATM   34  C   UNL     1      42.815  -9.607   9.855  1.00  0.00     0.000 C 
HETATM   35  C   UNL     1      44.173  -9.346  10.496  1.00  0.00     0.000 C 
HETATM   36  C   UNL     1      45.253 -10.261   9.928  1.00  0.00     0.000 C 
HETATM   37  C   UNL     1      45.317 -10.187   8.402  1.00  0.00     0.006 C 
ENDBRANCH  31  32
ENDBRANCH   6  31
TORSDOF 7
ENDMDL
MODEL 10
REMARK VINA RESULT:      -7.9      3.339      7.988
REMARK  7 active torsions:
REMARK  status: ('A' for Active; 'I' for Inactive)
REMARK    1  A    between atoms: C_2  and  N_3 
REMARK       I    between atoms: N_3  and  C_4 
REMARK    2  A    between atoms: C_4  and  C_5 
REMARK    3  A    between atoms: C_8  and  C_9 
REMARK       I    between atoms: C_9  and  N_10 
REMARK    4  A    between atoms: N_13  and  C_14 
REMARK    5  A    between atoms: C_15  and  O_16 
REMARK    6  A    between atoms: N_26  and  C_27 
REMARK    7  A    between atoms: C_27  and  C_28 
ROOT
HETATM    1  C   UNL     1      39.307  -9.065   3.826  1.00  0.00     0.098 A 
HETATM    2  C   UNL     1      39.903 -10.081   4.741  1.00  0.00     0.206 A 
HETATM    3  O   UNL     1      40.558  -9.737   5.724  1.00  0.00    -0.286 OA
HETATM    4  C   UNL     1      39.697 -11.519   4.408  1.00  0.00     0.098 A 
HETATM    5  C   UNL     1      39.071 -11.807   3.256  1.00  0.00     0.111 A 
HETATM    6  N   UNL     1      38.612 -10.865   2.343  1.00  0.00    -0.364 N 
HETATM    7  C   UNL     1      38.730  -9.523   2.700  1.00  0.00     0.111 A 
ENDROOT
BRANCH   4   8
HETATM    8  C   UNL     1      39.915 -12.581   5.413  1.00  0.00     0.259 C 
HETATM    9  N   UNL     1      41.140 -13.213   5.496  1.00  0.00    -0.345 N 
HETATM   10  C   UNL     1      41.255 -14.398   6.352  1.00  0.00     0.146 C 
HETATM   11  C   UNL     1      42.324 -13.015   4.643  1.00  0.00     0.146 C 
HETATM   12  C   UNL     1      41.449 -15.657   5.490  1.00  0.00     0.143 C 
HETATM   13  N   UNL     1      42.638 -15.489   4.610  1.00  0.00    -0.376 N 
HETATM   14  C   UNL     1      42.586 -14.270   3.773  1.00  0.00     0.143 C 
HETATM   15  O   UNL     1      38.959 -12.906   6.118  1.00  0.00    -0.267 OA
BRANCH  13  16
HETATM   16  C   UNL     1      43.055 -16.703   4.021  1.00  0.00     0.064 A 
HETATM   17  C   UNL     1      43.885 -17.612   4.733  1.00  0.00     0.094 A 
HETATM   18  C   UNL     1      44.277 -18.826   4.149  1.00  0.00     0.039 A 
HETATM   19  C   UNL     1      43.855 -19.163   2.865  1.00  0.00     0.003 A 
HETATM   20  C   UNL     1      43.053 -18.284   2.149  1.00  0.00     0.002 A 
HETATM   21  C   UNL     1      42.663 -17.068   2.719  1.00  0.00     0.032 A 
BRANCH  17  22
HETATM   22  O   UNL     1      44.320 -17.205   5.975  1.00  0.00    -0.354 OA
HETATM   23  C   UNL     1      43.709 -17.807   7.106  1.00  0.00     0.210 C 
ENDBRANCH  17  22
ENDBRANCH  13  16
ENDBRANCH   4   8
BRANCH   1  24
HETATM   24  C   UNL     1      39.273  -7.597   4.093  1.00  0.00     0.257 C 
HETATM   25  N   UNL     1      38.958  -7.242   5.380  1.00  0.00    -0.353 N 
HETATM   26  H   UNL     1      38.798  -7.994   6.052  1.00  0.00     0.163 HD
HETATM   27  O   UNL     1      39.488  -6.783   3.198  1.00  0.00    -0.267 OA
BRANCH  25  28
HETATM   28  C   UNL     1      38.721  -5.880   5.840  1.00  0.00     0.076 C 
HETATM   29  C   UNL     1      39.936  -5.306   6.566  1.00  0.00     0.032 C 
HETATM   30  C   UNL     1      37.453  -5.752   6.679  1.00  0.00     0.032 C 
ENDBRANCH  25  28
ENDBRANCH   1  24
BRANCH   6  31
HETATM   31  C   UNL     1      37.958 -11.248   1.072  1.00  0.00     0.132 C 
BRANCH  31  32
HETATM   32  C   UNL     1      38.893 -11.163  -0.158  1.00  0.00     0.004 C 
HETATM   33  C   UNL     1      40.145 -12.050  -0.056  1.00  0.00     0.006 C 
HETATM   34  C   UNL     1      39.834 -13.536  -0.202  1.00  0.00     0.000 C 
HETATM   35  C   UNL     1      39.090 -13.819  -1.502  1.00  0.00     0.000 C 
HETATM   36  C   UNL     1      37.828 -12.973  -1.628  1.00  0.00     0.000 C 
HETATM   37  C   UNL     1      38.120 -11.484  -1.451  1.00  0.00     0.006 C 
ENDBRANCH  31  32
ENDBRANCH   6  31
TORSDOF 7
ENDMDL
