MODEL 1
REMARK VINA RESULT:      -9.6      0.000      0.000
REMARK  5 active torsions:
REMARK  status: ('A' for Active; 'I' for Inactive)
REMARK    1  A    between atoms: C_6  and  S_7 
REMARK    2  A    between atoms: S_7  and  C_8 
REMARK    3  A    between atoms: C_8  and  C_9 
REMARK       I    between atoms: C_9  and  N_10 
REMARK    4  A    between atoms: N_10  and  C_11 
REMARK    5  A    between atoms: N_22  and  C_23 
ROOT
HETATM    1  C   UNL     1      44.082 -20.897   5.130  1.00  0.00     0.001 A 
HETATM    2  C   UNL     1      43.820 -19.641   5.677  1.00  0.00     0.019 A 
HETATM    3  C   UNL     1      43.592 -18.549   4.830  1.00  0.00     0.061 A 
HETATM    4  C   UNL     1      43.632 -18.697   3.450  1.00  0.00     0.075 A 
HETATM    5  N   UNL     1      43.478 -17.615   2.582  1.00  0.00    -0.223 NA
HETATM    6  C   UNL     1      43.175 -16.457   3.076  1.00  0.00     0.177 A 
HETATM    7  N   UNL     1      42.995 -16.204   4.438  1.00  0.00    -0.256 N 
HETATM    8  C   UNL     1      43.261 -17.218   5.372  1.00  0.00     0.267 A 
HETATM    9  O   UNL     1      43.196 -17.102   6.594  1.00  0.00    -0.267 OA
HETATM   10  C   UNL     1      43.881 -19.963   2.911  1.00  0.00     0.032 A 
HETATM   11  C   UNL     1      44.108 -21.059   3.747  1.00  0.00     0.002 A 
ENDROOT
BRANCH   6  12
HETATM   12  S   UNL     1      43.153 -15.114   1.934  1.00  0.00    -0.082 SA
BRANCH  12  13
HETATM   13  C   UNL     1      41.501 -15.267   1.195  1.00  0.00     0.185 C 
BRANCH  13  14
HETATM   14  C   UNL     1      41.012 -13.951   0.599  1.00  0.00     0.231 C 
HETATM   15  N   UNL     1      40.636 -14.048  -0.728  1.00  0.00    -0.326 N 
HETATM   16  H   UNL     1      40.825 -14.948  -1.169  1.00  0.00     0.169 HD
HETATM   17  O   UNL     1      40.932 -12.942   1.295  1.00  0.00    -0.272 OA
BRANCH  15  18
HETATM   18  C   UNL     1      40.061 -13.058  -1.548  1.00  0.00     0.037 A 
HETATM   19  C   UNL     1      40.803 -12.062  -2.195  1.00  0.00     0.061 A 
HETATM   20  C   UNL     1      40.098 -11.138  -2.933  1.00  0.00     0.065 A 
HETATM   21  C   UNL     1      38.710 -11.175  -3.053  1.00  0.00     0.063 A 
HETATM   22  N   UNL     1      40.558 -10.042  -3.656  1.00  0.00    -0.306 N 
HETATM   23  N   UNL     1      38.318 -10.107  -3.850  1.00  0.00    -0.307 N 
HETATM   24  C   UNL     1      37.953 -12.142  -2.445  1.00  0.00     0.034 A 
HETATM   25  C   UNL     1      39.460  -9.388  -4.232  1.00  0.00     0.325 A 
HETATM   26  H   UNL     1      37.383  -9.856  -4.123  1.00  0.00     0.170 HD
HETATM   27  O   UNL     1      39.487  -8.388  -4.927  1.00  0.00    -0.247 OA
HETATM   28  C   UNL     1      38.646 -13.091  -1.683  1.00  0.00     0.032 A 
HETATM   29  H   UNL     1      41.513  -9.743  -3.764  1.00  0.00     0.170 HD
ENDBRANCH  15  18
ENDBRANCH  13  14
ENDBRANCH  12  13
ENDBRANCH   6  12
BRANCH   7  30
HETATM   30  C   UNL     1      42.485 -14.961   4.950  1.00  0.00     0.046 A 
HETATM   31  C   UNL     1      43.355 -13.997   5.487  1.00  0.00     0.057 A 
HETATM   32  C   UNL     1      42.854 -12.809   6.026  1.00  0.00     0.074 A 
HETATM   33 CL   UNL     1      43.946 -11.642   6.665  1.00  0.00    -0.081 Cl
HETATM   34  C   UNL     1      41.483 -12.579   6.044  1.00  0.00     0.138 A 
HETATM   35  F   UNL     1      40.980 -11.448   6.562  1.00  0.00    -0.204 F 
HETATM   36  C   UNL     1      40.602 -13.526   5.532  1.00  0.00     0.046 A 
HETATM   37  C   UNL     1      41.102 -14.715   4.992  1.00  0.00     0.033 A 
ENDBRANCH   7  30
TORSDOF 5
ENDMDL
MODEL 2
REMARK VINA RESULT:      -9.6      5.684      9.491
REMARK  5 active torsions:
REMARK  status: ('A' for Active; 'I' for Inactive)
REMARK    1  A    between atoms: C_6  and  S_7 
REMARK    2  A    between atoms: S_7  and  C_8 
REMARK    3  A    between atoms: C_8  and  C_9 
REMARK       I    between atoms: C_9  and  N_10 
REMARK    4  A    between atoms: N_10  and  C_11 
REMARK    5  A    between atoms: N_22  and  C_23 
ROOT
HETATM    1  C   UNL     1      41.624  -8.588  14.502  1.00  0.00     0.001 A 
HETATM    2  C   UNL     1      42.420  -9.285  13.594  1.00  0.00     0.019 A 
HETATM    3  C   UNL     1      42.334  -8.992  12.227  1.00  0.00     0.061 A 
HETATM    4  C   UNL     1      41.458  -8.019  11.762  1.00  0.00     0.075 A 
HETATM    5  N   UNL     1      41.299  -7.753  10.401  1.00  0.00    -0.223 NA
HETATM    6  C   UNL     1      42.075  -8.352   9.553  1.00  0.00     0.177 A 
HETATM    7  N   UNL     1      43.071  -9.265   9.906  1.00  0.00    -0.256 N 
HETATM    8  C   UNL     1      43.196  -9.672  11.243  1.00  0.00     0.267 A 
HETATM    9  O   UNL     1      43.991 -10.508  11.668  1.00  0.00    -0.267 OA
HETATM   10  C   UNL     1      40.675  -7.315  12.681  1.00  0.00     0.032 A 
HETATM   11  C   UNL     1      40.755  -7.599  14.047  1.00  0.00     0.002 A 
ENDROOT
BRANCH   6  12
HETATM   12  S   UNL     1      41.708  -8.083   7.850  1.00  0.00    -0.082 SA
BRANCH  12  13
HETATM   13  C   UNL     1      40.438  -9.342   7.528  1.00  0.00     0.185 C 
BRANCH  13  14
HETATM   14  C   UNL     1      40.865 -10.328   6.447  1.00  0.00     0.231 C 
HETATM   15  N   UNL     1      40.279 -11.574   6.568  1.00  0.00    -0.326 N 
HETATM   16  H   UNL     1      39.721 -11.712   7.410  1.00  0.00     0.169 HD
HETATM   17  O   UNL     1      41.624  -9.978   5.546  1.00  0.00    -0.272 OA
BRANCH  15  18
HETATM   18  C   UNL     1      40.382 -12.678   5.700  1.00  0.00     0.037 A 
HETATM   19  C   UNL     1      39.798 -12.719   4.428  1.00  0.00     0.061 A 
HETATM   20  C   UNL     1      39.951 -13.883   3.708  1.00  0.00     0.065 A 
HETATM   21  C   UNL     1      40.657 -14.980   4.197  1.00  0.00     0.063 A 
HETATM   22  N   UNL     1      39.472 -14.214   2.444  1.00  0.00    -0.306 N 
HETATM   23  N   UNL     1      40.614 -15.983   3.236  1.00  0.00    -0.307 N 
HETATM   24  C   UNL     1      41.252 -14.971   5.431  1.00  0.00     0.034 A 
HETATM   25  C   UNL     1      39.875 -15.521   2.137  1.00  0.00     0.325 A 
HETATM   26  H   UNL     1      41.026 -16.900   3.287  1.00  0.00     0.170 HD
HETATM   27  O   UNL     1      39.631 -16.140   1.117  1.00  0.00    -0.247 OA
HETATM   28  C   UNL     1      41.106 -13.800   6.186  1.00  0.00     0.032 A 
HETATM   29  H   UNL     1      38.923 -13.634   1.832  1.00  0.00     0.170 HD
ENDBRANCH  15  18
ENDBRANCH  13  14
ENDBRANCH  12  13
ENDBRANCH   6  12
BRANCH   7  30
HETATM   30  C   UNL     1      44.036  -9.780   8.973  1.00  0.00     0.046 A 
HETATM   31  C   UNL     1      43.803 -10.987   8.293  1.00  0.00     0.057 A 
HETATM   32  C   UNL     1      44.762 -11.510   7.422  1.00  0.00     0.074 A 
HETATM   33 CL   UNL     1      44.440 -12.984   6.593  1.00  0.00    -0.081 Cl
HETATM   34  C   UNL     1      45.965 -10.839   7.231  1.00  0.00     0.138 A 
HETATM   35  F   UNL     1      46.902 -11.326   6.404  1.00  0.00    -0.204 F 
HETATM   36  C   UNL     1      46.225  -9.651   7.906  1.00  0.00     0.046 A 
HETATM   37  C   UNL     1      45.266  -9.126   8.778  1.00  0.00     0.033 A 
ENDBRANCH   7  30
TORSDOF 5
ENDMDL
MODEL 3
REMARK VINA RESULT:      -9.4      4.253      8.280
REMARK  5 active torsions:
REMARK  status: ('A' for Active; 'I' for Inactive)
REMARK    1  A    between atoms: C_6  and  S_7 
REMARK    2  A    between atoms: S_7  and  C_8 
REMARK    3  A    between atoms: C_8  and  C_9 
REMARK       I    between atoms: C_9  and  N_10 
REMARK    4  A    between atoms: N_10  and  C_11 
REMARK    5  A    between atoms: N_22  and  C_23 
ROOT
HETATM    1  C   UNL     1      46.069 -10.901   7.289  1.00  0.00     0.001 A 
HETATM    2  C   UNL     1      45.692 -11.163   5.972  1.00  0.00     0.019 A 
HETATM    3  C   UNL     1      44.336 -11.315   5.655  1.00  0.00     0.061 A 
HETATM    4  C   UNL     1      43.360 -11.215   6.639  1.00  0.00     0.075 A 
HETATM    5  N   UNL     1      42.007 -11.429   6.367  1.00  0.00    -0.223 NA
HETATM    6  C   UNL     1      41.639 -11.614   5.139  1.00  0.00     0.177 A 
HETATM    7  N   UNL     1      42.512 -11.622   4.048  1.00  0.00    -0.256 N 
HETATM    8  C   UNL     1      43.896 -11.541   4.267  1.00  0.00     0.267 A 
HETATM    9  O   UNL     1      44.764 -11.596   3.398  1.00  0.00    -0.267 OA
HETATM   10  C   UNL     1      43.747 -10.937   7.953  1.00  0.00     0.032 A 
HETATM   11  C   UNL     1      45.096 -10.783   8.279  1.00  0.00     0.002 A 
ENDROOT
BRANCH   6  12
HETATM   12  S   UNL     1      39.944 -12.032   4.898  1.00  0.00    -0.082 SA
BRANCH  12  13
HETATM   13  C   UNL     1      39.618 -13.137   6.303  1.00  0.00     0.185 C 
BRANCH  13  14
HETATM   14  C   UNL     1      40.227 -14.520   6.103  1.00  0.00     0.231 C 
HETATM   15  N   UNL     1      41.195 -14.563   5.117  1.00  0.00    -0.326 N 
HETATM   16  H   UNL     1      41.310 -13.703   4.582  1.00  0.00     0.169 HD
HETATM   17  O   UNL     1      39.888 -15.462   6.815  1.00  0.00    -0.272 OA
BRANCH  15  18
HETATM   18  C   UNL     1      42.012 -15.647   4.740  1.00  0.00     0.037 A 
HETATM   19  C   UNL     1      41.779 -16.435   3.606  1.00  0.00     0.061 A 
HETATM   20  C   UNL     1      42.641 -17.486   3.388  1.00  0.00     0.065 A 
HETATM   21  C   UNL     1      43.709 -17.769   4.237  1.00  0.00     0.063 A 
HETATM   22  N   UNL     1      42.645 -18.434   2.370  1.00  0.00    -0.306 N 
HETATM   23  N   UNL     1      44.368 -18.887   3.742  1.00  0.00    -0.307 N 
HETATM   24  C   UNL     1      43.975 -17.013   5.348  1.00  0.00     0.034 A 
HETATM   25  C   UNL     1      43.714 -19.316   2.578  1.00  0.00     0.325 A 
HETATM   26  H   UNL     1      45.178 -19.344   4.128  1.00  0.00     0.170 HD
HETATM   27  O   UNL     1      44.018 -20.272   1.886  1.00  0.00    -0.247 OA
HETATM   28  C   UNL     1      43.109 -15.941   5.596  1.00  0.00     0.032 A 
HETATM   29  H   UNL     1      41.998 -18.502   1.601  1.00  0.00     0.170 HD
ENDBRANCH  15  18
ENDBRANCH  13  14
ENDBRANCH  12  13
ENDBRANCH   6  12
BRANCH   7  30
HETATM   30  C   UNL     1      42.066 -11.649   2.681  1.00  0.00     0.046 A 
HETATM   31  C   UNL     1      41.823 -10.453   1.984  1.00  0.00     0.057 A 
HETATM   32  C   UNL     1      41.345 -10.480   0.671  1.00  0.00     0.074 A 
HETATM   33 CL   UNL     1      41.069  -8.999  -0.161  1.00  0.00    -0.081 Cl
HETATM   34  C   UNL     1      41.095 -11.698   0.048  1.00  0.00     0.138 A 
HETATM   35  F   UNL     1      40.631 -11.747  -1.209  1.00  0.00    -0.204 F 
HETATM   36  C   UNL     1      41.314 -12.894   0.724  1.00  0.00     0.046 A 
HETATM   37  C   UNL     1      41.793 -12.869   2.038  1.00  0.00     0.033 A 
ENDBRANCH   7  30
TORSDOF 5
ENDMDL
MODEL 4
REMARK VINA RESULT:      -9.3      5.126      8.732
REMARK  5 active torsions:
REMARK  status: ('A' for Active; 'I' for Inactive)
REMARK    1  A    between atoms: C_6  and  S_7 
REMARK    2  A    between atoms: S_7  and  C_8 
REMARK    3  A    between atoms: C_8  and  C_9 
REMARK       I    between atoms: C_9  and  N_10 
REMARK    4  A    between atoms: N_10  and  C_11 
REMARK    5  A    between atoms: N_22  and  C_23 
ROOT
HETATM    1  C   UNL     1      43.518 -19.035   2.686  1.00  0.00     0.001 A 
HETATM    2  C   UNL     1      42.872 -17.825   2.440  1.00  0.00     0.019 A 
HETATM    3  C   UNL     1      42.956 -16.788   3.379  1.00  0.00     0.061 A 
HETATM    4  C   UNL     1      43.672 -16.953   4.558  1.00  0.00     0.075 A 
HETATM    5  N   UNL     1      43.718 -15.966   5.543  1.00  0.00    -0.223 NA
HETATM    6  C   UNL     1      43.171 -14.816   5.301  1.00  0.00     0.177 A 
HETATM    7  N   UNL     1      42.521 -14.490   4.108  1.00  0.00    -0.256 N 
HETATM    8  C   UNL     1      42.329 -15.478   3.130  1.00  0.00     0.267 A 
HETATM    9  O   UNL     1      41.724 -15.330   2.070  1.00  0.00    -0.267 OA
HETATM   10  C   UNL     1      44.330 -18.165   4.789  1.00  0.00     0.032 A 
HETATM   11  C   UNL     1      44.252 -19.204   3.858  1.00  0.00     0.002 A 
ENDROOT
BRANCH   6  12
HETATM   12  S   UNL     1      43.134 -13.681   6.648  1.00  0.00    -0.082 SA
BRANCH  12  13
HETATM   13  C   UNL     1      44.666 -12.738   6.397  1.00  0.00     0.185 C 
BRANCH  13  14
HETATM   14  C   UNL     1      44.699 -11.460   7.228  1.00  0.00     0.231 C 
HETATM   15  N   UNL     1      43.621 -11.324   8.082  1.00  0.00    -0.326 N 
HETATM   16  H   UNL     1      42.895 -12.032   7.981  1.00  0.00     0.169 HD
HETATM   17  O   UNL     1      45.647 -10.683   7.141  1.00  0.00    -0.272 OA
BRANCH  15  18
HETATM   18  C   UNL     1      43.387 -10.321   9.042  1.00  0.00     0.037 A 
HETATM   19  C   UNL     1      42.549  -9.220   8.824  1.00  0.00     0.061 A 
HETATM   20  C   UNL     1      42.449  -8.299   9.842  1.00  0.00     0.065 A 
HETATM   21  C   UNL     1      43.133  -8.438  11.048  1.00  0.00     0.063 A 
HETATM   22  N   UNL     1      41.719  -7.117   9.901  1.00  0.00    -0.306 N 
HETATM   23  N   UNL     1      42.824  -7.344  11.847  1.00  0.00    -0.307 N 
HETATM   24  C   UNL     1      43.952  -9.507  11.302  1.00  0.00     0.034 A 
HETATM   25  C   UNL     1      41.944  -6.508  11.143  1.00  0.00     0.325 A 
HETATM   26  H   UNL     1      43.158  -7.146  12.775  1.00  0.00     0.170 HD
HETATM   27  O   UNL     1      41.472  -5.457  11.538  1.00  0.00    -0.247 OA
HETATM   28  C   UNL     1      44.075 -10.455  10.279  1.00  0.00     0.032 A 
HETATM   29  H   UNL     1      41.123  -6.735   9.184  1.00  0.00     0.170 HD
ENDBRANCH  15  18
ENDBRANCH  13  14
ENDBRANCH  12  13
ENDBRANCH   6  12
BRANCH   7  30
HETATM   30  C   UNL     1      42.080 -13.159   3.788  1.00  0.00     0.046 A 
HETATM   31  C   UNL     1      40.795 -12.723   4.153  1.00  0.00     0.057 A 
HETATM   32  C   UNL     1      40.351 -11.446   3.801  1.00  0.00     0.074 A 
HETATM   33 CL   UNL     1      38.776 -10.936   4.274  1.00  0.00    -0.081 Cl
HETATM   34  C   UNL     1      41.180 -10.598   3.073  1.00  0.00     0.138 A 
HETATM   35  F   UNL     1      40.772  -9.371   2.721  1.00  0.00    -0.204 F 
HETATM   36  C   UNL     1      42.450 -11.015   2.688  1.00  0.00     0.046 A 
HETATM   37  C   UNL     1      42.896 -12.292   3.040  1.00  0.00     0.033 A 
ENDBRANCH   7  30
TORSDOF 5
ENDMDL
MODEL 5
REMARK VINA RESULT:      -9.2      1.691      2.040
REMARK  5 active torsions:
REMARK  status: ('A' for Active; 'I' for Inactive)
REMARK    1  A    between atoms: C_6  and  S_7 
REMARK    2  A    between atoms: S_7  and  C_8 
REMARK    3  A    between atoms: C_8  and  C_9 
REMARK       I    between atoms: C_9  and  N_10 
REMARK    4  A    between atoms: N_10  and  C_11 
REMARK    5  A    between atoms: N_22  and  C_23 
ROOT
HETATM    1  C   UNL     1      44.086 -20.757   4.808  1.00  0.00     0.001 A 
HETATM    2  C   UNL     1      43.938 -19.514   5.422  1.00  0.00     0.019 A 
HETATM    3  C   UNL     1      43.660 -18.383   4.643  1.00  0.00     0.061 A 
HETATM    4  C   UNL     1      43.537 -18.483   3.262  1.00  0.00     0.075 A 
HETATM    5  N   UNL     1      43.330 -17.365   2.453  1.00  0.00    -0.223 NA
HETATM    6  C   UNL     1      43.131 -16.215   3.015  1.00  0.00     0.177 A 
HETATM    7  N   UNL     1      43.117 -16.006   4.397  1.00  0.00    -0.256 N 
HETATM    8  C   UNL     1      43.446 -17.062   5.261  1.00  0.00     0.267 A 
HETATM    9  O   UNL     1      43.524 -16.989   6.486  1.00  0.00    -0.267 OA
HETATM   10  C   UNL     1      43.673 -19.736   2.658  1.00  0.00     0.032 A 
HETATM   11  C   UNL     1      43.949 -20.870   3.426  1.00  0.00     0.002 A 
ENDROOT
BRANCH   6  12
HETATM   12  S   UNL     1      43.034 -14.832   1.928  1.00  0.00    -0.082 SA
BRANCH  12  13
HETATM   13  C   UNL     1      41.397 -15.053   1.171  1.00  0.00     0.185 C 
BRANCH  13  14
HETATM   14  C   UNL     1      40.859 -13.758   0.572  1.00  0.00     0.231 C 
HETATM   15  N   UNL     1      39.564 -13.861   0.101  1.00  0.00    -0.326 N 
HETATM   16  H   UNL     1      39.168 -14.800   0.118  1.00  0.00     0.169 HD
HETATM   17  O   UNL     1      41.540 -12.736   0.580  1.00  0.00    -0.272 OA
BRANCH  15  18
HETATM   18  C   UNL     1      38.742 -12.845  -0.425  1.00  0.00     0.037 A 
HETATM   19  C   UNL     1      38.298 -12.818  -1.753  1.00  0.00     0.061 A 
HETATM   20  C   UNL     1      37.532 -11.740  -2.133  1.00  0.00     0.065 A 
HETATM   21  C   UNL     1      37.193 -10.713  -1.255  1.00  0.00     0.063 A 
HETATM   22  N   UNL     1      36.975 -11.440  -3.373  1.00  0.00    -0.306 N 
HETATM   23  N   UNL     1      36.429  -9.784  -1.951  1.00  0.00    -0.307 N 
HETATM   24  C   UNL     1      37.599 -10.711   0.054  1.00  0.00     0.034 A 
HETATM   25  C   UNL     1      36.287 -10.223  -3.276  1.00  0.00     0.325 A 
HETATM   26  H   UNL     1      36.033  -8.929  -1.601  1.00  0.00     0.170 HD
HETATM   27  O   UNL     1      35.683  -9.652  -4.167  1.00  0.00    -0.247 OA
HETATM   28  C   UNL     1      38.385 -11.795   0.465  1.00  0.00     0.032 A 
HETATM   29  H   UNL     1      37.042 -11.986  -4.216  1.00  0.00     0.170 HD
ENDBRANCH  15  18
ENDBRANCH  13  14
ENDBRANCH  12  13
ENDBRANCH   6  12
BRANCH   7  30
HETATM   30  C   UNL     1      42.718 -14.765   5.003  1.00  0.00     0.046 A 
HETATM   31  C   UNL     1      41.367 -14.380   5.025  1.00  0.00     0.057 A 
HETATM   32  C   UNL     1      40.986 -13.153   5.573  1.00  0.00     0.074 A 
HETATM   33 CL   UNL     1      39.321 -12.715   5.597  1.00  0.00    -0.081 Cl
HETATM   34  C   UNL     1      41.950 -12.295   6.092  1.00  0.00     0.138 A 
HETATM   35  F   UNL     1      41.607 -11.109   6.617  1.00  0.00    -0.204 F 
HETATM   36  C   UNL     1      43.295 -12.648   6.066  1.00  0.00     0.046 A 
HETATM   37  C   UNL     1      43.678 -13.876   5.519  1.00  0.00     0.033 A 
ENDBRANCH   7  30
TORSDOF 5
ENDMDL
MODEL 6
REMARK VINA RESULT:      -9.2      3.852      6.360
REMARK  5 active torsions:
REMARK  status: ('A' for Active; 'I' for Inactive)
REMARK    1  A    between atoms: C_6  and  S_7 
REMARK    2  A    between atoms: S_7  and  C_8 
REMARK    3  A    between atoms: C_8  and  C_9 
REMARK       I    between atoms: C_9  and  N_10 
REMARK    4  A    between atoms: N_10  and  C_11 
REMARK    5  A    between atoms: N_22  and  C_23 
ROOT
HETATM    1  C   UNL     1      45.593  -9.474   8.626  1.00  0.00     0.001 A 
HETATM    2  C   UNL     1      45.308 -10.716   8.059  1.00  0.00     0.019 A 
HETATM    3  C   UNL     1      44.048 -10.949   7.493  1.00  0.00     0.061 A 
HETATM    4  C   UNL     1      43.073  -9.959   7.495  1.00  0.00     0.075 A 
HETATM    5  N   UNL     1      41.787 -10.183   7.002  1.00  0.00    -0.223 NA
HETATM    6  C   UNL     1      41.529 -11.312   6.420  1.00  0.00     0.177 A 
HETATM    7  N   UNL     1      42.458 -12.342   6.254  1.00  0.00    -0.256 N 
HETATM    8  C   UNL     1      43.728 -12.231   6.840  1.00  0.00     0.267 A 
HETATM    9  O   UNL     1      44.607 -13.090   6.814  1.00  0.00    -0.267 OA
HETATM   10  C   UNL     1      43.373  -8.712   8.051  1.00  0.00     0.032 A 
HETATM   11  C   UNL     1      44.627  -8.469   8.617  1.00  0.00     0.002 A 
ENDROOT
BRANCH   6  12
HETATM   12  S   UNL     1      39.847 -11.578   5.966  1.00  0.00    -0.082 SA
BRANCH  12  13
HETATM   13  C   UNL     1      39.421 -10.016   5.141  1.00  0.00     0.185 C 
BRANCH  13  14
HETATM   14  C   UNL     1      39.294 -10.179   3.630  1.00  0.00     0.231 C 
HETATM   15  N   UNL     1      40.190 -11.082   3.091  1.00  0.00    -0.326 N 
HETATM   16  H   UNL     1      40.884 -11.448   3.743  1.00  0.00     0.169 HD
HETATM   17  O   UNL     1      38.423  -9.575   3.008  1.00  0.00    -0.272 OA
BRANCH  15  18
HETATM   18  C   UNL     1      40.285 -11.531   1.760  1.00  0.00     0.037 A 
HETATM   19  C   UNL     1      39.538 -12.599   1.247  1.00  0.00     0.061 A 
HETATM   20  C   UNL     1      39.768 -12.950  -0.064  1.00  0.00     0.065 A 
HETATM   21  C   UNL     1      40.691 -12.285  -0.867  1.00  0.00     0.063 A 
HETATM   22  N   UNL     1      39.196 -13.965  -0.824  1.00  0.00    -0.306 N 
HETATM   23  N   UNL     1      40.686 -12.887  -2.119  1.00  0.00    -0.307 N 
HETATM   24  C   UNL     1      41.432 -11.229  -0.404  1.00  0.00     0.034 A 
HETATM   25  C   UNL     1      39.760 -13.940  -2.108  1.00  0.00     0.325 A 
HETATM   26  H   UNL     1      41.243 -12.642  -2.921  1.00  0.00     0.170 HD
HETATM   27  O   UNL     1      39.501 -14.687  -3.034  1.00  0.00    -0.247 OA
HETATM   28  C   UNL     1      41.220 -10.855   0.929  1.00  0.00     0.032 A 
HETATM   29  H   UNL     1      38.494 -14.623  -0.528  1.00  0.00     0.170 HD
ENDBRANCH  15  18
ENDBRANCH  13  14
ENDBRANCH  12  13
ENDBRANCH   6  12
BRANCH   7  30
HETATM   30  C   UNL     1      42.207 -13.509   5.452  1.00  0.00     0.046 A 
HETATM   31  C   UNL     1      42.509 -13.513   4.079  1.00  0.00     0.057 A 
HETATM   32  C   UNL     1      42.222 -14.630   3.292  1.00  0.00     0.074 A 
HETATM   33 CL   UNL     1      42.617 -14.609   1.616  1.00  0.00    -0.081 Cl
HETATM   34  C   UNL     1      41.621 -15.747   3.863  1.00  0.00     0.138 A 
HETATM   35  F   UNL     1      41.332 -16.827   3.123  1.00  0.00    -0.204 F 
HETATM   36  C   UNL     1      41.299 -15.759   5.215  1.00  0.00     0.046 A 
HETATM   37  C   UNL     1      41.586 -14.642   6.006  1.00  0.00     0.033 A 
ENDBRANCH   7  30
TORSDOF 5
ENDMDL
MODEL 7
REMARK VINA RESULT:      -9.1      6.704     11.427
REMARK  5 active torsions:
REMARK  status: ('A' for Active; 'I' for Inactive)
REMARK    1  A    between atoms: C_6  and  S_7 
REMARK    2  A    between atoms: S_7  and  C_8 
REMARK    3  A    between atoms: C_8  and  C_9 
REMARK       I    between atoms: C_9  and  N_10 
REMARK    4  A    between atoms: N_10  and  C_11 
REMARK    5  A    between atoms: N_22  and  C_23 
ROOT
HETATM    1  C   UNL     1      46.222  -9.706   8.421  1.00  0.00     0.001 A 
HETATM    2  C   UNL     1      45.666 -10.835   7.819  1.00  0.00     0.019 A 
HETATM    3  C   UNL     1      44.324 -10.818   7.419  1.00  0.00     0.061 A 
HETATM    4  C   UNL     1      43.535  -9.692   7.619  1.00  0.00     0.075 A 
HETATM    5  N   UNL     1      42.178  -9.668   7.294  1.00  0.00    -0.223 NA
HETATM    6  C   UNL     1      41.665 -10.688   6.682  1.00  0.00     0.177 A 
HETATM    7  N   UNL     1      42.381 -11.833   6.323  1.00  0.00    -0.256 N 
HETATM    8  C   UNL     1      43.715 -11.973   6.734  1.00  0.00     0.267 A 
HETATM    9  O   UNL     1      44.429 -12.954   6.532  1.00  0.00    -0.267 OA
HETATM   10  C   UNL     1      44.106  -8.560   8.208  1.00  0.00     0.032 A 
HETATM   11  C   UNL     1      45.444  -8.566   8.610  1.00  0.00     0.002 A 
ENDROOT
BRANCH   6  12
HETATM   12  S   UNL     1      39.918 -10.647   6.448  1.00  0.00    -0.082 SA
BRANCH  12  13
HETATM   13  C   UNL     1      39.428  -9.228   7.471  1.00  0.00     0.185 C 
BRANCH  13  14
HETATM   14  C   UNL     1      39.508  -9.537   8.962  1.00  0.00     0.231 C 
HETATM   15  N   UNL     1      40.575  -8.932   9.597  1.00  0.00    -0.326 N 
HETATM   16  H   UNL     1      41.228  -8.444   8.984  1.00  0.00     0.169 HD
HETATM   17  O   UNL     1      38.646 -10.224   9.504  1.00  0.00    -0.272 OA
BRANCH  15  18
HETATM   18  C   UNL     1      40.891  -8.933  10.970  1.00  0.00     0.037 A 
HETATM   19  C   UNL     1      40.239  -8.131  11.915  1.00  0.00     0.061 A 
HETATM   20  C   UNL     1      40.684  -8.211  13.216  1.00  0.00     0.065 A 
HETATM   21  C   UNL     1      41.728  -9.049  13.601  1.00  0.00     0.063 A 
HETATM   22  N   UNL     1      40.246  -7.529  14.346  1.00  0.00    -0.306 N 
HETATM   23  N   UNL     1      41.931  -8.884  14.965  1.00  0.00    -0.307 N 
HETATM   24  C   UNL     1      42.381  -9.856  12.707  1.00  0.00     0.034 A 
HETATM   25  C   UNL     1      41.016  -7.936  15.445  1.00  0.00     0.325 A 
HETATM   26  H   UNL     1      42.613  -9.345  15.545  1.00  0.00     0.170 HD
HETATM   27  O   UNL     1      40.914  -7.544  16.594  1.00  0.00    -0.247 OA
HETATM   28  C   UNL     1      41.951  -9.789  11.375  1.00  0.00     0.032 A 
HETATM   29  H   UNL     1      39.505  -6.849  14.397  1.00  0.00     0.170 HD
ENDBRANCH  15  18
ENDBRANCH  13  14
ENDBRANCH  12  13
ENDBRANCH   6  12
BRANCH   7  30
HETATM   30  C   UNL     1      41.841 -12.872   5.489  1.00  0.00     0.046 A 
HETATM   31  C   UNL     1      41.277 -14.027   6.058  1.00  0.00     0.057 A 
HETATM   32  C   UNL     1      40.794 -15.057   5.247  1.00  0.00     0.074 A 
HETATM   33 CL   UNL     1      40.097 -16.453   5.974  1.00  0.00    -0.081 Cl
HETATM   34  C   UNL     1      40.881 -14.948   3.863  1.00  0.00     0.138 A 
HETATM   35  F   UNL     1      40.429 -15.928   3.065  1.00  0.00    -0.204 F 
HETATM   36  C   UNL     1      41.450 -13.822   3.278  1.00  0.00     0.046 A 
HETATM   37  C   UNL     1      41.932 -12.790   4.089  1.00  0.00     0.033 A 
ENDBRANCH   7  30
TORSDOF 5
ENDMDL
MODEL 8
REMARK VINA RESULT:      -9.0      5.759      8.670
REMARK  5 active torsions:
REMARK  status: ('A' for Active; 'I' for Inactive)
REMARK    1  A    between atoms: C_6  and  S_7 
REMARK    2  A    between atoms: S_7  and  C_8 
REMARK    3  A    between atoms: C_8  and  C_9 
REMARK       I    between atoms: C_9  and  N_10 
REMARK    4  A    between atoms: N_10  and  C_11 
REMARK    5  A    between atoms: N_22  and  C_23 
ROOT
HETATM    1  C   UNL     1      46.353 -10.963   7.187  1.00  0.00     0.001 A 
HETATM    2  C   UNL     1      45.685 -10.315   8.226  1.00  0.00     0.019 A 
HETATM    3  C   UNL     1      44.312 -10.061   8.117  1.00  0.00     0.061 A 
HETATM    4  C   UNL     1      43.606 -10.439   6.982  1.00  0.00     0.075 A 
HETATM    5  N   UNL     1      42.254 -10.137   6.814  1.00  0.00    -0.223 NA
HETATM    6  C   UNL     1      41.610  -9.590   7.796  1.00  0.00     0.177 A 
HETATM    7  N   UNL     1      42.181  -9.266   9.029  1.00  0.00    -0.256 N 
HETATM    8  C   UNL     1      43.563  -9.424   9.216  1.00  0.00     0.267 A 
HETATM    9  O   UNL     1      44.189  -9.122  10.230  1.00  0.00    -0.267 OA
HETATM   10  C   UNL     1      44.281 -11.100   5.952  1.00  0.00     0.032 A 
HETATM   11  C   UNL     1      45.650 -11.360   6.052  1.00  0.00     0.002 A 
ENDROOT
BRANCH   6  12
HETATM   12  S   UNL     1      39.952  -9.099   7.451  1.00  0.00    -0.082 SA
BRANCH  12  13
HETATM   13  C   UNL     1      39.068 -10.686   7.481  1.00  0.00     0.185 C 
BRANCH  13  14
HETATM   14  C   UNL     1      39.472 -11.593   6.324  1.00  0.00     0.231 C 
HETATM   15  N   UNL     1      40.304 -12.632   6.696  1.00  0.00    -0.326 N 
HETATM   16  H   UNL     1      40.624 -12.608   7.664  1.00  0.00     0.169 HD
HETATM   17  O   UNL     1      39.027 -11.400   5.195  1.00  0.00    -0.272 OA
BRANCH  15  18
HETATM   18  C   UNL     1      40.787 -13.692   5.905  1.00  0.00     0.037 A 
HETATM   19  C   UNL     1      41.655 -13.516   4.821  1.00  0.00     0.061 A 
HETATM   20  C   UNL     1      42.010 -14.644   4.115  1.00  0.00     0.065 A 
HETATM   21  C   UNL     1      41.547 -15.915   4.450  1.00  0.00     0.063 A 
HETATM   22  N   UNL     1      42.830 -14.771   2.999  1.00  0.00    -0.306 N 
HETATM   23  N   UNL     1      42.082 -16.821   3.542  1.00  0.00    -0.307 N 
HETATM   24  C   UNL     1      40.707 -16.127   5.511  1.00  0.00     0.034 A 
HETATM   25  C   UNL     1      42.883 -16.122   2.628  1.00  0.00     0.325 A 
HETATM   26  H   UNL     1      41.937 -17.816   3.511  1.00  0.00     0.170 HD
HETATM   27  O   UNL     1      43.500 -16.599   1.693  1.00  0.00    -0.247 OA
HETATM   28  C   UNL     1      40.325 -14.994   6.242  1.00  0.00     0.032 A 
HETATM   29  H   UNL     1      43.315 -14.033   2.514  1.00  0.00     0.170 HD
ENDBRANCH  15  18
ENDBRANCH  13  14
ENDBRANCH  12  13
ENDBRANCH   6  12
BRANCH   7  30
HETATM   30  C   UNL     1      41.414  -8.827  10.163  1.00  0.00     0.046 A 
HETATM   31  C   UNL     1      40.854  -9.760  11.053  1.00  0.00     0.057 A 
HETATM   32  C   UNL     1      40.070  -9.334  12.128  1.00  0.00     0.074 A 
HETATM   33 CL   UNL     1      39.410 -10.500  13.209  1.00  0.00    -0.081 Cl
HETATM   34  C   UNL     1      39.828  -7.978  12.317  1.00  0.00     0.138 A 
HETATM   35  F   UNL     1      39.073  -7.548  13.339  1.00  0.00    -0.204 F 
HETATM   36  C   UNL     1      40.358  -7.038  11.440  1.00  0.00     0.046 A 
HETATM   37  C   UNL     1      41.144  -7.462  10.364  1.00  0.00     0.033 A 
ENDBRANCH   7  30
TORSDOF 5
ENDMDL
MODEL 9
REMARK VINA RESULT:      -9.0      4.401      9.237
REMARK  5 active torsions:
REMARK  status: ('A' for Active; 'I' for Inactive)
REMARK    1  A    between atoms: C_6  and  S_7 
REMARK    2  A    between atoms: S_7  and  C_8 
REMARK    3  A    between atoms: C_8  and  C_9 
REMARK       I    between atoms: C_9  and  N_10 
REMARK    4  A    between atoms: N_10  and  C_11 
REMARK    5  A    between atoms: N_22  and  C_23 
ROOT
HETATM    1  C   UNL     1      39.009 -14.105  -2.105  1.00  0.00     0.001 A 
HETATM    2  C   UNL     1      39.442 -14.874  -1.026  1.00  0.00     0.019 A 
HETATM    3  C   UNL     1      40.206 -14.282  -0.012  1.00  0.00     0.061 A 
HETATM    4  C   UNL     1      40.547 -12.936  -0.072  1.00  0.00     0.075 A 
HETATM    5  N   UNL     1      41.365 -12.334   0.886  1.00  0.00    -0.223 NA
HETATM    6  C   UNL     1      41.723 -13.023   1.923  1.00  0.00     0.177 A 
HETATM    7  N   UNL     1      41.351 -14.350   2.154  1.00  0.00    -0.256 N 
HETATM    8  C   UNL     1      40.638 -15.051   1.169  1.00  0.00     0.267 A 
HETATM    9  O   UNL     1      40.305 -16.233   1.229  1.00  0.00    -0.267 OA
HETATM   10  C   UNL     1      40.096 -12.169  -1.150  1.00  0.00     0.032 A 
HETATM   11  C   UNL     1      39.332 -12.750  -2.165  1.00  0.00     0.002 A 
ENDROOT
BRANCH   6  12
HETATM   12  S   UNL     1      42.879 -12.245   3.003  1.00  0.00    -0.082 SA
BRANCH  12  13
HETATM   13  C   UNL     1      41.825 -11.082   3.918  1.00  0.00     0.185 C 
BRANCH  13  14
HETATM   14  C   UNL     1      42.027 -11.184   5.425  1.00  0.00     0.231 C 
HETATM   15  N   UNL     1      43.031 -10.365   5.908  1.00  0.00    -0.326 N 
HETATM   16  H   UNL     1      43.574  -9.877   5.196  1.00  0.00     0.169 HD
HETATM   17  O   UNL     1      41.302 -11.905   6.106  1.00  0.00    -0.272 OA
BRANCH  15  18
HETATM   18  C   UNL     1      43.416 -10.149   7.245  1.00  0.00     0.037 A 
HETATM   19  C   UNL     1      42.646  -9.426   8.165  1.00  0.00     0.061 A 
HETATM   20  C   UNL     1      43.172  -9.263   9.428  1.00  0.00     0.065 A 
HETATM   21  C   UNL     1      44.406  -9.790   9.800  1.00  0.00     0.063 A 
HETATM   22  N   UNL     1      42.650  -8.587  10.525  1.00  0.00    -0.306 N 
HETATM   23  N   UNL     1      44.642  -9.441  11.124  1.00  0.00    -0.307 N 
HETATM   24  C   UNL     1      45.181 -10.513   8.931  1.00  0.00     0.034 A 
HETATM   25  C   UNL     1      43.556  -8.686  11.590  1.00  0.00     0.325 A 
HETATM   26  H   UNL     1      45.447  -9.667  11.684  1.00  0.00     0.170 HD
HETATM   27  O   UNL     1      43.430  -8.210  12.704  1.00  0.00    -0.247 OA
HETATM   28  C   UNL     1      44.671 -10.688   7.638  1.00  0.00     0.032 A 
HETATM   29  H   UNL     1      41.772  -8.096  10.575  1.00  0.00     0.170 HD
ENDBRANCH  15  18
ENDBRANCH  13  14
ENDBRANCH  12  13
ENDBRANCH   6  12
BRANCH   7  30
HETATM   30  C   UNL     1      41.606 -15.037   3.390  1.00  0.00     0.046 A 
HETATM   31  C   UNL     1      42.722 -15.882   3.523  1.00  0.00     0.057 A 
HETATM   32  C   UNL     1      42.944 -16.585   4.709  1.00  0.00     0.074 A 
HETATM   33 CL   UNL     1      44.327 -17.602   4.846  1.00  0.00    -0.081 Cl
HETATM   34  C   UNL     1      42.050 -16.462   5.768  1.00  0.00     0.138 A 
HETATM   35  F   UNL     1      42.241 -17.133   6.913  1.00  0.00    -0.204 F 
HETATM   36  C   UNL     1      40.931 -15.645   5.653  1.00  0.00     0.046 A 
HETATM   37  C   UNL     1      40.707 -14.939   4.467  1.00  0.00     0.033 A 
ENDBRANCH   7  30
TORSDOF 5
ENDMDL
MODEL 10
REMARK VINA RESULT:      -9.0      3.138      3.700
REMARK  5 active torsions:
REMARK  status: ('A' for Active; 'I' for Inactive)
REMARK    1  A    between atoms: C_6  and  S_7 
REMARK    2  A    between atoms: S_7  and  C_8 
REMARK    3  A    between atoms: C_8  and  C_9 
REMARK       I    between atoms: C_9  and  N_10 
REMARK    4  A    between atoms: N_10  and  C_11 
REMARK    5  A    between atoms: N_22  and  C_23 
ROOT
HETATM    1  C   UNL     1      44.043 -20.840   4.810  1.00  0.00     0.001 A 
HETATM    2  C   UNL     1      43.891 -19.600   5.429  1.00  0.00     0.019 A 
HETATM    3  C   UNL     1      43.664 -18.457   4.651  1.00  0.00     0.061 A 
HETATM    4  C   UNL     1      43.595 -18.542   3.266  1.00  0.00     0.075 A 
HETATM    5  N   UNL     1      43.440 -17.413   2.460  1.00  0.00    -0.223 NA
HETATM    6  C   UNL     1      43.239 -16.265   3.025  1.00  0.00     0.177 A 
HETATM    7  N   UNL     1      43.173 -16.069   4.407  1.00  0.00    -0.256 N 
HETATM    8  C   UNL     1      43.449 -17.138   5.273  1.00  0.00     0.267 A 
HETATM    9  O   UNL     1      43.479 -17.078   6.501  1.00  0.00    -0.267 OA
HETATM   10  C   UNL     1      43.733 -19.792   2.655  1.00  0.00     0.032 A 
HETATM   11  C   UNL     1      43.958 -20.937   3.422  1.00  0.00     0.002 A 
ENDROOT
BRANCH   6  12
HETATM   12  S   UNL     1      43.209 -14.870   1.948  1.00  0.00    -0.082 SA
BRANCH  12  13
HETATM   13  C   UNL     1      41.533 -14.958   1.254  1.00  0.00     0.185 C 
BRANCH  13  14
HETATM   14  C   UNL     1      40.929 -13.576   1.028  1.00  0.00     0.231 C 
HETATM   15  N   UNL     1      40.064 -13.178   2.030  1.00  0.00    -0.326 N 
HETATM   16  H   UNL     1      39.858 -13.886   2.734  1.00  0.00     0.169 HD
HETATM   17  O   UNL     1      41.257 -12.902   0.055  1.00  0.00    -0.272 OA
BRANCH  15  18
HETATM   18  C   UNL     1      39.411 -11.939   2.180  1.00  0.00     0.037 A 
HETATM   19  C   UNL     1      39.869 -10.919   3.024  1.00  0.00     0.061 A 
HETATM   20  C   UNL     1      39.102  -9.778   3.097  1.00  0.00     0.065 A 
HETATM   21  C   UNL     1      37.925  -9.617   2.370  1.00  0.00     0.063 A 
HETATM   22  N   UNL     1      39.296  -8.626   3.853  1.00  0.00    -0.306 N 
HETATM   23  N   UNL     1      37.396  -8.369   2.676  1.00  0.00    -0.307 N 
HETATM   24  C   UNL     1      37.453 -10.588   1.526  1.00  0.00     0.034 A 
HETATM   25  C   UNL     1      38.239  -7.739   3.603  1.00  0.00     0.325 A 
HETATM   26  H   UNL     1      36.552  -7.956   2.318  1.00  0.00     0.170 HD
HETATM   27  O   UNL     1      38.079  -6.637   4.095  1.00  0.00    -0.247 OA
HETATM   28  C   UNL     1      38.212 -11.762   1.438  1.00  0.00     0.032 A 
HETATM   29  H   UNL     1      40.056  -8.435   4.485  1.00  0.00     0.170 HD
ENDBRANCH  15  18
ENDBRANCH  13  14
ENDBRANCH  12  13
ENDBRANCH   6  12
BRANCH   7  30
HETATM   30  C   UNL     1      42.772 -14.827   5.009  1.00  0.00     0.046 A 
HETATM   31  C   UNL     1      41.412 -14.492   5.125  1.00  0.00     0.057 A 
HETATM   32  C   UNL     1      41.025 -13.265   5.667  1.00  0.00     0.074 A 
HETATM   33 CL   UNL     1      39.350 -12.890   5.807  1.00  0.00    -0.081 Cl
HETATM   34  C   UNL     1      41.991 -12.356   6.088  1.00  0.00     0.138 A 
HETATM   35  F   UNL     1      41.641 -11.170   6.607  1.00  0.00    -0.204 F 
HETATM   36  C   UNL     1      43.342 -12.659   5.969  1.00  0.00     0.046 A 
HETATM   37  C   UNL     1      43.732 -13.888   5.427  1.00  0.00     0.033 A 
ENDBRANCH   7  30
TORSDOF 5
ENDMDL
