MODEL 1
REMARK VINA RESULT:      -8.5      0.000      0.000
REMARK  6 active torsions:
REMARK  status: ('A' for Active; 'I' for Inactive)
REMARK    1  A    between atoms: O_2  and  C_3 
REMARK    2  A    between atoms: C_4  and  C_5 
REMARK    3  A    between atoms: C_5  and  N_6 
REMARK    4  A    between atoms: N_6  and  C_7 
REMARK    5  A    between atoms: C_9  and  N_10 
REMARK    6  A    between atoms: N_10  and  C_11 
ROOT
HETATM    1  C   UNL     1      41.295 -16.265   2.582  1.00  0.00     0.181 A 
HETATM    2  N   UNL     1      40.735 -15.584   1.578  1.00  0.00    -0.207 NA
HETATM    3  C   UNL     1      40.121 -14.423   1.865  1.00  0.00     0.119 A 
HETATM    4  C   UNL     1      40.063 -13.929   3.187  1.00  0.00     0.031 A 
HETATM    5  C   UNL     1      40.672 -14.712   4.190  1.00  0.00     0.048 A 
HETATM    6  N   UNL     1      41.280 -15.854   3.846  1.00  0.00    -0.330 N 
HETATM    7  H   UNL     1      41.793 -16.410   4.520  1.00  0.00     0.168 HD
HETATM    8  C   UNL     1      39.464 -12.707   3.571  1.00  0.00     0.017 A 
HETATM    9  C   UNL     1      39.457 -12.297   4.907  1.00  0.00     0.001 A 
HETATM   10  C   UNL     1      40.051 -13.091   5.884  1.00  0.00     0.002 A 
HETATM   11  C   UNL     1      40.663 -14.293   5.530  1.00  0.00     0.030 A 
ENDROOT
BRANCH   1  12
HETATM   12  N   UNL     1      42.003 -17.397   2.237  1.00  0.00    -0.258 NA
HETATM   13  H   UNL     1      41.473 -18.187   2.612  1.00  0.00     0.130 HD
BRANCH  12  14
HETATM   14  C   UNL     1      43.411 -17.476   2.619  1.00  0.00     0.136 C 
BRANCH  14  15
HETATM   15  C   UNL     1      43.674 -18.676   3.503  1.00  0.00    -0.012 A 
HETATM   16  C   UNL     1      43.680 -18.517   4.904  1.00  0.00     0.075 A 
HETATM   17  C   UNL     1      43.859 -19.629   5.735  1.00  0.00     0.037 A 
HETATM   18  C   UNL     1      44.004 -20.904   5.187  1.00  0.00     0.003 A 
HETATM   19  C   UNL     1      43.973 -21.077   3.809  1.00  0.00     0.001 A 
HETATM   20  C   UNL     1      43.804 -19.974   2.973  1.00  0.00     0.011 A 
BRANCH  16  21
HETATM   21  O   UNL     1      43.521 -17.233   5.362  1.00  0.00    -0.355 OA
HETATM   22  C   UNL     1      43.088 -17.096   6.715  1.00  0.00     0.210 C 
ENDBRANCH  16  21
ENDBRANCH  14  15
ENDBRANCH  12  14
ENDBRANCH   1  12
BRANCH   3  23
HETATM   23  N   UNL     1      39.600 -13.660   0.812  1.00  0.00    -0.272 NA
HETATM   24  H   UNL     1      38.586 -13.747   0.775  1.00  0.00     0.129 HD
BRANCH  23  25
HETATM   25  C   UNL     1      40.198 -13.835  -0.513  1.00  0.00     0.061 C 
HETATM   26  C   UNL     1      39.160 -14.380  -1.492  1.00  0.00     0.020 C 
HETATM   27  C   UNL     1      39.771 -14.070  -2.848  1.00  0.00     0.002 C 
HETATM   28  C   UNL     1      40.443 -12.713  -2.670  1.00  0.00     0.002 C 
HETATM   29  C   UNL     1      40.600 -12.507  -1.163  1.00  0.00     0.020 C 
ENDBRANCH  23  25
ENDBRANCH   3  23
TORSDOF 6
ENDMDL
MODEL 2
REMARK VINA RESULT:      -8.5      2.201      6.011
REMARK  6 active torsions:
REMARK  status: ('A' for Active; 'I' for Inactive)
REMARK    1  A    between atoms: O_2  and  C_3 
REMARK    2  A    between atoms: C_4  and  C_5 
REMARK    3  A    between atoms: C_5  and  N_6 
REMARK    4  A    between atoms: N_6  and  C_7 
REMARK    5  A    between atoms: C_9  and  N_10 
REMARK    6  A    between atoms: N_10  and  C_11 
ROOT
HETATM    1  C   UNL     1      43.931 -16.747   5.579  1.00  0.00     0.181 A 
HETATM    2  N   UNL     1      43.574 -16.128   4.449  1.00  0.00    -0.207 NA
HETATM    3  C   UNL     1      43.388 -16.876   3.349  1.00  0.00     0.119 A 
HETATM    4  C   UNL     1      43.563 -18.277   3.373  1.00  0.00     0.031 A 
HETATM    5  C   UNL     1      43.947 -18.852   4.602  1.00  0.00     0.048 A 
HETATM    6  N   UNL     1      44.107 -18.061   5.671  1.00  0.00    -0.330 N 
HETATM    7  H   UNL     1      44.311 -18.439   6.589  1.00  0.00     0.168 HD
HETATM    8  C   UNL     1      43.360 -19.140   2.271  1.00  0.00     0.017 A 
HETATM    9  C   UNL     1      43.557 -20.518   2.390  1.00  0.00     0.001 A 
HETATM   10  C   UNL     1      43.950 -21.065   3.608  1.00  0.00     0.002 A 
HETATM   11  C   UNL     1      44.141 -20.238   4.715  1.00  0.00     0.030 A 
ENDROOT
BRANCH   1  12
HETATM   12  N   UNL     1      44.013 -15.963   6.710  1.00  0.00    -0.258 NA
HETATM   13  H   UNL     1      44.618 -16.469   7.361  1.00  0.00     0.130 HD
BRANCH  12  14
HETATM   14  C   UNL     1      42.770 -15.549   7.357  1.00  0.00     0.136 C 
BRANCH  14  15
HETATM   15  C   UNL     1      42.114 -14.408   6.609  1.00  0.00    -0.012 A 
HETATM   16  C   UNL     1      42.837 -13.217   6.390  1.00  0.00     0.075 A 
HETATM   17  C   UNL     1      42.267 -12.179   5.645  1.00  0.00     0.037 A 
HETATM   18  C   UNL     1      40.995 -12.323   5.091  1.00  0.00     0.003 A 
HETATM   19  C   UNL     1      40.283 -13.502   5.277  1.00  0.00     0.001 A 
HETATM   20  C   UNL     1      40.840 -14.539   6.025  1.00  0.00     0.011 A 
BRANCH  16  21
HETATM   21  O   UNL     1      44.084 -13.160   6.960  1.00  0.00    -0.355 OA
HETATM   22  C   UNL     1      44.808 -11.945   6.770  1.00  0.00     0.210 C 
ENDBRANCH  16  21
ENDBRANCH  14  15
ENDBRANCH  12  14
ENDBRANCH   1  12
BRANCH   3  23
HETATM   23  N   UNL     1      42.936 -16.250   2.180  1.00  0.00    -0.272 NA
HETATM   24  H   UNL     1      43.718 -15.854   1.660  1.00  0.00     0.129 HD
BRANCH  23  25
HETATM   25  C   UNL     1      41.839 -15.289   2.304  1.00  0.00     0.061 C 
HETATM   26  C   UNL     1      42.220 -13.967   1.639  1.00  0.00     0.020 C 
HETATM   27  C   UNL     1      40.877 -13.280   1.449  1.00  0.00     0.002 C 
HETATM   28  C   UNL     1      39.914 -14.405   1.086  1.00  0.00     0.002 C 
HETATM   29  C   UNL     1      40.591 -15.705   1.521  1.00  0.00     0.020 C 
ENDBRANCH  23  25
ENDBRANCH   3  23
TORSDOF 6
ENDMDL
MODEL 3
REMARK VINA RESULT:      -8.3      1.685      1.872
REMARK  6 active torsions:
REMARK  status: ('A' for Active; 'I' for Inactive)
REMARK    1  A    between atoms: O_2  and  C_3 
REMARK    2  A    between atoms: C_4  and  C_5 
REMARK    3  A    between atoms: C_5  and  N_6 
REMARK    4  A    between atoms: N_6  and  C_7 
REMARK    5  A    between atoms: C_9  and  N_10 
REMARK    6  A    between atoms: N_10  and  C_11 
ROOT
HETATM    1  C   UNL     1      41.764 -15.462   2.279  1.00  0.00     0.181 A 
HETATM    2  N   UNL     1      41.379 -15.064   1.063  1.00  0.00    -0.207 NA
HETATM    3  C   UNL     1      41.312 -13.744   0.822  1.00  0.00     0.119 A 
HETATM    4  C   UNL     1      41.636 -12.796   1.817  1.00  0.00     0.031 A 
HETATM    5  C   UNL     1      42.026 -13.299   3.076  1.00  0.00     0.048 A 
HETATM    6  N   UNL     1      42.087 -14.624   3.259  1.00  0.00    -0.330 N 
HETATM    7  H   UNL     1      42.432 -15.029   4.121  1.00  0.00     0.168 HD
HETATM    8  C   UNL     1      41.620 -11.393   1.639  1.00  0.00     0.017 A 
HETATM    9  C   UNL     1      41.960 -10.531   2.684  1.00  0.00     0.001 A 
HETATM   10  C   UNL     1      42.328 -11.046   3.923  1.00  0.00     0.002 A 
HETATM   11  C   UNL     1      42.368 -12.427   4.121  1.00  0.00     0.030 A 
ENDROOT
BRANCH   1  12
HETATM   12  N   UNL     1      41.920 -16.821   2.460  1.00  0.00    -0.258 NA
HETATM   13  H   UNL     1      41.718 -17.000   3.446  1.00  0.00     0.130 HD
BRANCH  12  14
HETATM   14  C   UNL     1      43.186 -17.431   2.061  1.00  0.00     0.136 C 
BRANCH  14  15
HETATM   15  C   UNL     1      43.556 -18.579   2.976  1.00  0.00    -0.012 A 
HETATM   16  C   UNL     1      43.778 -18.329   4.346  1.00  0.00     0.075 A 
HETATM   17  C   UNL     1      44.058 -19.390   5.215  1.00  0.00     0.037 A 
HETATM   18  C   UNL     1      44.092 -20.702   4.740  1.00  0.00     0.003 A 
HETATM   19  C   UNL     1      43.847 -20.963   3.398  1.00  0.00     0.001 A 
HETATM   20  C   UNL     1      43.576 -19.912   2.523  1.00  0.00     0.011 A 
BRANCH  16  21
HETATM   21  O   UNL     1      43.718 -17.014   4.733  1.00  0.00    -0.355 OA
HETATM   22  C   UNL     1      43.122 -16.758   6.004  1.00  0.00     0.210 C 
ENDBRANCH  16  21
ENDBRANCH  14  15
ENDBRANCH  12  14
ENDBRANCH   1  12
BRANCH   3  23
HETATM   23  N   UNL     1      40.987 -13.313  -0.472  1.00  0.00    -0.272 NA
HETATM   24  H   UNL     1      41.038 -12.298  -0.535  1.00  0.00     0.129 HD
BRANCH  23  25
HETATM   25  C   UNL     1      39.749 -13.822  -1.065  1.00  0.00     0.061 C 
HETATM   26  C   UNL     1      38.697 -12.715  -1.118  1.00  0.00     0.020 C 
HETATM   27  C   UNL     1      37.697 -13.241  -2.134  1.00  0.00     0.002 C 
HETATM   28  C   UNL     1      38.547 -13.941  -3.189  1.00  0.00     0.002 C 
HETATM   29  C   UNL     1      39.908 -14.198  -2.541  1.00  0.00     0.020 C 
ENDBRANCH  23  25
ENDBRANCH   3  23
TORSDOF 6
ENDMDL
MODEL 4
REMARK VINA RESULT:      -8.0      2.624      7.624
REMARK  6 active torsions:
REMARK  status: ('A' for Active; 'I' for Inactive)
REMARK    1  A    between atoms: O_2  and  C_3 
REMARK    2  A    between atoms: C_4  and  C_5 
REMARK    3  A    between atoms: C_5  and  N_6 
REMARK    4  A    between atoms: N_6  and  C_7 
REMARK    5  A    between atoms: C_9  and  N_10 
REMARK    6  A    between atoms: N_10  and  C_11 
ROOT
HETATM    1  C   UNL     1      40.644 -15.403   2.243  1.00  0.00     0.181 A 
HETATM    2  N   UNL     1      40.765 -14.812   3.435  1.00  0.00    -0.207 NA
HETATM    3  C   UNL     1      41.637 -15.333   4.315  1.00  0.00     0.119 A 
HETATM    4  C   UNL     1      42.408 -16.474   3.999  1.00  0.00     0.031 A 
HETATM    5  C   UNL     1      42.215 -17.042   2.723  1.00  0.00     0.048 A 
HETATM    6  N   UNL     1      41.342 -16.474   1.880  1.00  0.00    -0.330 N 
HETATM    7  H   UNL     1      41.226 -16.804   0.930  1.00  0.00     0.168 HD
HETATM    8  C   UNL     1      43.366 -17.068   4.853  1.00  0.00     0.017 A 
HETATM    9  C   UNL     1      44.085 -18.197   4.452  1.00  0.00     0.001 A 
HETATM   10  C   UNL     1      43.870 -18.751   3.194  1.00  0.00     0.002 A 
HETATM   11  C   UNL     1      42.943 -18.175   2.326  1.00  0.00     0.030 A 
ENDROOT
BRANCH   1  12
HETATM   12  N   UNL     1      39.818 -14.782   1.329  1.00  0.00    -0.258 NA
HETATM   13  H   UNL     1      39.062 -15.442   1.138  1.00  0.00     0.130 HD
BRANCH  12  14
HETATM   14  C   UNL     1      40.408 -14.281   0.091  1.00  0.00     0.136 C 
BRANCH  14  15
HETATM   15  C   UNL     1      39.346 -13.997  -0.949  1.00  0.00    -0.012 A 
HETATM   16  C   UNL     1      38.649 -12.772  -0.912  1.00  0.00     0.075 A 
HETATM   17  C   UNL     1      37.709 -12.470  -1.904  1.00  0.00     0.037 A 
HETATM   18  C   UNL     1      37.475 -13.363  -2.950  1.00  0.00     0.003 A 
HETATM   19  C   UNL     1      38.175 -14.561  -3.013  1.00  0.00     0.001 A 
HETATM   20  C   UNL     1      39.107 -14.874  -2.024  1.00  0.00     0.011 A 
BRANCH  16  21
HETATM   21  O   UNL     1      38.944 -11.947   0.144  1.00  0.00    -0.355 OA
HETATM   22  C   UNL     1      37.832 -11.469   0.900  1.00  0.00     0.210 C 
ENDBRANCH  16  21
ENDBRANCH  14  15
ENDBRANCH  12  14
ENDBRANCH   1  12
BRANCH   3  23
HETATM   23  N   UNL     1      41.831 -14.677   5.537  1.00  0.00    -0.272 NA
HETATM   24  H   UNL     1      40.936 -14.441   5.964  1.00  0.00     0.129 HD
BRANCH  23  25
HETATM   25  C   UNL     1      42.747 -13.535   5.557  1.00  0.00     0.061 C 
HETATM   26  C   UNL     1      41.996 -12.264   5.950  1.00  0.00     0.020 C 
HETATM   27  C   UNL     1      43.113 -11.321   6.364  1.00  0.00     0.002 C 
HETATM   28  C   UNL     1      44.128 -12.208   7.075  1.00  0.00     0.002 C 
HETATM   29  C   UNL     1      43.810 -13.644   6.654  1.00  0.00     0.020 C 
ENDBRANCH  23  25
ENDBRANCH   3  23
TORSDOF 6
ENDMDL
MODEL 5
REMARK VINA RESULT:      -7.9      2.582      7.677
REMARK  6 active torsions:
REMARK  status: ('A' for Active; 'I' for Inactive)
REMARK    1  A    between atoms: O_2  and  C_3 
REMARK    2  A    between atoms: C_4  and  C_5 
REMARK    3  A    between atoms: C_5  and  N_6 
REMARK    4  A    between atoms: N_6  and  C_7 
REMARK    5  A    between atoms: C_9  and  N_10 
REMARK    6  A    between atoms: N_10  and  C_11 
ROOT
HETATM    1  C   UNL     1      40.653 -15.255   2.361  1.00  0.00     0.181 A 
HETATM    2  N   UNL     1      40.842 -14.698   3.561  1.00  0.00    -0.207 NA
HETATM    3  C   UNL     1      41.739 -15.263   4.387  1.00  0.00     0.119 A 
HETATM    4  C   UNL     1      42.465 -16.414   4.009  1.00  0.00     0.031 A 
HETATM    5  C   UNL     1      42.201 -16.944   2.728  1.00  0.00     0.048 A 
HETATM    6  N   UNL     1      41.306 -16.333   1.941  1.00  0.00    -0.330 N 
HETATM    7  H   UNL     1      41.139 -16.635   0.989  1.00  0.00     0.168 HD
HETATM    8  C   UNL     1      43.444 -17.054   4.803  1.00  0.00     0.017 A 
HETATM    9  C   UNL     1      44.115 -18.189   4.342  1.00  0.00     0.001 A 
HETATM   10  C   UNL     1      43.830 -18.705   3.081  1.00  0.00     0.002 A 
HETATM   11  C   UNL     1      42.880 -18.084   2.271  1.00  0.00     0.030 A 
ENDROOT
BRANCH   1  12
HETATM   12  N   UNL     1      39.803 -14.590   1.502  1.00  0.00    -0.258 NA
HETATM   13  H   UNL     1      38.865 -14.693   1.897  1.00  0.00     0.130 HD
BRANCH  12  14
HETATM   14  C   UNL     1      39.824 -14.954   0.088  1.00  0.00     0.136 C 
BRANCH  14  15
HETATM   15  C   UNL     1      40.266 -13.790  -0.774  1.00  0.00    -0.012 A 
HETATM   16  C   UNL     1      39.997 -13.811  -2.158  1.00  0.00     0.075 A 
HETATM   17  C   UNL     1      40.342 -12.714  -2.955  1.00  0.00     0.037 A 
HETATM   18  C   UNL     1      40.928 -11.583  -2.385  1.00  0.00     0.003 A 
HETATM   19  C   UNL     1      41.174 -11.540  -1.018  1.00  0.00     0.001 A 
HETATM   20  C   UNL     1      40.840 -12.632  -0.217  1.00  0.00     0.011 A 
BRANCH  16  21
HETATM   21  O   UNL     1      39.410 -14.955  -2.637  1.00  0.00    -0.355 OA
HETATM   22  C   UNL     1      38.240 -14.777  -3.435  1.00  0.00     0.210 C 
ENDBRANCH  16  21
ENDBRANCH  14  15
ENDBRANCH  12  14
ENDBRANCH   1  12
BRANCH   3  23
HETATM   23  N   UNL     1      42.004 -14.644   5.615  1.00  0.00    -0.272 NA
HETATM   24  H   UNL     1      41.136 -14.433   6.105  1.00  0.00     0.129 HD
BRANCH  23  25
HETATM   25  C   UNL     1      42.908 -13.492   5.613  1.00  0.00     0.061 C 
HETATM   26  C   UNL     1      42.136 -12.217   5.947  1.00  0.00     0.020 C 
HETATM   27  C   UNL     1      43.234 -11.247   6.350  1.00  0.00     0.002 C 
HETATM   28  C   UNL     1      44.243 -12.098   7.112  1.00  0.00     0.002 C 
HETATM   29  C   UNL     1      43.949 -13.551   6.735  1.00  0.00     0.020 C 
ENDBRANCH  23  25
ENDBRANCH   3  23
TORSDOF 6
ENDMDL
MODEL 6
REMARK VINA RESULT:      -7.8      2.428      3.310
REMARK  6 active torsions:
REMARK  status: ('A' for Active; 'I' for Inactive)
REMARK    1  A    between atoms: O_2  and  C_3 
REMARK    2  A    between atoms: C_4  and  C_5 
REMARK    3  A    between atoms: C_5  and  N_6 
REMARK    4  A    between atoms: N_6  and  C_7 
REMARK    5  A    between atoms: C_9  and  N_10 
REMARK    6  A    between atoms: N_10  and  C_11 
ROOT
HETATM    1  C   UNL     1      41.902 -15.140   4.367  1.00  0.00     0.181 A 
HETATM    2  N   UNL     1      40.785 -14.418   4.243  1.00  0.00    -0.207 NA
HETATM    3  C   UNL     1      40.741 -13.213   4.836  1.00  0.00     0.119 A 
HETATM    4  C   UNL     1      41.838 -12.715   5.574  1.00  0.00     0.031 A 
HETATM    5  C   UNL     1      42.977 -13.543   5.662  1.00  0.00     0.048 A 
HETATM    6  N   UNL     1      42.971 -14.729   5.041  1.00  0.00    -0.330 N 
HETATM    7  H   UNL     1      43.792 -15.323   5.016  1.00  0.00     0.168 HD
HETATM    8  C   UNL     1      41.887 -11.450   6.204  1.00  0.00     0.017 A 
HETATM    9  C   UNL     1      43.020 -11.041   6.911  1.00  0.00     0.001 A 
HETATM   10  C   UNL     1      44.128 -11.878   6.998  1.00  0.00     0.002 A 
HETATM   11  C   UNL     1      44.113 -13.125   6.372  1.00  0.00     0.030 A 
ENDROOT
BRANCH   1  12
HETATM   12  N   UNL     1      41.950 -16.324   3.660  1.00  0.00    -0.258 NA
HETATM   13  H   UNL     1      41.639 -17.052   4.308  1.00  0.00     0.130 HD
BRANCH  12  14
HETATM   14  C   UNL     1      43.206 -16.693   3.013  1.00  0.00     0.136 C 
BRANCH  14  15
HETATM   15  C   UNL     1      43.510 -18.165   3.200  1.00  0.00    -0.012 A 
HETATM   16  C   UNL     1      43.934 -18.630   4.461  1.00  0.00     0.075 A 
HETATM   17  C   UNL     1      44.157 -19.996   4.666  1.00  0.00     0.037 A 
HETATM   18  C   UNL     1      43.934 -20.910   3.635  1.00  0.00     0.003 A 
HETATM   19  C   UNL     1      43.490 -20.467   2.395  1.00  0.00     0.001 A 
HETATM   20  C   UNL     1      43.274 -19.106   2.180  1.00  0.00     0.011 A 
BRANCH  16  21
HETATM   21  O   UNL     1      44.120 -17.669   5.423  1.00  0.00    -0.355 OA
HETATM   22  C   UNL     1      43.434 -17.872   6.658  1.00  0.00     0.210 C 
ENDBRANCH  16  21
ENDBRANCH  14  15
ENDBRANCH  12  14
ENDBRANCH   1  12
BRANCH   3  23
HETATM   23  N   UNL     1      39.607 -12.412   4.648  1.00  0.00    -0.272 NA
HETATM   24  H   UNL     1      38.757 -12.965   4.753  1.00  0.00     0.129 HD
BRANCH  23  25
HETATM   25  C   UNL     1      39.556 -11.579   3.446  1.00  0.00     0.061 C 
HETATM   26  C   UNL     1      38.681 -12.242   2.383  1.00  0.00     0.020 C 
HETATM   27  C   UNL     1      38.363 -11.096   1.437  1.00  0.00     0.002 C 
HETATM   28  C   UNL     1      38.186  -9.882   2.343  1.00  0.00     0.002 C 
HETATM   29  C   UNL     1      38.841 -10.244   3.677  1.00  0.00     0.020 C 
ENDBRANCH  23  25
ENDBRANCH   3  23
TORSDOF 6
ENDMDL
MODEL 7
REMARK VINA RESULT:      -7.6     14.121     15.860
REMARK  6 active torsions:
REMARK  status: ('A' for Active; 'I' for Inactive)
REMARK    1  A    between atoms: O_2  and  C_3 
REMARK    2  A    between atoms: C_4  and  C_5 
REMARK    3  A    between atoms: C_5  and  N_6 
REMARK    4  A    between atoms: N_6  and  C_7 
REMARK    5  A    between atoms: C_9  and  N_10 
REMARK    6  A    between atoms: N_10  and  C_11 
ROOT
HETATM    1  C   UNL     1      47.317 -28.459   1.121  1.00  0.00     0.181 A 
HETATM    2  N   UNL     1      46.811 -28.137  -0.074  1.00  0.00    -0.207 NA
HETATM    3  C   UNL     1      47.471 -28.544  -1.171  1.00  0.00     0.119 A 
HETATM    4  C   UNL     1      48.667 -29.290  -1.077  1.00  0.00     0.031 A 
HETATM    5  C   UNL     1      49.137 -29.582   0.220  1.00  0.00     0.048 A 
HETATM    6  N   UNL     1      48.433 -29.162   1.280  1.00  0.00    -0.330 N 
HETATM    7  H   UNL     1      48.694 -29.412   2.226  1.00  0.00     0.168 HD
HETATM    8  C   UNL     1      49.406 -29.781  -2.178  1.00  0.00     0.017 A 
HETATM    9  C   UNL     1      50.580 -30.514  -1.987  1.00  0.00     0.001 A 
HETATM   10  C   UNL     1      51.036 -30.780  -0.699  1.00  0.00     0.002 A 
HETATM   11  C   UNL     1      50.316 -30.321   0.404  1.00  0.00     0.030 A 
ENDROOT
BRANCH   1  12
HETATM   12  N   UNL     1      46.561 -28.115   2.222  1.00  0.00    -0.258 NA
HETATM   13  H   UNL     1      47.158 -27.519   2.799  1.00  0.00     0.130 HD
BRANCH  12  14
HETATM   14  C   UNL     1      45.962 -29.187   3.012  1.00  0.00     0.136 C 
BRANCH  14  15
HETATM   15  C   UNL     1      44.799 -29.825   2.283  1.00  0.00    -0.012 A 
HETATM   16  C   UNL     1      44.972 -31.082   1.669  1.00  0.00     0.075 A 
HETATM   17  C   UNL     1      43.889 -31.712   1.045  1.00  0.00     0.037 A 
HETATM   18  C   UNL     1      42.627 -31.117   1.051  1.00  0.00     0.003 A 
HETATM   19  C   UNL     1      42.438 -29.891   1.676  1.00  0.00     0.001 A 
HETATM   20  C   UNL     1      43.513 -29.252   2.292  1.00  0.00     0.011 A 
BRANCH  16  21
HETATM   21  O   UNL     1      46.241 -31.603   1.716  1.00  0.00    -0.355 OA
HETATM   22  C   UNL     1      46.701 -32.250   0.530  1.00  0.00     0.210 C 
ENDBRANCH  16  21
ENDBRANCH  14  15
ENDBRANCH  12  14
ENDBRANCH   1  12
BRANCH   3  23
HETATM   23  N   UNL     1      46.910 -28.282  -2.428  1.00  0.00    -0.272 NA
HETATM   24  H   UNL     1      47.095 -27.321  -2.710  1.00  0.00     0.129 HD
BRANCH  23  25
HETATM   25  C   UNL     1      45.503 -28.634  -2.630  1.00  0.00     0.061 C 
HETATM   26  C   UNL     1      45.182 -28.682  -4.123  1.00  0.00     0.020 C 
HETATM   27  C   UNL     1      43.889 -29.480  -4.170  1.00  0.00     0.002 C 
HETATM   28  C   UNL     1      44.050 -30.544  -3.090  1.00  0.00     0.002 C 
HETATM   29  C   UNL     1      45.175 -30.059  -2.175  1.00  0.00     0.020 C 
ENDBRANCH  23  25
ENDBRANCH   3  23
TORSDOF 6
ENDMDL
MODEL 8
REMARK VINA RESULT:      -7.6      3.867      6.835
REMARK  6 active torsions:
REMARK  status: ('A' for Active; 'I' for Inactive)
REMARK    1  A    between atoms: O_2  and  C_3 
REMARK    2  A    between atoms: C_4  and  C_5 
REMARK    3  A    between atoms: C_5  and  N_6 
REMARK    4  A    between atoms: N_6  and  C_7 
REMARK    5  A    between atoms: C_9  and  N_10 
REMARK    6  A    between atoms: N_10  and  C_11 
ROOT
HETATM    1  C   UNL     1      42.750 -13.448   5.818  1.00  0.00     0.181 A 
HETATM    2  N   UNL     1      43.486 -12.450   6.318  1.00  0.00    -0.207 NA
HETATM    3  C   UNL     1      42.865 -11.299   6.626  1.00  0.00     0.119 A 
HETATM    4  C   UNL     1      41.476 -11.136   6.429  1.00  0.00     0.031 A 
HETATM    5  C   UNL     1      40.774 -12.235   5.891  1.00  0.00     0.048 A 
HETATM    6  N   UNL     1      41.440 -13.363   5.614  1.00  0.00    -0.330 N 
HETATM    7  H   UNL     1      40.965 -14.199   5.296  1.00  0.00     0.168 HD
HETATM    8  C   UNL     1      40.741  -9.972   6.752  1.00  0.00     0.017 A 
HETATM    9  C   UNL     1      39.365  -9.904   6.524  1.00  0.00     0.001 A 
HETATM   10  C   UNL     1      38.692 -10.993   5.979  1.00  0.00     0.002 A 
HETATM   11  C   UNL     1      39.390 -12.160   5.667  1.00  0.00     0.030 A 
ENDROOT
BRANCH   1  12
HETATM   12  N   UNL     1      43.400 -14.647   5.611  1.00  0.00    -0.258 NA
HETATM   13  H   UNL     1      43.772 -14.606   4.660  1.00  0.00     0.130 HD
BRANCH  12  14
HETATM   14  C   UNL     1      42.657 -15.885   5.835  1.00  0.00     0.136 C 
BRANCH  14  15
HETATM   15  C   UNL     1      42.844 -16.853   4.687  1.00  0.00    -0.012 A 
HETATM   16  C   UNL     1      42.199 -16.603   3.458  1.00  0.00     0.075 A 
HETATM   17  C   UNL     1      42.413 -17.455   2.368  1.00  0.00     0.037 A 
HETATM   18  C   UNL     1      43.284 -18.539   2.480  1.00  0.00     0.003 A 
HETATM   19  C   UNL     1      43.946 -18.781   3.678  1.00  0.00     0.001 A 
HETATM   20  C   UNL     1      43.732 -17.942   4.771  1.00  0.00     0.011 A 
BRANCH  16  21
HETATM   21  O   UNL     1      41.368 -15.512   3.428  1.00  0.00    -0.355 OA
HETATM   22  C   UNL     1      40.151 -15.667   2.698  1.00  0.00     0.210 C 
ENDBRANCH  16  21
ENDBRANCH  14  15
ENDBRANCH  12  14
ENDBRANCH   1  12
BRANCH   3  23
HETATM   23  N   UNL     1      43.610 -10.274   7.224  1.00  0.00    -0.272 NA
HETATM   24  H   UNL     1      44.412 -10.029   6.646  1.00  0.00     0.129 HD
BRANCH  23  25
HETATM   25  C   UNL     1      43.996 -10.445   8.625  1.00  0.00     0.061 C 
HETATM   26  C   UNL     1      45.424  -9.946   8.842  1.00  0.00     0.020 C 
HETATM   27  C   UNL     1      45.497  -9.761  10.349  1.00  0.00     0.002 C 
HETATM   28  C   UNL     1      44.124  -9.231  10.743  1.00  0.00     0.002 C 
HETATM   29  C   UNL     1      43.188  -9.558   9.578  1.00  0.00     0.020 C 
ENDBRANCH  23  25
ENDBRANCH   3  23
TORSDOF 6
ENDMDL
MODEL 9
REMARK VINA RESULT:      -7.5      3.865      7.245
REMARK  6 active torsions:
REMARK  status: ('A' for Active; 'I' for Inactive)
REMARK    1  A    between atoms: O_2  and  C_3 
REMARK    2  A    between atoms: C_4  and  C_5 
REMARK    3  A    between atoms: C_5  and  N_6 
REMARK    4  A    between atoms: N_6  and  C_7 
REMARK    5  A    between atoms: C_9  and  N_10 
REMARK    6  A    between atoms: N_10  and  C_11 
ROOT
HETATM    1  C   UNL     1      42.693 -12.821   3.832  1.00  0.00     0.181 A 
HETATM    2  N   UNL     1      42.621 -14.108   4.186  1.00  0.00    -0.207 NA
HETATM    3  C   UNL     1      41.962 -14.952   3.375  1.00  0.00     0.119 A 
HETATM    4  C   UNL     1      41.357 -14.503   2.180  1.00  0.00     0.031 A 
HETATM    5  C   UNL     1      41.473 -13.129   1.882  1.00  0.00     0.048 A 
HETATM    6  N   UNL     1      42.152 -12.334   2.720  1.00  0.00    -0.330 N 
HETATM    7  H   UNL     1      42.323 -11.358   2.510  1.00  0.00     0.168 HD
HETATM    8  C   UNL     1      40.671 -15.326   1.257  1.00  0.00     0.017 A 
HETATM    9  C   UNL     1      40.106 -14.791   0.097  1.00  0.00     0.001 A 
HETATM   10  C   UNL     1      40.219 -13.430  -0.171  1.00  0.00     0.002 A 
HETATM   11  C   UNL     1      40.904 -12.598   0.714  1.00  0.00     0.030 A 
ENDROOT
BRANCH   1  12
HETATM   12  N   UNL     1      43.464 -12.005   4.634  1.00  0.00    -0.258 NA
HETATM   13  H   UNL     1      44.434 -12.277   4.463  1.00  0.00     0.130 HD
BRANCH  12  14
HETATM   14  C   UNL     1      43.170 -11.964   6.064  1.00  0.00     0.136 C 
BRANCH  14  15
HETATM   15  C   UNL     1      44.152 -11.079   6.801  1.00  0.00    -0.012 A 
HETATM   16  C   UNL     1      43.668 -10.035   7.617  1.00  0.00     0.075 A 
HETATM   17  C   UNL     1      44.562  -9.250   8.354  1.00  0.00     0.037 A 
HETATM   18  C   UNL     1      45.932  -9.509   8.310  1.00  0.00     0.003 A 
HETATM   19  C   UNL     1      46.419 -10.551   7.532  1.00  0.00     0.001 A 
HETATM   20  C   UNL     1      45.537 -11.334   6.787  1.00  0.00     0.011 A 
BRANCH  16  21
HETATM   21  O   UNL     1      42.308  -9.852   7.612  1.00  0.00    -0.355 OA
HETATM   22  C   UNL     1      41.797  -8.900   8.543  1.00  0.00     0.210 C 
ENDBRANCH  16  21
ENDBRANCH  14  15
ENDBRANCH  12  14
ENDBRANCH   1  12
BRANCH   3  23
HETATM   23  N   UNL     1      41.947 -16.316   3.693  1.00  0.00    -0.272 NA
HETATM   24  H   UNL     1      41.612 -16.458   4.645  1.00  0.00     0.129 HD
BRANCH  23  25
HETATM   25  C   UNL     1      43.165 -17.086   3.437  1.00  0.00     0.061 C 
HETATM   26  C   UNL     1      43.566 -17.868   4.687  1.00  0.00     0.020 C 
HETATM   27  C   UNL     1      44.516 -18.922   4.142  1.00  0.00     0.002 C 
HETATM   28  C   UNL     1      43.925 -19.319   2.794  1.00  0.00     0.002 C 
HETATM   29  C   UNL     1      42.960 -18.198   2.404  1.00  0.00     0.020 C 
ENDBRANCH  23  25
ENDBRANCH   3  23
TORSDOF 6
ENDMDL
MODEL 10
REMARK VINA RESULT:      -7.5      3.002      7.486
REMARK  6 active torsions:
REMARK  status: ('A' for Active; 'I' for Inactive)
REMARK    1  A    between atoms: O_2  and  C_3 
REMARK    2  A    between atoms: C_4  and  C_5 
REMARK    3  A    between atoms: C_5  and  N_6 
REMARK    4  A    between atoms: N_6  and  C_7 
REMARK    5  A    between atoms: C_9  and  N_10 
REMARK    6  A    between atoms: N_10  and  C_11 
ROOT
HETATM    1  C   UNL     1      41.833 -13.297   1.562  1.00  0.00     0.181 A 
HETATM    2  N   UNL     1      41.844 -14.544   2.043  1.00  0.00    -0.207 NA
HETATM    3  C   UNL     1      42.311 -14.738   3.288  1.00  0.00     0.119 A 
HETATM    4  C   UNL     1      42.780 -13.663   4.074  1.00  0.00     0.031 A 
HETATM    5  C   UNL     1      42.742 -12.380   3.490  1.00  0.00     0.048 A 
HETATM    6  N   UNL     1      42.255 -12.242   2.250  1.00  0.00    -0.330 N 
HETATM    7  H   UNL     1      42.141 -11.332   1.820  1.00  0.00     0.168 HD
HETATM    8  C   UNL     1      43.260 -13.775   5.400  1.00  0.00     0.017 A 
HETATM    9  C   UNL     1      43.703 -12.652   6.102  1.00  0.00     0.001 A 
HETATM   10  C   UNL     1      43.670 -11.396   5.504  1.00  0.00     0.002 A 
HETATM   11  C   UNL     1      43.186 -11.255   4.203  1.00  0.00     0.030 A 
ENDROOT
BRANCH   1  12
HETATM   12  N   UNL     1      41.253 -13.121   0.323  1.00  0.00    -0.258 NA
HETATM   13  H   UNL     1      41.876 -12.497  -0.194  1.00  0.00     0.130 HD
BRANCH  12  14
HETATM   14  C   UNL     1      39.870 -12.654   0.267  1.00  0.00     0.136 C 
BRANCH  14  15
HETATM   15  C   UNL     1      39.137 -13.250  -0.916  1.00  0.00    -0.012 A 
HETATM   16  C   UNL     1      38.052 -12.550  -1.483  1.00  0.00     0.075 A 
HETATM   17  C   UNL     1      37.406 -13.058  -2.616  1.00  0.00     0.037 A 
HETATM   18  C   UNL     1      37.845 -14.242  -3.208  1.00  0.00     0.003 A 
HETATM   19  C   UNL     1      38.930 -14.926  -2.675  1.00  0.00     0.001 A 
HETATM   20  C   UNL     1      39.575 -14.433  -1.542  1.00  0.00     0.011 A 
BRANCH  16  21
HETATM   21  O   UNL     1      37.689 -11.390  -0.846  1.00  0.00    -0.355 OA
HETATM   22  C   UNL     1      38.077 -10.173  -1.482  1.00  0.00     0.210 C 
ENDBRANCH  16  21
ENDBRANCH  14  15
ENDBRANCH  12  14
ENDBRANCH   1  12
BRANCH   3  23
HETATM   23  N   UNL     1      42.254 -16.028   3.833  1.00  0.00    -0.272 NA
HETATM   24  H   UNL     1      42.054 -15.987   4.831  1.00  0.00     0.129 HD
BRANCH  23  25
HETATM   25  C   UNL     1      43.368 -16.934   3.551  1.00  0.00     0.061 C 
HETATM   26  C   UNL     1      43.706 -17.756   4.793  1.00  0.00     0.020 C 
HETATM   27  C   UNL     1      44.514 -18.913   4.230  1.00  0.00     0.002 C 
HETATM   28  C   UNL     1      43.849 -19.240   2.898  1.00  0.00     0.002 C 
HETATM   29  C   UNL     1      43.011 -18.016   2.526  1.00  0.00     0.020 C 
ENDBRANCH  23  25
ENDBRANCH   3  23
TORSDOF 6
ENDMDL
