MODEL 1
REMARK VINA RESULT:      -9.0      0.000      0.000
REMARK  9 active torsions:
REMARK  status: ('A' for Active; 'I' for Inactive)
REMARK    1  A    between atoms: C_2  and  C_3 
REMARK    2  A    between atoms: C_4  and  O_5 
REMARK    3  A    between atoms: C_6  and  C_7 
REMARK    4  A    between atoms: C_12  and  C_13 
REMARK    5  A    between atoms: C_13  and  C_14 
REMARK    6  A    between atoms: C_14  and  N_15 
REMARK    7  A    between atoms: N_20  and  C_21 
REMARK    8  A    between atoms: C_21  and  C_22 
REMARK    9  A    between atoms: C_22  and  N_23 
ROOT
HETATM    1  N   UNL     1      41.908 -10.358   6.646  1.00  0.00    -0.174 N 
HETATM    2  C   UNL     1      41.556  -9.561   7.714  1.00  0.00     0.681 A 
HETATM    3  N   UNL     1      40.348  -9.014   7.878  1.00  0.00    -0.234 N 
HETATM    4  H   UNL     1      40.109  -8.389   8.629  1.00  0.00     0.174 HD
HETATM    5  H   UNL     1      39.751  -8.942   7.044  1.00  0.00     0.174 HD
HETATM    6  N   UNL     1      42.601  -9.389   8.643  1.00  0.00    -0.180 N 
HETATM    7  C   UNL     1      43.724 -10.035   8.023  1.00  0.00     0.079 A 
HETATM    8  C   UNL     1      43.292 -10.632   6.823  1.00  0.00     0.079 A 
HETATM    9  C   UNL     1      45.044 -10.130   8.416  1.00  0.00     0.032 A 
HETATM   10  C   UNL     1      45.919 -10.862   7.603  1.00  0.00     0.002 A 
HETATM   11  C   UNL     1      45.474 -11.472   6.419  1.00  0.00     0.002 A 
HETATM   12  C   UNL     1      44.143 -11.358   6.014  1.00  0.00     0.032 A 
ENDROOT
BRANCH   1  13
HETATM   13  C   UNL     1      41.049 -10.918   5.591  1.00  0.00     0.231 C 
BRANCH  13  14
HETATM   14  C   UNL     1      40.436 -12.264   5.908  1.00  0.00     0.178 C 
HETATM   15  O   UNL     1      39.418 -12.353   6.593  1.00  0.00    -0.290 OA
BRANCH  14  16
HETATM   16  C   UNL     1      41.136 -13.481   5.396  1.00  0.00     0.013 A 
HETATM   17  C   UNL     1      41.884 -14.279   6.265  1.00  0.00     0.026 A 
HETATM   18  C   UNL     1      42.614 -15.384   5.803  1.00  0.00    -0.016 A 
HETATM   19  C   UNL     1      42.569 -15.644   4.409  1.00  0.00     0.079 A 
HETATM   20  C   UNL     1      41.795 -14.882   3.493  1.00  0.00    -0.016 A 
HETATM   21  C   UNL     1      41.067 -13.800   4.037  1.00  0.00     0.026 A 
BRANCH  18  22
HETATM   22  C   UNL     1      43.451 -16.242   6.794  1.00  0.00    -0.021 C 
HETATM   23  C   UNL     1      43.202 -15.739   8.230  1.00  0.00     0.019 C 
HETATM   24  C   UNL     1      43.073 -17.748   6.775  1.00  0.00     0.019 C 
HETATM   25  C   UNL     1      44.964 -16.197   6.475  1.00  0.00     0.019 C 
ENDBRANCH  18  22
BRANCH  19  26
HETATM   26  O   UNL     1      43.366 -16.663   3.973  1.00  0.00    -0.360 OA
HETATM   27  H   UNL     1      43.822 -17.072   4.722  1.00  0.00     0.217 HD
ENDBRANCH  19  26
BRANCH  20  28
HETATM   28  C   UNL     1      41.737 -15.168   1.965  1.00  0.00    -0.021 C 
HETATM   29  C   UNL     1      41.444 -13.860   1.198  1.00  0.00     0.019 C 
HETATM   30  C   UNL     1      40.681 -16.244   1.617  1.00  0.00     0.019 C 
HETATM   31  C   UNL     1      43.073 -15.711   1.385  1.00  0.00     0.019 C 
ENDBRANCH  20  28
ENDBRANCH  14  16
ENDBRANCH  13  14
ENDBRANCH   1  13
BRANCH   6  32
HETATM   32  C   UNL     1      42.463  -8.737   9.957  1.00  0.00     0.175 C 
BRANCH  32  33
HETATM   33  C   UNL     1      42.196  -9.661  11.166  1.00  0.00     0.255 C 
BRANCH  33  34
HETATM   34  N   UNL     1      42.359  -9.019  12.530  1.00  0.00    -0.070 N 
HETATM   35  H   UNL     1      43.079  -9.596  12.994  1.00  0.00     0.279 HD
HETATM   36  C   UNL     1      42.935  -7.619  12.517  1.00  0.00     0.235 C 
HETATM   37  C   UNL     1      43.337  -7.232  13.935  1.00  0.00     0.028 C 
HETATM   38  C   UNL     1      42.175  -7.368  14.914  1.00  0.00     0.003 C 
HETATM   39  C   UNL     1      41.548  -8.758  14.852  1.00  0.00     0.028 C 
HETATM   40  C   UNL     1      41.147  -9.133  13.431  1.00  0.00     0.235 C 
ENDBRANCH  33  34
ENDBRANCH  32  33
ENDBRANCH   6  32
TORSDOF 9
ENDMDL
MODEL 2
REMARK VINA RESULT:      -8.9      0.127      3.082
REMARK  9 active torsions:
REMARK  status: ('A' for Active; 'I' for Inactive)
REMARK    1  A    between atoms: C_2  and  C_3 
REMARK    2  A    between atoms: C_4  and  O_5 
REMARK    3  A    between atoms: C_6  and  C_7 
REMARK    4  A    between atoms: C_12  and  C_13 
REMARK    5  A    between atoms: C_13  and  C_14 
REMARK    6  A    between atoms: C_14  and  N_15 
REMARK    7  A    between atoms: N_20  and  C_21 
REMARK    8  A    between atoms: C_21  and  C_22 
REMARK    9  A    between atoms: C_22  and  N_23 
ROOT
HETATM    1  N   UNL     1      41.869 -10.268   6.710  1.00  0.00    -0.174 N 
HETATM    2  C   UNL     1      41.511  -9.482   7.784  1.00  0.00     0.681 A 
HETATM    3  N   UNL     1      40.302  -8.938   7.946  1.00  0.00    -0.234 N 
HETATM    4  H   UNL     1      40.059  -8.320   8.702  1.00  0.00     0.174 HD
HETATM    5  H   UNL     1      39.710  -8.857   7.109  1.00  0.00     0.174 HD
HETATM    6  N   UNL     1      42.551  -9.319   8.720  1.00  0.00    -0.180 N 
HETATM    7  C   UNL     1      43.678  -9.959   8.100  1.00  0.00     0.079 A 
HETATM    8  C   UNL     1      43.253 -10.544   6.891  1.00  0.00     0.079 A 
HETATM    9  C   UNL     1      44.995 -10.057   8.499  1.00  0.00     0.032 A 
HETATM   10  C   UNL     1      45.876 -10.780   7.684  1.00  0.00     0.002 A 
HETATM   11  C   UNL     1      45.437 -11.379   6.492  1.00  0.00     0.002 A 
HETATM   12  C   UNL     1      44.109 -11.261   6.080  1.00  0.00     0.032 A 
ENDROOT
BRANCH   1  13
HETATM   13  C   UNL     1      41.018 -10.819   5.644  1.00  0.00     0.231 C 
BRANCH  13  14
HETATM   14  C   UNL     1      40.471 -12.203   5.909  1.00  0.00     0.178 C 
HETATM   15  O   UNL     1      39.456 -12.368   6.586  1.00  0.00    -0.290 OA
BRANCH  14  16
HETATM   16  C   UNL     1      41.231 -13.365   5.356  1.00  0.00     0.013 A 
HETATM   17  C   UNL     1      41.163 -13.666   3.993  1.00  0.00     0.026 A 
HETATM   18  C   UNL     1      41.803 -14.793   3.457  1.00  0.00    -0.016 A 
HETATM   19  C   UNL     1      42.512 -15.621   4.366  1.00  0.00     0.079 A 
HETATM   20  C   UNL     1      42.638 -15.336   5.752  1.00  0.00    -0.016 A 
HETATM   21  C   UNL     1      41.987 -14.170   6.214  1.00  0.00     0.026 A 
BRANCH  18  22
HETATM   22  C   UNL     1      41.693 -15.109   1.939  1.00  0.00    -0.021 C 
HETATM   23  C   UNL     1      41.480 -13.793   1.164  1.00  0.00     0.019 C 
HETATM   24  C   UNL     1      42.969 -15.773   1.354  1.00  0.00     0.019 C 
HETATM   25  C   UNL     1      40.541 -16.094   1.628  1.00  0.00     0.019 C 
ENDBRANCH  18  22
BRANCH  19  26
HETATM   26  O   UNL     1      43.041 -16.762   3.835  1.00  0.00    -0.360 OA
HETATM   27  H   UNL     1      42.862 -16.799   2.884  1.00  0.00     0.217 HD
ENDBRANCH  19  26
BRANCH  20  28
HETATM   28  C   UNL     1      43.420 -16.237   6.750  1.00  0.00    -0.021 C 
HETATM   29  C   UNL     1      43.179 -15.748   8.195  1.00  0.00     0.019 C 
HETATM   30  C   UNL     1      44.934 -16.268   6.439  1.00  0.00     0.019 C 
HETATM   31  C   UNL     1      42.971 -17.725   6.725  1.00  0.00     0.019 C 
ENDBRANCH  20  28
ENDBRANCH  14  16
ENDBRANCH  13  14
ENDBRANCH   1  13
BRANCH   6  32
HETATM   32  C   UNL     1      42.405  -8.681  10.040  1.00  0.00     0.175 C 
BRANCH  32  33
HETATM   33  C   UNL     1      42.171  -9.620  11.244  1.00  0.00     0.255 C 
BRANCH  33  34
HETATM   34  N   UNL     1      42.319  -8.982  12.611  1.00  0.00    -0.070 N 
HETATM   35  H   UNL     1      43.020  -9.572  13.088  1.00  0.00     0.279 HD
HETATM   36  C   UNL     1      42.920  -7.592  12.611  1.00  0.00     0.235 C 
HETATM   37  C   UNL     1      43.302  -7.213  14.036  1.00  0.00     0.028 C 
HETATM   38  C   UNL     1      42.119  -7.330  14.993  1.00  0.00     0.003 C 
HETATM   39  C   UNL     1      41.469  -8.708  14.917  1.00  0.00     0.028 C 
HETATM   40  C   UNL     1      41.088  -9.075  13.489  1.00  0.00     0.235 C 
ENDBRANCH  33  34
ENDBRANCH  32  33
ENDBRANCH   6  32
TORSDOF 9
ENDMDL
MODEL 3
REMARK VINA RESULT:      -8.7      3.603      9.636
REMARK  9 active torsions:
REMARK  status: ('A' for Active; 'I' for Inactive)
REMARK    1  A    between atoms: C_2  and  C_3 
REMARK    2  A    between atoms: C_4  and  O_5 
REMARK    3  A    between atoms: C_6  and  C_7 
REMARK    4  A    between atoms: C_12  and  C_13 
REMARK    5  A    between atoms: C_13  and  C_14 
REMARK    6  A    between atoms: C_14  and  N_15 
REMARK    7  A    between atoms: N_20  and  C_21 
REMARK    8  A    between atoms: C_21  and  C_22 
REMARK    9  A    between atoms: C_22  and  N_23 
ROOT
HETATM    1  N   UNL     1      41.802 -14.995   4.461  1.00  0.00    -0.174 N 
HETATM    2  C   UNL     1      40.758 -14.822   3.577  1.00  0.00     0.681 A 
HETATM    3  N   UNL     1      39.821 -13.878   3.697  1.00  0.00    -0.234 N 
HETATM    4  H   UNL     1      39.030 -13.788   3.082  1.00  0.00     0.174 HD
HETATM    5  H   UNL     1      39.702 -13.453   4.625  1.00  0.00     0.174 HD
HETATM    6  N   UNL     1      40.783 -15.739   2.508  1.00  0.00    -0.180 N 
HETATM    7  C   UNL     1      41.865 -16.625   2.836  1.00  0.00     0.079 A 
HETATM    8  C   UNL     1      42.485 -16.158   4.012  1.00  0.00     0.079 A 
HETATM    9  C   UNL     1      42.323 -17.766   2.209  1.00  0.00     0.032 A 
HETATM   10  C   UNL     1      43.435 -18.416   2.760  1.00  0.00     0.002 A 
HETATM   11  C   UNL     1      44.061 -17.929   3.919  1.00  0.00     0.002 A 
HETATM   12  C   UNL     1      43.584 -16.787   4.563  1.00  0.00     0.032 A 
ENDROOT
BRANCH   1  13
HETATM   13  C   UNL     1      42.222 -14.129   5.573  1.00  0.00     0.231 C 
BRANCH  13  14
HETATM   14  C   UNL     1      42.858 -12.820   5.165  1.00  0.00     0.178 C 
HETATM   15  O   UNL     1      43.494 -12.722   4.116  1.00  0.00    -0.290 OA
BRANCH  14  16
HETATM   16  C   UNL     1      42.724 -11.663   6.101  1.00  0.00     0.013 A 
HETATM   17  C   UNL     1      43.826 -11.229   6.844  1.00  0.00     0.026 A 
HETATM   18  C   UNL     1      43.715 -10.196   7.787  1.00  0.00    -0.016 A 
HETATM   19  C   UNL     1      42.429  -9.623   7.961  1.00  0.00     0.079 A 
HETATM   20  C   UNL     1      41.289 -10.007   7.205  1.00  0.00    -0.016 A 
HETATM   21  C   UNL     1      41.484 -11.037   6.257  1.00  0.00     0.026 A 
BRANCH  18  22
HETATM   22  C   UNL     1      44.956  -9.749   8.609  1.00  0.00    -0.021 C 
HETATM   23  C   UNL     1      46.230 -10.303   7.941  1.00  0.00     0.019 C 
HETATM   24  C   UNL     1      45.123  -8.207   8.682  1.00  0.00     0.019 C 
HETATM   25  C   UNL     1      44.885 -10.222  10.081  1.00  0.00     0.019 C 
ENDBRANCH  18  22
BRANCH  19  26
HETATM   26  O   UNL     1      42.328  -8.690   8.954  1.00  0.00    -0.360 OA
HETATM   27  H   UNL     1      41.481  -8.784   9.413  1.00  0.00     0.217 HD
ENDBRANCH  19  26
BRANCH  20  28
HETATM   28  C   UNL     1      39.879  -9.376   7.388  1.00  0.00    -0.021 C 
HETATM   29  C   UNL     1      39.941  -7.862   7.089  1.00  0.00     0.019 C 
HETATM   30  C   UNL     1      39.315  -9.621   8.807  1.00  0.00     0.019 C 
HETATM   31  C   UNL     1      38.810  -9.957   6.421  1.00  0.00     0.019 C 
ENDBRANCH  20  28
ENDBRANCH  14  16
ENDBRANCH  13  14
ENDBRANCH   1  13
BRANCH   6  32
HETATM   32  C   UNL     1      39.902 -15.683   1.328  1.00  0.00     0.175 C 
BRANCH  32  33
HETATM   33  C   UNL     1      40.380 -14.813   0.144  1.00  0.00     0.255 C 
BRANCH  33  34
HETATM   34  N   UNL     1      39.288 -14.094  -0.624  1.00  0.00    -0.070 N 
HETATM   35  H   UNL     1      38.413 -14.495  -0.250  1.00  0.00     0.279 HD
HETATM   36  C   UNL     1      39.181 -12.609  -0.351  1.00  0.00     0.235 C 
HETATM   37  C   UNL     1      37.870 -12.089  -0.927  1.00  0.00     0.028 C 
HETATM   38  C   UNL     1      37.731 -12.414  -2.411  1.00  0.00     0.003 C 
HETATM   39  C   UNL     1      37.929 -13.902  -2.681  1.00  0.00     0.028 C 
HETATM   40  C   UNL     1      39.244 -14.411  -2.105  1.00  0.00     0.235 C 
ENDBRANCH  33  34
ENDBRANCH  32  33
ENDBRANCH   6  32
TORSDOF 9
ENDMDL
MODEL 4
REMARK VINA RESULT:      -8.4      4.117      8.972
REMARK  9 active torsions:
REMARK  status: ('A' for Active; 'I' for Inactive)
REMARK    1  A    between atoms: C_2  and  C_3 
REMARK    2  A    between atoms: C_4  and  O_5 
REMARK    3  A    between atoms: C_6  and  C_7 
REMARK    4  A    between atoms: C_12  and  C_13 
REMARK    5  A    between atoms: C_13  and  C_14 
REMARK    6  A    between atoms: C_14  and  N_15 
REMARK    7  A    between atoms: N_20  and  C_21 
REMARK    8  A    between atoms: C_21  and  C_22 
REMARK    9  A    between atoms: C_22  and  N_23 
ROOT
HETATM    1  N   UNL     1      40.608 -13.293   2.679  1.00  0.00    -0.174 N 
HETATM    2  C   UNL     1      41.071 -14.309   1.870  1.00  0.00     0.681 A 
HETATM    3  N   UNL     1      41.227 -14.204   0.548  1.00  0.00    -0.234 N 
HETATM    4  H   UNL     1      41.513 -14.963  -0.048  1.00  0.00     0.174 HD
HETATM    5  H   UNL     1      40.715 -13.448   0.075  1.00  0.00     0.174 HD
HETATM    6  N   UNL     1      41.387 -15.481   2.583  1.00  0.00    -0.180 N 
HETATM    7  C   UNL     1      40.962 -15.195   3.926  1.00  0.00     0.079 A 
HETATM    8  C   UNL     1      40.506 -13.863   3.977  1.00  0.00     0.079 A 
HETATM    9  C   UNL     1      40.942 -15.986   5.056  1.00  0.00     0.032 A 
HETATM   10  C   UNL     1      40.488 -15.411   6.251  1.00  0.00     0.002 A 
HETATM   11  C   UNL     1      40.057 -14.076   6.297  1.00  0.00     0.002 A 
HETATM   12  C   UNL     1      40.060 -13.284   5.148  1.00  0.00     0.032 A 
ENDROOT
BRANCH   1  13
HETATM   13  C   UNL     1      40.364 -11.882   2.340  1.00  0.00     0.231 C 
BRANCH  13  14
HETATM   14  C   UNL     1      41.517 -10.945   2.621  1.00  0.00     0.178 C 
HETATM   15  O   UNL     1      42.201 -10.486   1.707  1.00  0.00    -0.290 OA
BRANCH  14  16
HETATM   16  C   UNL     1      41.821 -10.632   4.050  1.00  0.00     0.013 A 
HETATM   17  C   UNL     1      42.950 -11.181   4.664  1.00  0.00     0.026 A 
HETATM   18  C   UNL     1      43.222 -10.968   6.024  1.00  0.00    -0.016 A 
HETATM   19  C   UNL     1      42.290 -10.182   6.750  1.00  0.00     0.079 A 
HETATM   20  C   UNL     1      41.149  -9.575   6.160  1.00  0.00    -0.016 A 
HETATM   21  C   UNL     1      40.954  -9.814   4.781  1.00  0.00     0.026 A 
BRANCH  18  22
HETATM   22  C   UNL     1      44.478 -11.608   6.682  1.00  0.00    -0.021 C 
HETATM   23  C   UNL     1      45.689 -11.419   5.745  1.00  0.00     0.019 C 
HETATM   24  C   UNL     1      44.858 -10.961   8.041  1.00  0.00     0.019 C 
HETATM   25  C   UNL     1      44.278 -13.111   6.987  1.00  0.00     0.019 C 
ENDBRANCH  18  22
BRANCH  19  26
HETATM   26  O   UNL     1      42.527 -10.074   8.090  1.00  0.00    -0.360 OA
HETATM   27  H   UNL     1      42.228 -10.874   8.545  1.00  0.00     0.217 HD
ENDBRANCH  19  26
BRANCH  20  28
HETATM   28  C   UNL     1      40.129  -8.706   6.950  1.00  0.00    -0.021 C 
HETATM   29  C   UNL     1      39.390  -9.580   7.987  1.00  0.00     0.019 C 
HETATM   30  C   UNL     1      39.114  -8.009   6.014  1.00  0.00     0.019 C 
HETATM   31  C   UNL     1      40.790  -7.555   7.759  1.00  0.00     0.019 C 
ENDBRANCH  20  28
ENDBRANCH  14  16
ENDBRANCH  13  14
ENDBRANCH   1  13
BRANCH   6  32
HETATM   32  C   UNL     1      42.062 -16.661   2.012  1.00  0.00     0.175 C 
BRANCH  32  33
HETATM   33  C   UNL     1      43.532 -16.888   2.426  1.00  0.00     0.255 C 
BRANCH  33  34
HETATM   34  N   UNL     1      43.862 -18.277   2.935  1.00  0.00    -0.070 N 
HETATM   35  H   UNL     1      44.867 -18.389   2.726  1.00  0.00     0.279 HD
HETATM   36  C   UNL     1      43.758 -18.454   4.436  1.00  0.00     0.235 C 
HETATM   37  C   UNL     1      44.414 -19.771   4.830  1.00  0.00     0.028 C 
HETATM   38  C   UNL     1      43.822 -20.953   4.068  1.00  0.00     0.003 C 
HETATM   39  C   UNL     1      43.854 -20.722   2.560  1.00  0.00     0.028 C 
HETATM   40  C   UNL     1      43.192 -19.404   2.177  1.00  0.00     0.235 C 
ENDBRANCH  33  34
ENDBRANCH  32  33
ENDBRANCH   6  32
TORSDOF 9
ENDMDL
MODEL 5
REMARK VINA RESULT:      -8.4      2.973      9.435
REMARK  9 active torsions:
REMARK  status: ('A' for Active; 'I' for Inactive)
REMARK    1  A    between atoms: C_2  and  C_3 
REMARK    2  A    between atoms: C_4  and  O_5 
REMARK    3  A    between atoms: C_6  and  C_7 
REMARK    4  A    between atoms: C_12  and  C_13 
REMARK    5  A    between atoms: C_13  and  C_14 
REMARK    6  A    between atoms: C_14  and  N_15 
REMARK    7  A    between atoms: N_20  and  C_21 
REMARK    8  A    between atoms: C_21  and  C_22 
REMARK    9  A    between atoms: C_22  and  N_23 
ROOT
HETATM    1  N   UNL     1      40.778 -13.214   4.795  1.00  0.00    -0.174 N 
HETATM    2  C   UNL     1      41.464 -14.141   5.550  1.00  0.00     0.681 A 
HETATM    3  N   UNL     1      41.953 -13.902   6.770  1.00  0.00    -0.234 N 
HETATM    4  H   UNL     1      42.501 -14.562   7.297  1.00  0.00     0.174 HD
HETATM    5  H   UNL     1      42.080 -12.918   7.039  1.00  0.00     0.174 HD
HETATM    6  N   UNL     1      41.589 -15.390   4.911  1.00  0.00    -0.180 N 
HETATM    7  C   UNL     1      41.038 -15.166   3.603  1.00  0.00     0.079 A 
HETATM    8  C   UNL     1      40.536 -13.851   3.547  1.00  0.00     0.079 A 
HETATM    9  C   UNL     1      40.953 -15.995   2.503  1.00  0.00     0.032 A 
HETATM   10  C   UNL     1      40.327 -15.497   1.353  1.00  0.00     0.002 A 
HETATM   11  C   UNL     1      39.809 -14.192   1.315  1.00  0.00     0.002 A 
HETATM   12  C   UNL     1      39.914 -13.349   2.422  1.00  0.00     0.032 A 
ENDROOT
BRANCH   1  13
HETATM   13  C   UNL     1      40.285 -11.885   5.190  1.00  0.00     0.231 C 
BRANCH  13  14
HETATM   14  C   UNL     1      41.332 -10.795   5.224  1.00  0.00     0.178 C 
HETATM   15  O   UNL     1      41.837 -10.366   4.187  1.00  0.00    -0.290 OA
BRANCH  14  16
HETATM   16  C   UNL     1      41.762 -10.290   6.563  1.00  0.00     0.013 A 
HETATM   17  C   UNL     1      40.840  -9.664   7.407  1.00  0.00     0.026 A 
HETATM   18  C   UNL     1      41.228  -9.112   8.637  1.00  0.00    -0.016 A 
HETATM   19  C   UNL     1      42.603  -9.207   8.978  1.00  0.00     0.079 A 
HETATM   20  C   UNL     1      43.568  -9.865   8.168  1.00  0.00    -0.016 A 
HETATM   21  C   UNL     1      43.097 -10.418   6.956  1.00  0.00     0.026 A 
BRANCH  18  22
HETATM   22  C   UNL     1      40.182  -8.406   9.545  1.00  0.00    -0.021 C 
HETATM   23  C   UNL     1      38.872  -8.220   8.753  1.00  0.00     0.019 C 
HETATM   24  C   UNL     1      39.824  -9.219  10.819  1.00  0.00     0.019 C 
HETATM   25  C   UNL     1      40.683  -7.037  10.062  1.00  0.00     0.019 C 
ENDBRANCH  18  22
BRANCH  19  26
HETATM   26  O   UNL     1      42.969  -8.576  10.131  1.00  0.00    -0.360 OA
HETATM   27  H   UNL     1      42.516  -7.723  10.202  1.00  0.00     0.217 HD
ENDBRANCH  19  26
BRANCH  20  28
HETATM   28  C   UNL     1      45.073  -9.978   8.542  1.00  0.00    -0.021 C 
HETATM   29  C   UNL     1      45.762 -11.017   7.630  1.00  0.00     0.019 C 
HETATM   30  C   UNL     1      45.276 -10.351  10.029  1.00  0.00     0.019 C 
HETATM   31  C   UNL     1      45.862  -8.653   8.346  1.00  0.00     0.019 C 
ENDBRANCH  20  28
ENDBRANCH  14  16
ENDBRANCH  13  14
ENDBRANCH   1  13
BRANCH   6  32
HETATM   32  C   UNL     1      42.116 -16.612   5.544  1.00  0.00     0.175 C 
BRANCH  32  33
HETATM   33  C   UNL     1      43.477 -17.130   5.028  1.00  0.00     0.255 C 
BRANCH  33  34
HETATM   34  N   UNL     1      43.432 -18.433   4.256  1.00  0.00    -0.070 N 
HETATM   35  H   UNL     1      42.459 -18.759   4.368  1.00  0.00     0.279 HD
HETATM   36  C   UNL     1      43.625 -18.302   2.759  1.00  0.00     0.235 C 
HETATM   37  C   UNL     1      43.243 -19.615   2.090  1.00  0.00     0.028 C 
HETATM   38  C   UNL     1      44.016 -20.797   2.668  1.00  0.00     0.003 C 
HETATM   39  C   UNL     1      43.884 -20.864   4.187  1.00  0.00     0.028 C 
HETATM   40  C   UNL     1      44.272 -19.547   4.847  1.00  0.00     0.235 C 
ENDBRANCH  33  34
ENDBRANCH  32  33
ENDBRANCH   6  32
TORSDOF 9
ENDMDL
MODEL 6
REMARK VINA RESULT:      -8.4      4.543      8.373
REMARK  9 active torsions:
REMARK  status: ('A' for Active; 'I' for Inactive)
REMARK    1  A    between atoms: C_2  and  C_3 
REMARK    2  A    between atoms: C_4  and  O_5 
REMARK    3  A    between atoms: C_6  and  C_7 
REMARK    4  A    between atoms: C_12  and  C_13 
REMARK    5  A    between atoms: C_13  and  C_14 
REMARK    6  A    between atoms: C_14  and  N_15 
REMARK    7  A    between atoms: N_20  and  C_21 
REMARK    8  A    between atoms: C_21  and  C_22 
REMARK    9  A    between atoms: C_22  and  N_23 
ROOT
HETATM    1  N   UNL     1      40.867 -13.975   5.064  1.00  0.00    -0.174 N 
HETATM    2  C   UNL     1      41.037 -15.199   5.674  1.00  0.00     0.681 A 
HETATM    3  N   UNL     1      40.143 -16.191   5.628  1.00  0.00    -0.234 N 
HETATM    4  H   UNL     1      40.245 -17.063   6.120  1.00  0.00     0.174 HD
HETATM    5  H   UNL     1      39.178 -15.940   5.380  1.00  0.00     0.174 HD
HETATM    6  N   UNL     1      42.269 -15.314   6.347  1.00  0.00    -0.180 N 
HETATM    7  C   UNL     1      42.845 -14.002   6.242  1.00  0.00     0.079 A 
HETATM    8  C   UNL     1      41.997 -13.203   5.450  1.00  0.00     0.079 A 
HETATM    9  C   UNL     1      44.007 -13.479   6.770  1.00  0.00     0.032 A 
HETATM   10  C   UNL     1      44.325 -12.149   6.467  1.00  0.00     0.002 A 
HETATM   11  C   UNL     1      43.485 -11.366   5.659  1.00  0.00     0.002 A 
HETATM   12  C   UNL     1      42.300 -11.892   5.141  1.00  0.00     0.032 A 
ENDROOT
BRANCH   1  13
HETATM   13  C   UNL     1      39.820 -13.550   4.122  1.00  0.00     0.231 C 
BRANCH  13  14
HETATM   14  C   UNL     1      39.878 -14.204   2.759  1.00  0.00     0.178 C 
HETATM   15  O   UNL     1      39.884 -15.429   2.641  1.00  0.00    -0.290 OA
BRANCH  14  16
HETATM   16  C   UNL     1      39.971 -13.309   1.566  1.00  0.00     0.013 A 
HETATM   17  C   UNL     1      40.238 -11.946   1.729  1.00  0.00     0.026 A 
HETATM   18  C   UNL     1      40.257 -11.066   0.637  1.00  0.00    -0.016 A 
HETATM   19  C   UNL     1      39.979 -11.622  -0.639  1.00  0.00     0.079 A 
HETATM   20  C   UNL     1      39.738 -13.005  -0.857  1.00  0.00    -0.016 A 
HETATM   21  C   UNL     1      39.760 -13.833   0.288  1.00  0.00     0.026 A 
BRANCH  18  22
HETATM   22  C   UNL     1      40.539  -9.553   0.854  1.00  0.00    -0.021 C 
HETATM   23  C   UNL     1      40.948  -9.322   2.323  1.00  0.00     0.019 C 
HETATM   24  C   UNL     1      41.699  -9.011  -0.024  1.00  0.00     0.019 C 
HETATM   25  C   UNL     1      39.316  -8.673   0.504  1.00  0.00     0.019 C 
ENDBRANCH  18  22
BRANCH  19  26
HETATM   26  O   UNL     1      39.907 -10.728  -1.668  1.00  0.00    -0.360 OA
HETATM   27  H   UNL     1      39.146 -10.932  -2.232  1.00  0.00     0.217 HD
ENDBRANCH  19  26
BRANCH  20  28
HETATM   28  C   UNL     1      39.441 -13.619  -2.255  1.00  0.00    -0.021 C 
HETATM   29  C   UNL     1      39.074 -15.112  -2.103  1.00  0.00     0.019 C 
HETATM   30  C   UNL     1      40.633 -13.455  -3.226  1.00  0.00     0.019 C 
HETATM   31  C   UNL     1      38.235 -12.957  -2.979  1.00  0.00     0.019 C 
ENDBRANCH  20  28
ENDBRANCH  14  16
ENDBRANCH  13  14
ENDBRANCH   1  13
BRANCH   6  32
HETATM   32  C   UNL     1      42.795 -16.558   6.938  1.00  0.00     0.175 C 
BRANCH  32  33
HETATM   33  C   UNL     1      43.955 -17.247   6.186  1.00  0.00     0.255 C 
BRANCH  33  34
HETATM   34  N   UNL     1      43.574 -17.961   4.905  1.00  0.00    -0.070 N 
HETATM   35  H   UNL     1      42.598 -18.258   5.064  1.00  0.00     0.279 HD
HETATM   36  C   UNL     1      43.515 -17.085   3.672  1.00  0.00     0.235 C 
HETATM   37  C   UNL     1      42.823 -17.847   2.550  1.00  0.00     0.028 C 
HETATM   38  C   UNL     1      43.495 -19.188   2.272  1.00  0.00     0.003 C 
HETATM   39  C   UNL     1      43.627 -20.024   3.542  1.00  0.00     0.028 C 
HETATM   40  C   UNL     1      44.324 -19.254   4.655  1.00  0.00     0.235 C 
ENDBRANCH  33  34
ENDBRANCH  32  33
ENDBRANCH   6  32
TORSDOF 9
ENDMDL
MODEL 7
REMARK VINA RESULT:      -8.4      3.194      6.919
REMARK  9 active torsions:
REMARK  status: ('A' for Active; 'I' for Inactive)
REMARK    1  A    between atoms: C_2  and  C_3 
REMARK    2  A    between atoms: C_4  and  O_5 
REMARK    3  A    between atoms: C_6  and  C_7 
REMARK    4  A    between atoms: C_12  and  C_13 
REMARK    5  A    between atoms: C_13  and  C_14 
REMARK    6  A    between atoms: C_14  and  N_15 
REMARK    7  A    between atoms: N_20  and  C_21 
REMARK    8  A    between atoms: C_21  and  C_22 
REMARK    9  A    between atoms: C_22  and  N_23 
ROOT
HETATM    1  N   UNL     1      43.003 -14.948   3.333  1.00  0.00    -0.174 N 
HETATM    2  C   UNL     1      43.112 -13.744   3.994  1.00  0.00     0.681 A 
HETATM    3  N   UNL     1      43.026 -12.550   3.399  1.00  0.00    -0.234 N 
HETATM    4  H   UNL     1      43.160 -11.673   3.874  1.00  0.00     0.174 HD
HETATM    5  H   UNL     1      43.176 -12.523   2.383  1.00  0.00     0.174 HD
HETATM    6  N   UNL     1      43.306 -13.890   5.381  1.00  0.00    -0.180 N 
HETATM    7  C   UNL     1      43.452 -15.308   5.562  1.00  0.00     0.079 A 
HETATM    8  C   UNL     1      43.252 -15.941   4.320  1.00  0.00     0.079 A 
HETATM    9  C   UNL     1      43.741 -16.051   6.688  1.00  0.00     0.032 A 
HETATM   10  C   UNL     1      43.794 -17.446   6.558  1.00  0.00     0.002 A 
HETATM   11  C   UNL     1      43.571 -18.069   5.320  1.00  0.00     0.002 A 
HETATM   12  C   UNL     1      43.299 -17.314   4.179  1.00  0.00     0.032 A 
ENDROOT
BRANCH   1  13
HETATM   13  C   UNL     1      42.609 -15.204   1.939  1.00  0.00     0.231 C 
BRANCH  13  14
HETATM   14  C   UNL     1      41.132 -15.444   1.722  1.00  0.00     0.178 C 
HETATM   15  O   UNL     1      40.614 -16.521   2.012  1.00  0.00    -0.290 OA
BRANCH  14  16
HETATM   16  C   UNL     1      40.336 -14.342   1.102  1.00  0.00     0.013 A 
HETATM   17  C   UNL     1      39.894 -14.452  -0.219  1.00  0.00     0.026 A 
HETATM   18  C   UNL     1      39.210 -13.405  -0.855  1.00  0.00    -0.016 A 
HETATM   19  C   UNL     1      39.002 -12.223  -0.098  1.00  0.00     0.079 A 
HETATM   20  C   UNL     1      39.403 -12.078   1.258  1.00  0.00    -0.016 A 
HETATM   21  C   UNL     1      40.063 -13.185   1.838  1.00  0.00     0.026 A 
BRANCH  18  22
HETATM   22  C   UNL     1      38.747 -13.553  -2.331  1.00  0.00    -0.021 C 
HETATM   23  C   UNL     1      39.642 -12.677  -3.231  1.00  0.00     0.019 C 
HETATM   24  C   UNL     1      38.856 -15.005  -2.869  1.00  0.00     0.019 C 
HETATM   25  C   UNL     1      37.263 -13.158  -2.522  1.00  0.00     0.019 C 
ENDBRANCH  18  22
BRANCH  19  26
HETATM   26  O   UNL     1      38.424 -11.185  -0.771  1.00  0.00    -0.360 OA
HETATM   27  H   UNL     1      39.065 -10.471  -0.895  1.00  0.00     0.217 HD
ENDBRANCH  19  26
BRANCH  20  28
HETATM   28  C   UNL     1      39.170 -10.787   2.093  1.00  0.00    -0.021 C 
HETATM   29  C   UNL     1      39.527 -11.050   3.573  1.00  0.00     0.019 C 
HETATM   30  C   UNL     1      37.715 -10.274   1.975  1.00  0.00     0.019 C 
HETATM   31  C   UNL     1      40.058  -9.592   1.647  1.00  0.00     0.019 C 
ENDBRANCH  20  28
ENDBRANCH  14  16
ENDBRANCH  13  14
ENDBRANCH   1  13
BRANCH   6  32
HETATM   32  C   UNL     1      43.282 -12.787   6.358  1.00  0.00     0.175 C 
BRANCH  32  33
HETATM   33  C   UNL     1      44.650 -12.260   6.844  1.00  0.00     0.255 C 
BRANCH  33  34
HETATM   34  N   UNL     1      44.605 -10.999   7.686  1.00  0.00    -0.070 N 
HETATM   35  H   UNL     1      44.489 -11.346   8.651  1.00  0.00     0.279 HD
HETATM   36  C   UNL     1      45.889 -10.198   7.714  1.00  0.00     0.235 C 
HETATM   37  C   UNL     1      45.806  -9.162   8.827  1.00  0.00     0.028 C 
HETATM   38  C   UNL     1      44.575  -8.271   8.685  1.00  0.00     0.003 C 
HETATM   39  C   UNL     1      43.296  -9.095   8.569  1.00  0.00     0.028 C 
HETATM   40  C   UNL     1      43.389 -10.126   7.452  1.00  0.00     0.235 C 
ENDBRANCH  33  34
ENDBRANCH  32  33
ENDBRANCH   6  32
TORSDOF 9
ENDMDL
MODEL 8
REMARK VINA RESULT:      -8.4      2.961      9.348
REMARK  9 active torsions:
REMARK  status: ('A' for Active; 'I' for Inactive)
REMARK    1  A    between atoms: C_2  and  C_3 
REMARK    2  A    between atoms: C_4  and  O_5 
REMARK    3  A    between atoms: C_6  and  C_7 
REMARK    4  A    between atoms: C_12  and  C_13 
REMARK    5  A    between atoms: C_13  and  C_14 
REMARK    6  A    between atoms: C_14  and  N_15 
REMARK    7  A    between atoms: N_20  and  C_21 
REMARK    8  A    between atoms: C_21  and  C_22 
REMARK    9  A    between atoms: C_22  and  N_23 
ROOT
HETATM    1  N   UNL     1      40.753 -13.160   4.858  1.00  0.00    -0.174 N 
HETATM    2  C   UNL     1      41.457 -14.097   5.583  1.00  0.00     0.681 A 
HETATM    3  N   UNL     1      41.941 -13.887   6.811  1.00  0.00    -0.234 N 
HETATM    4  H   UNL     1      42.503 -14.552   7.316  1.00  0.00     0.174 HD
HETATM    5  H   UNL     1      42.048 -12.910   7.110  1.00  0.00     0.174 HD
HETATM    6  N   UNL     1      41.607 -15.322   4.905  1.00  0.00    -0.180 N 
HETATM    7  C   UNL     1      41.052 -15.068   3.605  1.00  0.00     0.079 A 
HETATM    8  C   UNL     1      40.523 -13.762   3.590  1.00  0.00     0.079 A 
HETATM    9  C   UNL     1      40.983 -15.863   2.479  1.00  0.00     0.032 A 
HETATM   10  C   UNL     1      40.347 -15.341   1.345  1.00  0.00     0.002 A 
HETATM   11  C   UNL     1      39.803 -14.046   1.347  1.00  0.00     0.002 A 
HETATM   12  C   UNL     1      39.891 -13.237   2.481  1.00  0.00     0.032 A 
ENDROOT
BRANCH   1  13
HETATM   13  C   UNL     1      40.233 -11.855   5.294  1.00  0.00     0.231 C 
BRANCH  13  14
HETATM   14  C   UNL     1      41.217 -10.710   5.210  1.00  0.00     0.178 C 
HETATM   15  O   UNL     1      41.611 -10.290   4.123  1.00  0.00    -0.290 OA
BRANCH  14  16
HETATM   16  C   UNL     1      41.726 -10.140   6.494  1.00  0.00     0.013 A 
HETATM   17  C   UNL     1      43.070 -10.291   6.846  1.00  0.00     0.026 A 
HETATM   18  C   UNL     1      43.563  -9.834   8.078  1.00  0.00    -0.016 A 
HETATM   19  C   UNL     1      42.629  -9.223   8.954  1.00  0.00     0.079 A 
HETATM   20  C   UNL     1      41.263  -9.016   8.625  1.00  0.00    -0.016 A 
HETATM   21  C   UNL     1      40.846  -9.481   7.357  1.00  0.00     0.026 A 
BRANCH  18  22
HETATM   22  C   UNL     1      45.060 -10.034   8.447  1.00  0.00    -0.021 C 
HETATM   23  C   UNL     1      45.676 -11.084   7.499  1.00  0.00     0.019 C 
HETATM   24  C   UNL     1      45.908  -8.743   8.298  1.00  0.00     0.019 C 
HETATM   25  C   UNL     1      45.246 -10.478   9.917  1.00  0.00     0.019 C 
ENDBRANCH  18  22
BRANCH  19  26
HETATM   26  O   UNL     1      43.113  -8.878  10.184  1.00  0.00    -0.360 OA
HETATM   27  H   UNL     1      42.635  -9.358  10.875  1.00  0.00     0.217 HD
ENDBRANCH  19  26
BRANCH  20  28
HETATM   28  C   UNL     1      40.238  -8.341   9.580  1.00  0.00    -0.021 C 
HETATM   29  C   UNL     1      40.801  -6.993  10.082  1.00  0.00     0.019 C 
HETATM   30  C   UNL     1      39.874  -9.250  10.777  1.00  0.00     0.019 C 
HETATM   31  C   UNL     1      38.881  -8.007   8.899  1.00  0.00     0.019 C 
ENDBRANCH  20  28
ENDBRANCH  14  16
ENDBRANCH  13  14
ENDBRANCH   1  13
BRANCH   6  32
HETATM   32  C   UNL     1      42.158 -16.554   5.498  1.00  0.00     0.175 C 
BRANCH  32  33
HETATM   33  C   UNL     1      43.498 -17.063   4.922  1.00  0.00     0.255 C 
BRANCH  33  34
HETATM   34  N   UNL     1      43.437 -18.397   4.205  1.00  0.00    -0.070 N 
HETATM   35  H   UNL     1      42.461 -18.707   4.333  1.00  0.00     0.279 HD
HETATM   36  C   UNL     1      43.628 -18.331   2.704  1.00  0.00     0.235 C 
HETATM   37  C   UNL     1      43.230 -19.667   2.091  1.00  0.00     0.028 C 
HETATM   38  C   UNL     1      43.992 -20.831   2.718  1.00  0.00     0.003 C 
HETATM   39  C   UNL     1      43.863 -20.834   4.238  1.00  0.00     0.028 C 
HETATM   40  C   UNL     1      44.266 -19.494   4.841  1.00  0.00     0.235 C 
ENDBRANCH  33  34
ENDBRANCH  32  33
ENDBRANCH   6  32
TORSDOF 9
ENDMDL
MODEL 9
REMARK VINA RESULT:      -8.3      2.616      9.226
REMARK  9 active torsions:
REMARK  status: ('A' for Active; 'I' for Inactive)
REMARK    1  A    between atoms: C_2  and  C_3 
REMARK    2  A    between atoms: C_4  and  O_5 
REMARK    3  A    between atoms: C_6  and  C_7 
REMARK    4  A    between atoms: C_12  and  C_13 
REMARK    5  A    between atoms: C_13  and  C_14 
REMARK    6  A    between atoms: C_14  and  N_15 
REMARK    7  A    between atoms: N_20  and  C_21 
REMARK    8  A    between atoms: C_21  and  C_22 
REMARK    9  A    between atoms: C_22  and  N_23 
ROOT
HETATM    1  N   UNL     1      42.877 -12.063   5.774  1.00  0.00    -0.174 N 
HETATM    2  C   UNL     1      41.748 -11.766   5.042  1.00  0.00     0.681 A 
HETATM    3  N   UNL     1      41.524 -10.587   4.452  1.00  0.00    -0.234 N 
HETATM    4  H   UNL     1      40.675 -10.354   3.965  1.00  0.00     0.174 HD
HETATM    5  H   UNL     1      42.065  -9.784   4.794  1.00  0.00     0.174 HD
HETATM    6  N   UNL     1      40.846 -12.844   4.956  1.00  0.00    -0.180 N 
HETATM    7  C   UNL     1      41.418 -13.843   5.814  1.00  0.00     0.079 A 
HETATM    8  C   UNL     1      42.655 -13.368   6.292  1.00  0.00     0.079 A 
HETATM    9  C   UNL     1      40.951 -15.085   6.194  1.00  0.00     0.032 A 
HETATM   10  C   UNL     1      41.758 -15.860   7.036  1.00  0.00     0.002 A 
HETATM   11  C   UNL     1      43.000 -15.387   7.490  1.00  0.00     0.002 A 
HETATM   12  C   UNL     1      43.461 -14.123   7.121  1.00  0.00     0.032 A 
ENDROOT
BRANCH   1  13
HETATM   13  C   UNL     1      44.113 -11.279   5.924  1.00  0.00     0.231 C 
BRANCH  13  14
HETATM   14  C   UNL     1      44.488 -10.937   7.348  1.00  0.00     0.178 C 
HETATM   15  O   UNL     1      45.510 -11.392   7.863  1.00  0.00    -0.290 OA
BRANCH  14  16
HETATM   16  C   UNL     1      43.552 -10.065   8.120  1.00  0.00     0.013 A 
HETATM   17  C   UNL     1      42.835  -9.057   7.471  1.00  0.00     0.026 A 
HETATM   18  C   UNL     1      42.007  -8.173   8.179  1.00  0.00    -0.016 A 
HETATM   19  C   UNL     1      41.943  -8.341   9.586  1.00  0.00     0.079 A 
HETATM   20  C   UNL     1      42.627  -9.373  10.284  1.00  0.00    -0.016 A 
HETATM   21  C   UNL     1      43.422 -10.240   9.501  1.00  0.00     0.026 A 
BRANCH  18  22
HETATM   22  C   UNL     1      41.235  -7.051   7.428  1.00  0.00    -0.021 C 
HETATM   23  C   UNL     1      41.495  -7.186   5.914  1.00  0.00     0.019 C 
HETATM   24  C   UNL     1      39.696  -7.123   7.627  1.00  0.00     0.019 C 
HETATM   25  C   UNL     1      41.642  -5.638   7.909  1.00  0.00     0.019 C 
ENDBRANCH  18  22
BRANCH  19  26
HETATM   26  O   UNL     1      41.210  -7.407  10.260  1.00  0.00    -0.360 OA
HETATM   27  H   UNL     1      41.333  -7.513  11.214  1.00  0.00     0.217 HD
ENDBRANCH  19  26
BRANCH  20  28
HETATM   28  C   UNL     1      42.555  -9.565  11.826  1.00  0.00    -0.021 C 
HETATM   29  C   UNL     1      41.084  -9.749  12.262  1.00  0.00     0.019 C 
HETATM   30  C   UNL     1      43.197  -8.382  12.589  1.00  0.00     0.019 C 
HETATM   31  C   UNL     1      43.308 -10.828  12.329  1.00  0.00     0.019 C 
ENDBRANCH  20  28
ENDBRANCH  14  16
ENDBRANCH  13  14
ENDBRANCH   1  13
BRANCH   6  32
HETATM   32  C   UNL     1      39.646 -12.874   4.100  1.00  0.00     0.175 C 
BRANCH  32  33
HETATM   33  C   UNL     1      39.788 -13.574   2.730  1.00  0.00     0.255 C 
BRANCH  33  34
HETATM   34  N   UNL     1      40.999 -14.472   2.575  1.00  0.00    -0.070 N 
HETATM   35  H   UNL     1      41.406 -14.510   3.523  1.00  0.00     0.279 HD
HETATM   36  C   UNL     1      40.692 -15.914   2.229  1.00  0.00     0.235 C 
HETATM   37  C   UNL     1      41.949 -16.752   2.420  1.00  0.00     0.028 C 
HETATM   38  C   UNL     1      43.126 -16.205   1.616  1.00  0.00     0.003 C 
HETATM   39  C   UNL     1      43.368 -14.728   1.910  1.00  0.00     0.028 C 
HETATM   40  C   UNL     1      42.105 -13.899   1.713  1.00  0.00     0.235 C 
ENDBRANCH  33  34
ENDBRANCH  32  33
ENDBRANCH   6  32
TORSDOF 9
ENDMDL
MODEL 10
REMARK VINA RESULT:      -8.3      4.595      8.829
REMARK  9 active torsions:
REMARK  status: ('A' for Active; 'I' for Inactive)
REMARK    1  A    between atoms: C_2  and  C_3 
REMARK    2  A    between atoms: C_4  and  O_5 
REMARK    3  A    between atoms: C_6  and  C_7 
REMARK    4  A    between atoms: C_12  and  C_13 
REMARK    5  A    between atoms: C_13  and  C_14 
REMARK    6  A    between atoms: C_14  and  N_15 
REMARK    7  A    between atoms: N_20  and  C_21 
REMARK    8  A    between atoms: C_21  and  C_22 
REMARK    9  A    between atoms: C_22  and  N_23 
ROOT
HETATM    1  N   UNL     1      40.863 -14.153   5.024  1.00  0.00    -0.174 N 
HETATM    2  C   UNL     1      41.027 -15.419   5.544  1.00  0.00     0.681 A 
HETATM    3  N   UNL     1      40.137 -16.406   5.412  1.00  0.00    -0.234 N 
HETATM    4  H   UNL     1      40.234 -17.313   5.839  1.00  0.00     0.174 HD
HETATM    5  H   UNL     1      39.175 -16.139   5.169  1.00  0.00     0.174 HD
HETATM    6  N   UNL     1      42.250 -15.582   6.224  1.00  0.00    -0.180 N 
HETATM    7  C   UNL     1      42.824 -14.265   6.224  1.00  0.00     0.079 A 
HETATM    8  C   UNL     1      41.985 -13.410   5.483  1.00  0.00     0.079 A 
HETATM    9  C   UNL     1      43.978 -13.781   6.807  1.00  0.00     0.032 A 
HETATM   10  C   UNL     1      44.297 -12.431   6.608  1.00  0.00     0.002 A 
HETATM   11  C   UNL     1      43.466 -11.592   5.848  1.00  0.00     0.002 A 
HETATM   12  C   UNL     1      42.290 -12.080   5.276  1.00  0.00     0.032 A 
ENDROOT
BRANCH   1  13
HETATM   13  C   UNL     1      39.828 -13.662   4.101  1.00  0.00     0.231 C 
BRANCH  13  14
HETATM   14  C   UNL     1      40.003 -14.077   2.658  1.00  0.00     0.178 C 
HETATM   15  O   UNL     1      40.295 -15.236   2.361  1.00  0.00    -0.290 OA
BRANCH  14  16
HETATM   16  C   UNL     1      39.854 -13.022   1.611  1.00  0.00     0.013 A 
HETATM   17  C   UNL     1      39.830 -13.373   0.258  1.00  0.00     0.026 A 
HETATM   18  C   UNL     1      39.767 -12.400  -0.751  1.00  0.00    -0.016 A 
HETATM   19  C   UNL     1      39.743 -11.044  -0.335  1.00  0.00     0.079 A 
HETATM   20  C   UNL     1      39.730 -10.642   1.028  1.00  0.00    -0.016 A 
HETATM   21  C   UNL     1      39.770 -11.678   1.988  1.00  0.00     0.026 A 
BRANCH  18  22
HETATM   22  C   UNL     1      39.759 -12.823  -2.247  1.00  0.00    -0.021 C 
HETATM   23  C   UNL     1      39.585 -14.352  -2.338  1.00  0.00     0.019 C 
HETATM   24  C   UNL     1      38.597 -12.190  -3.060  1.00  0.00     0.019 C 
HETATM   25  C   UNL     1      41.051 -12.396  -2.983  1.00  0.00     0.019 C 
ENDBRANCH  18  22
BRANCH  19  26
HETATM   26  O   UNL     1      39.782 -10.118  -1.338  1.00  0.00    -0.360 OA
HETATM   27  H   UNL     1      39.207 -10.394  -2.066  1.00  0.00     0.217 HD
ENDBRANCH  19  26
BRANCH  20  28
HETATM   28  C   UNL     1      39.697  -9.157   1.489  1.00  0.00    -0.021 C 
HETATM   29  C   UNL     1      39.927  -9.077   3.014  1.00  0.00     0.019 C 
HETATM   30  C   UNL     1      38.368  -8.462   1.109  1.00  0.00     0.019 C 
HETATM   31  C   UNL     1      40.809  -8.283   0.845  1.00  0.00     0.019 C 
ENDBRANCH  20  28
ENDBRANCH  14  16
ENDBRANCH  13  14
ENDBRANCH   1  13
BRANCH   6  32
HETATM   32  C   UNL     1      42.771 -16.865   6.728  1.00  0.00     0.175 C 
BRANCH  32  33
HETATM   33  C   UNL     1      43.967 -17.477   5.966  1.00  0.00     0.255 C 
BRANCH  33  34
HETATM   34  N   UNL     1      43.613 -18.299   4.742  1.00  0.00    -0.070 N 
HETATM   35  H   UNL     1      42.642 -18.604   4.916  1.00  0.00     0.279 HD
HETATM   36  C   UNL     1      43.546 -17.523   3.443  1.00  0.00     0.235 C 
HETATM   37  C   UNL     1      42.880 -18.386   2.379  1.00  0.00     0.028 C 
HETATM   38  C   UNL     1      43.585 -19.730   2.213  1.00  0.00     0.003 C 
HETATM   39  C   UNL     1      43.723 -20.461   3.545  1.00  0.00     0.028 C 
HETATM   40  C   UNL     1      44.393 -19.590   4.600  1.00  0.00     0.235 C 
ENDBRANCH  33  34
ENDBRANCH  32  33
ENDBRANCH   6  32
TORSDOF 9
ENDMDL
