MODEL 1
REMARK VINA RESULT:      -9.3      0.000      0.000
REMARK  3 active torsions:
REMARK  status: ('A' for Active; 'I' for Inactive)
REMARK    1  A    between atoms: C_5  and  C_6 
REMARK       I    between atoms: C_6  and  N_7 
REMARK    2  A    between atoms: N_7  and  C_8 
REMARK    3  A    between atoms: C_15  and  C_16 
REMARK       I    between atoms: C_16  and  N_17 
ROOT
HETATM    1  C   UNL     1      40.645 -14.681   2.140  1.00  0.00     0.036 A 
HETATM    2  C   UNL     1      40.382 -14.803   0.768  1.00  0.00     0.046 A 
HETATM    3  C   UNL     1      39.587 -13.831   0.121  1.00  0.00     0.030 A 
HETATM    4  C   UNL     1      39.081 -12.773   0.865  1.00  0.00     0.063 A 
HETATM    5  N   UNL     1      38.366 -12.016  -0.021  1.00  0.00    -0.277 N 
HETATM    6  H   UNL     1      37.856 -11.161   0.175  1.00  0.00     0.189 HD
HETATM    7  N   UNL     1      38.360 -12.485  -1.278  1.00  0.00    -0.168 NA
HETATM    8  C   UNL     1      39.111 -13.608  -1.208  1.00  0.00     0.156 A 
HETATM    9  C   UNL     1      39.320 -12.619   2.230  1.00  0.00     0.034 A 
HETATM   10  C   UNL     1      40.112 -13.595   2.849  1.00  0.00     0.032 A 
ENDROOT
BRANCH   1  11
HETATM   11  N   UNL     1      41.428 -15.592   2.883  1.00  0.00    -0.322 N 
HETATM   12  C   UNL     1      42.802 -15.760   2.868  1.00  0.00     0.276 C 
HETATM   13  O   UNL     1      43.555 -15.094   2.167  1.00  0.00    -0.266 OA
HETATM   14  H   UNL     1      40.906 -16.199   3.502  1.00  0.00     0.169 HD
BRANCH  12  15
HETATM   15  C   UNL     1      43.307 -16.787   3.762  1.00  0.00     0.150 A 
HETATM   16  N   UNL     1      43.419 -18.137   3.437  1.00  0.00    -0.299 N 
HETATM   17  C   UNL     1      43.938 -18.784   4.558  1.00  0.00     0.136 A 
HETATM   18  C   UNL     1      43.123 -18.829   2.256  1.00  0.00     0.099 A 
HETATM   19  C   UNL     1      44.153 -20.189   4.479  1.00  0.00     0.051 A 
HETATM   20  N   UNL     1      44.152 -17.948   5.545  1.00  0.00    -0.216 NA
HETATM   21  C   UNL     1      43.861 -20.850   3.343  1.00  0.00     0.005 A 
HETATM   22  C   UNL     1      43.330 -20.156   2.185  1.00  0.00     0.018 A 
HETATM   23  C   UNL     1      43.764 -16.725   5.072  1.00  0.00     0.161 A 
HETATM   24 CL   UNL     1      43.877 -15.356   6.090  1.00  0.00    -0.060 Cl
ENDBRANCH  12  15
ENDBRANCH   1  11
BRANCH   8  25
HETATM   25  C   UNL     1      39.355 -14.434  -2.398  1.00  0.00     0.270 C 
HETATM   26  N   UNL     1      38.562 -15.547  -2.477  1.00  0.00    -0.365 N 
HETATM   27  H   UNL     1      37.891 -15.718  -1.738  1.00  0.00     0.159 HD
HETATM   28  H   UNL     1      38.659 -16.175  -3.258  1.00  0.00     0.159 HD
HETATM   29  O   UNL     1      40.185 -14.183  -3.266  1.00  0.00    -0.266 OA
ENDBRANCH   8  25
TORSDOF 3
ENDMDL
MODEL 2
REMARK VINA RESULT:      -8.7      2.435      8.011
REMARK  3 active torsions:
REMARK  status: ('A' for Active; 'I' for Inactive)
REMARK    1  A    between atoms: C_5  and  C_6 
REMARK       I    between atoms: C_6  and  N_7 
REMARK    2  A    between atoms: N_7  and  C_8 
REMARK    3  A    between atoms: C_15  and  C_16 
REMARK       I    between atoms: C_16  and  N_17 
ROOT
HETATM    1  C   UNL     1      42.464 -16.014   2.542  1.00  0.00     0.036 A 
HETATM    2  C   UNL     1      42.298 -15.900   3.930  1.00  0.00     0.046 A 
HETATM    3  C   UNL     1      42.838 -16.891   4.780  1.00  0.00     0.030 A 
HETATM    4  C   UNL     1      43.522 -17.960   4.215  1.00  0.00     0.063 A 
HETATM    5  N   UNL     1      43.917 -18.736   5.270  1.00  0.00    -0.277 N 
HETATM    6  H   UNL     1      44.443 -19.602   5.231  1.00  0.00     0.189 HD
HETATM    7  N   UNL     1      43.552 -18.268   6.473  1.00  0.00    -0.168 NA
HETATM    8  C   UNL     1      42.883 -17.127   6.188  1.00  0.00     0.156 A 
HETATM    9  C   UNL     1      43.705 -18.107   2.841  1.00  0.00     0.034 A 
HETATM   10  C   UNL     1      43.162 -17.111   2.019  1.00  0.00     0.032 A 
ENDROOT
BRANCH   1  11
HETATM   11  N   UNL     1      41.968 -15.080   1.605  1.00  0.00    -0.322 N 
HETATM   12  C   UNL     1      40.652 -14.754   1.327  1.00  0.00     0.276 C 
HETATM   13  O   UNL     1      39.695 -15.263   1.899  1.00  0.00    -0.266 OA
HETATM   14  H   UNL     1      42.675 -14.594   1.069  1.00  0.00     0.169 HD
BRANCH  12  15
HETATM   15  C   UNL     1      40.471 -13.740   0.303  1.00  0.00     0.150 A 
HETATM   16  N   UNL     1      39.853 -13.955  -0.927  1.00  0.00    -0.299 N 
HETATM   17  C   UNL     1      39.886 -12.743  -1.617  1.00  0.00     0.136 A 
HETATM   18  C   UNL     1      39.265 -15.102  -1.476  1.00  0.00     0.099 A 
HETATM   19  C   UNL     1      39.306 -12.699  -2.916  1.00  0.00     0.051 A 
HETATM   20  N   UNL     1      40.470 -11.802  -0.917  1.00  0.00    -0.216 NA
HETATM   21  C   UNL     1      38.747 -13.805  -3.440  1.00  0.00     0.005 A 
HETATM   22  C   UNL     1      38.718 -15.054  -2.703  1.00  0.00     0.018 A 
HETATM   23  C   UNL     1      40.839 -12.401   0.257  1.00  0.00     0.161 A 
HETATM   24 CL   UNL     1      41.660 -11.487   1.446  1.00  0.00    -0.060 Cl
ENDBRANCH  12  15
ENDBRANCH   1  11
BRANCH   8  25
HETATM   25  C   UNL     1      42.309 -16.296   7.255  1.00  0.00     0.270 C 
HETATM   26  N   UNL     1      43.178 -16.019   8.275  1.00  0.00    -0.365 N 
HETATM   27  H   UNL     1      44.118 -16.393   8.227  1.00  0.00     0.159 HD
HETATM   28  H   UNL     1      42.872 -15.457   9.053  1.00  0.00     0.159 HD
HETATM   29  O   UNL     1      41.159 -15.869   7.267  1.00  0.00    -0.266 OA
ENDBRANCH   8  25
TORSDOF 3
ENDMDL
MODEL 3
REMARK VINA RESULT:      -8.5      2.954      8.064
REMARK  3 active torsions:
REMARK  status: ('A' for Active; 'I' for Inactive)
REMARK    1  A    between atoms: C_5  and  C_6 
REMARK       I    between atoms: C_6  and  N_7 
REMARK    2  A    between atoms: N_7  and  C_8 
REMARK    3  A    between atoms: C_15  and  C_16 
REMARK       I    between atoms: C_16  and  N_17 
ROOT
HETATM    1  C   UNL     1      42.374 -15.732   1.886  1.00  0.00     0.036 A 
HETATM    2  C   UNL     1      42.702 -17.094   1.943  1.00  0.00     0.046 A 
HETATM    3  C   UNL     1      43.309 -17.618   3.107  1.00  0.00     0.030 A 
HETATM    4  C   UNL     1      43.569 -16.764   4.170  1.00  0.00     0.063 A 
HETATM    5  N   UNL     1      44.149 -17.546   5.131  1.00  0.00    -0.277 N 
HETATM    6  H   UNL     1      44.471 -17.255   6.047  1.00  0.00     0.189 HD
HETATM    7  N   UNL     1      44.289 -18.836   4.788  1.00  0.00    -0.168 NA
HETATM    8  C   UNL     1      43.776 -18.897   3.538  1.00  0.00     0.156 A 
HETATM    9  C   UNL     1      43.259 -15.405   4.150  1.00  0.00     0.034 A 
HETATM   10  C   UNL     1      42.656 -14.909   2.986  1.00  0.00     0.032 A 
ENDROOT
BRANCH   1  11
HETATM   11  N   UNL     1      41.764 -15.108   0.775  1.00  0.00    -0.322 N 
HETATM   12  C   UNL     1      40.456 -14.678   0.640  1.00  0.00     0.276 C 
HETATM   13  O   UNL     1      39.613 -14.790   1.524  1.00  0.00    -0.266 OA
HETATM   14  H   UNL     1      42.371 -14.963  -0.021  1.00  0.00     0.169 HD
BRANCH  12  15
HETATM   15  C   UNL     1      40.137 -14.062  -0.637  1.00  0.00     0.150 A 
HETATM   16  N   UNL     1      40.458 -12.754  -0.988  1.00  0.00    -0.299 N 
HETATM   17  C   UNL     1      39.979 -12.551  -2.283  1.00  0.00     0.136 A 
HETATM   18  C   UNL     1      41.135 -11.749  -0.286  1.00  0.00     0.099 A 
HETATM   19  C   UNL     1      40.187 -11.275  -2.880  1.00  0.00     0.051 A 
HETATM   20  N   UNL     1      39.390 -13.622  -2.755  1.00  0.00    -0.216 NA
HETATM   21  C   UNL     1      40.834 -10.312  -2.198  1.00  0.00     0.005 A 
HETATM   22  C   UNL     1      41.332 -10.547  -0.855  1.00  0.00     0.018 A 
HETATM   23  C   UNL     1      39.475 -14.552  -1.755  1.00  0.00     0.161 A 
HETATM   24 CL   UNL     1      38.793 -16.101  -1.988  1.00  0.00    -0.060 Cl
ENDBRANCH  12  15
ENDBRANCH   1  11
BRANCH   8  25
HETATM   25  C   UNL     1      43.740 -20.163   2.792  1.00  0.00     0.270 C 
HETATM   26  N   UNL     1      43.957 -21.271   3.565  1.00  0.00    -0.365 N 
HETATM   27  H   UNL     1      44.122 -21.147   4.556  1.00  0.00     0.159 HD
HETATM   28  H   UNL     1      43.954 -22.185   3.140  1.00  0.00     0.159 HD
HETATM   29  O   UNL     1      43.537 -20.259   1.587  1.00  0.00    -0.266 OA
ENDBRANCH   8  25
TORSDOF 3
ENDMDL
MODEL 4
REMARK VINA RESULT:      -8.5      2.013      2.727
REMARK  3 active torsions:
REMARK  status: ('A' for Active; 'I' for Inactive)
REMARK    1  A    between atoms: C_5  and  C_6 
REMARK       I    between atoms: C_6  and  N_7 
REMARK    2  A    between atoms: N_7  and  C_8 
REMARK    3  A    between atoms: C_15  and  C_16 
REMARK       I    between atoms: C_16  and  N_17 
ROOT
HETATM    1  C   UNL     1      41.175 -14.424   1.283  1.00  0.00     0.036 A 
HETATM    2  C   UNL     1      41.455 -13.062   1.106  1.00  0.00     0.046 A 
HETATM    3  C   UNL     1      40.819 -12.349   0.065  1.00  0.00     0.030 A 
HETATM    4  C   UNL     1      39.930 -13.022  -0.764  1.00  0.00     0.063 A 
HETATM    5  N   UNL     1      39.487 -12.086  -1.657  1.00  0.00    -0.277 N 
HETATM    6  H   UNL     1      38.825 -12.223  -2.412  1.00  0.00     0.189 HD
HETATM    7  N   UNL     1      40.008 -10.861  -1.485  1.00  0.00    -0.168 NA
HETATM    8  C   UNL     1      40.835 -11.007  -0.424  1.00  0.00     0.156 A 
HETATM    9  C   UNL     1      39.629 -14.375  -0.620  1.00  0.00     0.034 A 
HETATM   10  C   UNL     1      40.270 -15.060   0.421  1.00  0.00     0.032 A 
ENDROOT
BRANCH   1  11
HETATM   11  N   UNL     1      41.751 -15.228   2.292  1.00  0.00    -0.322 N 
HETATM   12  C   UNL     1      43.027 -15.762   2.345  1.00  0.00     0.276 C 
HETATM   13  O   UNL     1      43.868 -15.588   1.471  1.00  0.00    -0.266 OA
HETATM   14  H   UNL     1      41.142 -15.438   3.073  1.00  0.00     0.169 HD
BRANCH  12  15
HETATM   15  C   UNL     1      43.318 -16.547   3.533  1.00  0.00     0.150 A 
HETATM   16  N   UNL     1      43.498 -17.928   3.546  1.00  0.00    -0.299 N 
HETATM   17  C   UNL     1      43.751 -18.292   4.869  1.00  0.00     0.136 A 
HETATM   18  C   UNL     1      43.471 -18.872   2.512  1.00  0.00     0.099 A 
HETATM   19  C   UNL     1      43.976 -19.670   5.150  1.00  0.00     0.051 A 
HETATM   20  N   UNL     1      43.742 -17.254   5.668  1.00  0.00    -0.216 NA
HETATM   21  C   UNL     1      43.945 -20.573   4.153  1.00  0.00     0.005 A 
HETATM   22  C   UNL     1      43.686 -20.171   2.783  1.00  0.00     0.018 A 
HETATM   23  C   UNL     1      43.471 -16.181   4.864  1.00  0.00     0.161 A 
HETATM   24 CL   UNL     1      43.356 -14.621   5.553  1.00  0.00    -0.060 Cl
ENDBRANCH  12  15
ENDBRANCH   1  11
BRANCH   8  25
HETATM   25  C   UNL     1      41.613  -9.873   0.095  1.00  0.00     0.270 C 
HETATM   26  N   UNL     1      41.290  -9.516   1.376  1.00  0.00    -0.365 N 
HETATM   27  H   UNL     1      40.566 -10.036   1.857  1.00  0.00     0.159 HD
HETATM   28  H   UNL     1      41.770  -8.748   1.816  1.00  0.00     0.159 HD
HETATM   29  O   UNL     1      42.481  -9.275  -0.531  1.00  0.00    -0.266 OA
ENDBRANCH   8  25
TORSDOF 3
ENDMDL
MODEL 5
REMARK VINA RESULT:      -8.4      2.999      8.252
REMARK  3 active torsions:
REMARK  status: ('A' for Active; 'I' for Inactive)
REMARK    1  A    between atoms: C_5  and  C_6 
REMARK       I    between atoms: C_6  and  N_7 
REMARK    2  A    between atoms: N_7  and  C_8 
REMARK    3  A    between atoms: C_15  and  C_16 
REMARK       I    between atoms: C_16  and  N_17 
ROOT
HETATM    1  C   UNL     1      42.392 -16.031   2.472  1.00  0.00     0.036 A 
HETATM    2  C   UNL     1      42.213 -15.909   3.857  1.00  0.00     0.046 A 
HETATM    3  C   UNL     1      42.778 -16.875   4.721  1.00  0.00     0.030 A 
HETATM    4  C   UNL     1      43.498 -17.928   4.172  1.00  0.00     0.063 A 
HETATM    5  N   UNL     1      43.909 -18.681   5.236  1.00  0.00    -0.277 N 
HETATM    6  H   UNL     1      44.461 -19.531   5.210  1.00  0.00     0.189 HD
HETATM    7  N   UNL     1      43.522 -18.212   6.433  1.00  0.00    -0.168 NA
HETATM    8  C   UNL     1      42.820 -17.095   6.132  1.00  0.00     0.156 A 
HETATM    9  C   UNL     1      43.695 -18.083   2.800  1.00  0.00     0.034 A 
HETATM   10  C   UNL     1      43.127 -17.112   1.964  1.00  0.00     0.032 A 
ENDROOT
BRANCH   1  11
HETATM   11  N   UNL     1      41.875 -15.123   1.521  1.00  0.00    -0.322 N 
HETATM   12  C   UNL     1      40.582 -15.026   1.037  1.00  0.00     0.276 C 
HETATM   13  O   UNL     1      39.668 -15.759   1.399  1.00  0.00    -0.266 OA
HETATM   14  H   UNL     1      42.546 -14.463   1.150  1.00  0.00     0.169 HD
BRANCH  12  15
HETATM   15  C   UNL     1      40.366 -13.971   0.062  1.00  0.00     0.150 A 
HETATM   16  N   UNL     1      40.741 -12.641   0.236  1.00  0.00    -0.299 N 
HETATM   17  C   UNL     1      40.355 -11.955  -0.917  1.00  0.00     0.136 A 
HETATM   18  C   UNL     1      41.392 -11.996   1.295  1.00  0.00     0.099 A 
HETATM   19  C   UNL     1      40.634 -10.561  -0.989  1.00  0.00     0.051 A 
HETATM   20  N   UNL     1      39.775 -12.750  -1.782  1.00  0.00    -0.216 NA
HETATM   21  C   UNL     1      41.256  -9.947   0.034  1.00  0.00     0.005 A 
HETATM   22  C   UNL     1      41.655 -10.680   1.221  1.00  0.00     0.018 A 
HETATM   23  C   UNL     1      39.769 -13.984  -1.192  1.00  0.00     0.161 A 
HETATM   24 CL   UNL     1      39.068 -15.307  -2.017  1.00  0.00    -0.060 Cl
ENDBRANCH  12  15
ENDBRANCH   1  11
BRANCH   8  25
HETATM   25  C   UNL     1      42.213 -16.272   7.186  1.00  0.00     0.270 C 
HETATM   26  N   UNL     1      43.074 -15.934   8.195  1.00  0.00    -0.365 N 
HETATM   27  H   UNL     1      44.030 -16.265   8.148  1.00  0.00     0.159 HD
HETATM   28  H   UNL     1      42.746 -15.372   8.964  1.00  0.00     0.159 HD
HETATM   29  O   UNL     1      41.045 -15.898   7.197  1.00  0.00    -0.266 OA
ENDBRANCH   8  25
TORSDOF 3
ENDMDL
MODEL 6
REMARK VINA RESULT:      -8.3      2.375      7.618
REMARK  3 active torsions:
REMARK  status: ('A' for Active; 'I' for Inactive)
REMARK    1  A    between atoms: C_5  and  C_6 
REMARK       I    between atoms: C_6  and  N_7 
REMARK    2  A    between atoms: N_7  and  C_8 
REMARK    3  A    between atoms: C_15  and  C_16 
REMARK       I    between atoms: C_16  and  N_17 
ROOT
HETATM    1  C   UNL     1      42.667 -15.613   2.871  1.00  0.00     0.036 A 
HETATM    2  C   UNL     1      42.906 -16.978   2.654  1.00  0.00     0.046 A 
HETATM    3  C   UNL     1      43.396 -17.777   3.711  1.00  0.00     0.030 A 
HETATM    4  C   UNL     1      43.631 -17.187   4.946  1.00  0.00     0.063 A 
HETATM    5  N   UNL     1      44.093 -18.194   5.748  1.00  0.00    -0.277 N 
HETATM    6  H   UNL     1      44.367 -18.126   6.721  1.00  0.00     0.189 HD
HETATM    7  N   UNL     1      44.178 -19.390   5.145  1.00  0.00    -0.168 NA
HETATM    8  C   UNL     1      43.752 -19.150   3.884  1.00  0.00     0.156 A 
HETATM    9  C   UNL     1      43.407 -15.834   5.199  1.00  0.00     0.034 A 
HETATM   10  C   UNL     1      42.920 -15.062   4.136  1.00  0.00     0.032 A 
ENDROOT
BRANCH   1  11
HETATM   11  N   UNL     1      42.176 -14.726   1.887  1.00  0.00    -0.322 N 
HETATM   12  C   UNL     1      40.862 -14.399   1.600  1.00  0.00     0.276 C 
HETATM   13  O   UNL     1      39.903 -14.865   2.205  1.00  0.00    -0.266 OA
HETATM   14  H   UNL     1      42.885 -14.279   1.322  1.00  0.00     0.169 HD
BRANCH  12  15
HETATM   15  C   UNL     1      40.686 -13.440   0.523  1.00  0.00     0.150 A 
HETATM   16  N   UNL     1      40.066 -13.718  -0.693  1.00  0.00    -0.299 N 
HETATM   17  C   UNL     1      40.105 -12.544  -1.446  1.00  0.00     0.136 A 
HETATM   18  C   UNL     1      39.470 -14.888  -1.179  1.00  0.00     0.099 A 
HETATM   19  C   UNL     1      39.525 -12.566  -2.746  1.00  0.00     0.051 A 
HETATM   20  N   UNL     1      40.696 -11.571  -0.798  1.00  0.00    -0.216 NA
HETATM   21  C   UNL     1      38.958 -13.695  -3.210  1.00  0.00     0.005 A 
HETATM   22  C   UNL     1      38.922 -14.903  -2.406  1.00  0.00     0.018 A 
HETATM   23  C   UNL     1      41.062 -12.108   0.406  1.00  0.00     0.161 A 
HETATM   24 CL   UNL     1      41.890 -11.138   1.544  1.00  0.00    -0.060 Cl
ENDBRANCH  12  15
ENDBRANCH   1  11
BRANCH   8  25
HETATM   25  C   UNL     1      43.692 -20.225   2.884  1.00  0.00     0.270 C 
HETATM   26  N   UNL     1      43.280 -19.812   1.646  1.00  0.00    -0.365 N 
HETATM   27  H   UNL     1      43.052 -18.834   1.511  1.00  0.00     0.159 HD
HETATM   28  H   UNL     1      43.207 -20.480   0.896  1.00  0.00     0.159 HD
HETATM   29  O   UNL     1      43.979 -21.398   3.100  1.00  0.00    -0.266 OA
ENDBRANCH   8  25
TORSDOF 3
ENDMDL
MODEL 7
REMARK VINA RESULT:      -8.2      1.733      1.763
REMARK  3 active torsions:
REMARK  status: ('A' for Active; 'I' for Inactive)
REMARK    1  A    between atoms: C_5  and  C_6 
REMARK       I    between atoms: C_6  and  N_7 
REMARK    2  A    between atoms: N_7  and  C_8 
REMARK    3  A    between atoms: C_15  and  C_16 
REMARK       I    between atoms: C_16  and  N_17 
ROOT
HETATM    1  C   UNL     1      42.084 -13.286   1.874  1.00  0.00     0.036 A 
HETATM    2  C   UNL     1      41.344 -13.479   0.699  1.00  0.00     0.046 A 
HETATM    3  C   UNL     1      40.820 -12.360   0.013  1.00  0.00     0.030 A 
HETATM    4  C   UNL     1      41.051 -11.090   0.525  1.00  0.00     0.063 A 
HETATM    5  N   UNL     1      40.431 -10.231  -0.340  1.00  0.00    -0.277 N 
HETATM    6  H   UNL     1      40.393  -9.220  -0.279  1.00  0.00     0.189 HD
HETATM    7  N   UNL     1      39.816 -10.829  -1.373  1.00  0.00    -0.168 NA
HETATM    8  C   UNL     1      40.046 -12.146  -1.169  1.00  0.00     0.156 A 
HETATM    9  C   UNL     1      41.780 -10.859   1.690  1.00  0.00     0.034 A 
HETATM   10  C   UNL     1      42.291 -11.984   2.352  1.00  0.00     0.032 A 
ENDROOT
BRANCH   1  11
HETATM   11  N   UNL     1      42.653 -14.331   2.634  1.00  0.00    -0.322 N 
HETATM   12  C   UNL     1      42.057 -15.111   3.609  1.00  0.00     0.276 C 
HETATM   13  O   UNL     1      40.887 -14.986   3.953  1.00  0.00    -0.266 OA
HETATM   14  H   UNL     1      43.626 -14.526   2.434  1.00  0.00     0.169 HD
BRANCH  12  15
HETATM   15  C   UNL     1      42.918 -16.118   4.206  1.00  0.00     0.150 A 
HETATM   16  N   UNL     1      43.145 -17.385   3.674  1.00  0.00    -0.299 N 
HETATM   17  C   UNL     1      44.018 -18.040   4.542  1.00  0.00     0.136 A 
HETATM   18  C   UNL     1      42.669 -17.994   2.506  1.00  0.00     0.099 A 
HETATM   19  C   UNL     1      44.414 -19.368   4.214  1.00  0.00     0.051 A 
HETATM   20  N   UNL     1      44.346 -17.286   5.562  1.00  0.00    -0.216 NA
HETATM   21  C   UNL     1      43.949 -19.950   3.094  1.00  0.00     0.005 A 
HETATM   22  C   UNL     1      43.047 -19.247   2.201  1.00  0.00     0.018 A 
HETATM   23  C   UNL     1      43.674 -16.109   5.372  1.00  0.00     0.161 A 
HETATM   24 CL   UNL     1      43.832 -14.854   6.521  1.00  0.00    -0.060 Cl
ENDBRANCH  12  15
ENDBRANCH   1  11
BRANCH   8  25
HETATM   25  C   UNL     1      39.529 -13.161  -2.098  1.00  0.00     0.270 C 
HETATM   26  N   UNL     1      38.514 -13.922  -1.584  1.00  0.00    -0.365 N 
HETATM   27  H   UNL     1      38.204 -13.741  -0.637  1.00  0.00     0.159 HD
HETATM   28  H   UNL     1      38.098 -14.645  -2.148  1.00  0.00     0.159 HD
HETATM   29  O   UNL     1      39.942 -13.340  -3.239  1.00  0.00    -0.266 OA
ENDBRANCH   8  25
TORSDOF 3
ENDMDL
MODEL 8
REMARK VINA RESULT:      -8.2      5.908      8.445
REMARK  3 active torsions:
REMARK  status: ('A' for Active; 'I' for Inactive)
REMARK    1  A    between atoms: C_5  and  C_6 
REMARK       I    between atoms: C_6  and  N_7 
REMARK    2  A    between atoms: N_7  and  C_8 
REMARK    3  A    between atoms: C_15  and  C_16 
REMARK       I    between atoms: C_16  and  N_17 
ROOT
HETATM    1  C   UNL     1      44.185 -12.042   6.730  1.00  0.00     0.036 A 
HETATM    2  C   UNL     1      43.574 -11.584   7.906  1.00  0.00     0.046 A 
HETATM    3  C   UNL     1      44.256 -10.664   8.733  1.00  0.00     0.030 A 
HETATM    4  C   UNL     1      45.523 -10.236   8.360  1.00  0.00     0.063 A 
HETATM    5  N   UNL     1      45.918  -9.369   9.341  1.00  0.00    -0.277 N 
HETATM    6  H   UNL     1      46.794  -8.864   9.397  1.00  0.00     0.189 HD
HETATM    7  N   UNL     1      45.019  -9.192  10.322  1.00  0.00    -0.168 NA
HETATM    8  C   UNL     1      43.985  -9.987   9.962  1.00  0.00     0.156 A 
HETATM    9  C   UNL     1      46.163 -10.671   7.200  1.00  0.00     0.034 A 
HETATM   10  C   UNL     1      45.467 -11.582   6.395  1.00  0.00     0.032 A 
ENDROOT
BRANCH   1  11
HETATM   11  N   UNL     1      43.592 -12.957   5.831  1.00  0.00    -0.322 N 
HETATM   12  C   UNL     1      43.071 -14.211   6.098  1.00  0.00     0.276 C 
HETATM   13  O   UNL     1      43.056 -14.713   7.216  1.00  0.00    -0.266 OA
HETATM   14  H   UNL     1      43.550 -12.647   4.870  1.00  0.00     0.169 HD
BRANCH  12  15
HETATM   15  C   UNL     1      42.522 -14.908   4.947  1.00  0.00     0.150 A 
HETATM   16  N   UNL     1      43.005 -16.113   4.444  1.00  0.00    -0.299 N 
HETATM   17  C   UNL     1      42.214 -16.440   3.342  1.00  0.00     0.136 A 
HETATM   18  C   UNL     1      44.054 -16.938   4.871  1.00  0.00     0.099 A 
HETATM   19  C   UNL     1      42.507 -17.646   2.645  1.00  0.00     0.051 A 
HETATM   20  N   UNL     1      41.288 -15.539   3.126  1.00  0.00    -0.216 NA
HETATM   21  C   UNL     1      43.519 -18.432   3.057  1.00  0.00     0.005 A 
HETATM   22  C   UNL     1      44.325 -18.076   4.210  1.00  0.00     0.018 A 
HETATM   23  C   UNL     1      41.469 -14.593   4.097  1.00  0.00     0.161 A 
HETATM   24 CL   UNL     1      40.447 -13.224   4.139  1.00  0.00    -0.060 Cl
ENDBRANCH  12  15
ENDBRANCH   1  11
BRANCH   8  25
HETATM   25  C   UNL     1      42.774 -10.080  10.789  1.00  0.00     0.270 C 
HETATM   26  N   UNL     1      42.930 -10.829  11.923  1.00  0.00    -0.365 N 
HETATM   27  H   UNL     1      43.832 -11.252  12.105  1.00  0.00     0.159 HD
HETATM   28  H   UNL     1      42.153 -10.951  12.552  1.00  0.00     0.159 HD
HETATM   29  O   UNL     1      41.702  -9.548  10.522  1.00  0.00    -0.266 OA
ENDBRANCH   8  25
TORSDOF 3
ENDMDL
MODEL 9
REMARK VINA RESULT:      -8.1      2.526      8.047
REMARK  3 active torsions:
REMARK  status: ('A' for Active; 'I' for Inactive)
REMARK    1  A    between atoms: C_5  and  C_6 
REMARK       I    between atoms: C_6  and  N_7 
REMARK    2  A    between atoms: N_7  and  C_8 
REMARK    3  A    between atoms: C_15  and  C_16 
REMARK       I    between atoms: C_16  and  N_17 
ROOT
HETATM    1  C   UNL     1      41.507 -15.499   2.696  1.00  0.00     0.036 A 
HETATM    2  C   UNL     1      41.881 -15.219   4.019  1.00  0.00     0.046 A 
HETATM    3  C   UNL     1      42.786 -16.075   4.684  1.00  0.00     0.030 A 
HETATM    4  C   UNL     1      43.284 -17.181   4.008  1.00  0.00     0.063 A 
HETATM    5  N   UNL     1      44.118 -17.805   4.895  1.00  0.00    -0.277 N 
HETATM    6  H   UNL     1      44.656 -18.649   4.741  1.00  0.00     0.189 HD
HETATM    7  N   UNL     1      44.208 -17.203   6.091  1.00  0.00    -0.168 NA
HETATM    8  C   UNL     1      43.390 -16.132   5.978  1.00  0.00     0.156 A 
HETATM    9  C   UNL     1      42.935 -17.493   2.694  1.00  0.00     0.034 A 
HETATM   10  C   UNL     1      42.037 -16.628   2.055  1.00  0.00     0.032 A 
ENDROOT
BRANCH   1  11
HETATM   11  N   UNL     1      40.614 -14.708   1.939  1.00  0.00    -0.322 N 
HETATM   12  C   UNL     1      40.861 -13.512   1.288  1.00  0.00     0.276 C 
HETATM   13  O   UNL     1      41.955 -12.958   1.285  1.00  0.00    -0.266 OA
HETATM   14  H   UNL     1      39.672 -15.072   1.872  1.00  0.00     0.169 HD
BRANCH  12  15
HETATM   15  C   UNL     1      39.723 -12.947   0.584  1.00  0.00     0.150 A 
HETATM   16  N   UNL     1      39.256 -13.388  -0.652  1.00  0.00    -0.299 N 
HETATM   17  C   UNL     1      38.162 -12.588  -0.982  1.00  0.00     0.136 A 
HETATM   18  C   UNL     1      39.695 -14.421  -1.490  1.00  0.00     0.099 A 
HETATM   19  C   UNL     1      37.495 -12.844  -2.214  1.00  0.00     0.051 A 
HETATM   20  N   UNL     1      37.917 -11.694  -0.056  1.00  0.00    -0.216 NA
HETATM   21  C   UNL     1      37.925 -13.835  -3.017  1.00  0.00     0.005 A 
HETATM   22  C   UNL     1      39.062 -14.660  -2.651  1.00  0.00     0.018 A 
HETATM   23  C   UNL     1      38.870 -11.899   0.904  1.00  0.00     0.161 A 
HETATM   24 CL   UNL     1      38.894 -10.900   2.291  1.00  0.00    -0.060 Cl
ENDBRANCH  12  15
ENDBRANCH   1  11
BRANCH   8  25
HETATM   25  C   UNL     1      43.205 -15.195   7.094  1.00  0.00     0.270 C 
HETATM   26  N   UNL     1      43.071 -15.800   8.314  1.00  0.00    -0.365 N 
HETATM   27  H   UNL     1      43.105 -16.812   8.360  1.00  0.00     0.159 HD
HETATM   28  H   UNL     1      42.938 -15.238   9.139  1.00  0.00     0.159 HD
HETATM   29  O   UNL     1      43.170 -13.974   6.985  1.00  0.00    -0.266 OA
ENDBRANCH   8  25
TORSDOF 3
ENDMDL
MODEL 10
REMARK VINA RESULT:      -7.9      3.735      5.377
REMARK  3 active torsions:
REMARK  status: ('A' for Active; 'I' for Inactive)
REMARK    1  A    between atoms: C_5  and  C_6 
REMARK       I    between atoms: C_6  and  N_7 
REMARK    2  A    between atoms: N_7  and  C_8 
REMARK    3  A    between atoms: C_15  and  C_16 
REMARK       I    between atoms: C_16  and  N_17 
ROOT
HETATM    1  C   UNL     1      40.482 -13.602   4.979  1.00  0.00     0.036 A 
HETATM    2  C   UNL     1      40.191 -12.715   6.026  1.00  0.00     0.046 A 
HETATM    3  C   UNL     1      39.419 -11.560   5.767  1.00  0.00     0.030 A 
HETATM    4  C   UNL     1      38.969 -11.330   4.473  1.00  0.00     0.063 A 
HETATM    5  N   UNL     1      38.266 -10.159   4.537  1.00  0.00    -0.277 N 
HETATM    6  H   UNL     1      37.793  -9.685   3.776  1.00  0.00     0.189 HD
HETATM    7  N   UNL     1      38.217  -9.604   5.758  1.00  0.00    -0.168 NA
HETATM    8  C   UNL     1      38.927 -10.458   6.531  1.00  0.00     0.156 A 
HETATM    9  C   UNL     1      39.240 -12.187   3.408  1.00  0.00     0.034 A 
HETATM   10  C   UNL     1      40.005 -13.327   3.690  1.00  0.00     0.032 A 
ENDROOT
BRANCH   1  11
HETATM   11  N   UNL     1      41.241 -14.784   5.129  1.00  0.00    -0.322 N 
HETATM   12  C   UNL     1      42.550 -15.022   4.749  1.00  0.00     0.276 C 
HETATM   13  O   UNL     1      43.259 -14.182   4.206  1.00  0.00    -0.266 OA
HETATM   14  H   UNL     1      40.753 -15.553   5.570  1.00  0.00     0.169 HD
BRANCH  12  15
HETATM   15  C   UNL     1      43.048 -16.353   5.051  1.00  0.00     0.150 A 
HETATM   16  N   UNL     1      43.221 -17.367   4.113  1.00  0.00    -0.299 N 
HETATM   17  C   UNL     1      43.708 -18.479   4.800  1.00  0.00     0.136 A 
HETATM   18  C   UNL     1      43.003 -17.391   2.729  1.00  0.00     0.099 A 
HETATM   19  C   UNL     1      43.974 -19.662   4.053  1.00  0.00     0.051 A 
HETATM   20  N   UNL     1      43.848 -18.235   6.080  1.00  0.00    -0.216 NA
HETATM   21  C   UNL     1      43.758 -19.680   2.725  1.00  0.00     0.005 A 
HETATM   22  C   UNL     1      43.258 -18.510   2.029  1.00  0.00     0.018 A 
HETATM   23  C   UNL     1      43.441 -16.940   6.247  1.00  0.00     0.161 A 
HETATM   24 CL   UNL     1      43.460 -16.248   7.810  1.00  0.00    -0.060 Cl
ENDBRANCH  12  15
ENDBRANCH   1  11
BRANCH   8  25
HETATM   25  C   UNL     1      39.115 -10.206   7.966  1.00  0.00     0.270 C 
HETATM   26  N   UNL     1      40.044  -9.241   8.245  1.00  0.00    -0.365 N 
HETATM   27  H   UNL     1      40.519  -8.787   7.475  1.00  0.00     0.159 HD
HETATM   28  H   UNL     1      40.243  -9.001   9.203  1.00  0.00     0.159 HD
HETATM   29  O   UNL     1      38.514 -10.787   8.863  1.00  0.00    -0.266 OA
ENDBRANCH   8  25
TORSDOF 3
ENDMDL
