MODEL 1
REMARK VINA RESULT:      -9.3      0.000      0.000
REMARK  6 active torsions:
REMARK  status: ('A' for Active; 'I' for Inactive)
REMARK    1  A    between atoms: C_2  and  O_3 
REMARK    2  A    between atoms: O_3  and  C_4 
REMARK    3  A    between atoms: C_5  and  O_6 
REMARK    4  A    between atoms: O_6  and  C_7 
REMARK    5  A    between atoms: C_7  and  C_8 
REMARK    6  A    between atoms: C_18  and  C_19 
ROOT
HETATM    1  C   UNL     1      41.739 -12.121   4.830  1.00  0.00     0.103 A 
HETATM    2  C   UNL     1      42.499 -13.300   4.876  1.00  0.00     0.112 A 
HETATM    3  C   UNL     1      43.452 -13.508   5.872  1.00  0.00     0.041 A 
HETATM    4  C   UNL     1      43.655 -12.530   6.842  1.00  0.00     0.014 A 
HETATM    5  C   UNL     1      42.897 -11.347   6.837  1.00  0.00    -0.013 A 
HETATM    6  C   UNL     1      41.947 -11.148   5.813  1.00  0.00     0.050 A 
ENDROOT
BRANCH   5   7
HETATM    7  C   UNL     1      43.040 -10.375   7.985  1.00  0.00     0.219 C 
HETATM    8  N   UNL     1      43.577 -11.038   9.144  1.00  0.00    -0.332 N 
HETATM    9  C   UNL     1      43.622 -10.414  10.363  1.00  0.00     0.256 C 
HETATM   10  H   UNL     1      44.288 -11.741   9.003  1.00  0.00     0.165 HD
HETATM   11  O   UNL     1      44.384 -10.770  11.253  1.00  0.00    -0.267 OA
HETATM   12  C   UNL     1      42.684  -9.312  10.519  1.00  0.00     0.073 A 
HETATM   13  C   UNL     1      41.789  -9.053   9.505  1.00  0.00     0.088 A 
HETATM   14  C   UNL     1      42.529  -8.409  11.615  1.00  0.00    -0.023 A 
HETATM   15  S   UNL     1      40.747  -7.761   9.872  1.00  0.00    -0.074 SA
HETATM   16  N   UNL     1      41.775  -9.759   8.348  1.00  0.00    -0.358 N 
HETATM   17  C   UNL     1      41.502  -7.512  11.379  1.00  0.00     0.018 A 
HETATM   18  C   UNL     1      41.095  -6.415  12.304  1.00  0.00     0.281 C 
HETATM   19  N   UNL     1      41.685  -6.611  13.698  1.00  0.00    -0.070 N 
HETATM   20  C   UNL     1      43.146  -7.052  13.637  1.00  0.00     0.239 C 
HETATM   21  H   UNL     1      41.680  -5.684  14.139  1.00  0.00     0.279 HD
HETATM   22  C   UNL     1      40.835  -7.492  14.567  1.00  0.00     0.270 C 
HETATM   23  C   UNL     1      43.321  -8.385  12.887  1.00  0.00     0.068 C 
HETATM   24  H   UNL     1      41.260  -9.382   7.555  1.00  0.00     0.162 HD
ENDBRANCH   5   7
BRANCH   1  25
HETATM   25  O   UNL     1      40.817 -12.045   3.820  1.00  0.00    -0.349 OA
BRANCH  25  26
HETATM   26  C   UNL     1      40.805 -10.867   3.017  1.00  0.00     0.171 C 
HETATM   27  C   UNL     1      41.993 -10.938   2.072  1.00  0.00     0.034 C 
ENDBRANCH  25  26
ENDBRANCH   1  25
BRANCH   2  28
HETATM   28  O   UNL     1      42.150 -14.322   3.961  1.00  0.00    -0.272 OA
BRANCH  28  29
HETATM   29  C   UNL     1      43.029 -14.794   3.002  1.00  0.00     0.298 C 
HETATM   30  O   UNL     1      43.624 -14.140   2.159  1.00  0.00    -0.259 OA
BRANCH  29  31
HETATM   31  C   UNL     1      43.227 -16.254   3.210  1.00  0.00     0.040 A 
HETATM   32  C   UNL     1      42.913 -17.122   2.154  1.00  0.00     0.019 A 
HETATM   33  C   UNL     1      43.130 -18.496   2.283  1.00  0.00     0.020 A 
HETATM   34  C   UNL     1      43.653 -19.004   3.471  1.00  0.00     0.011 A 
HETATM   35 BR   UNL     1      43.963 -20.861   3.642  1.00  0.00    -0.051 Br
HETATM   36  C   UNL     1      43.956 -18.154   4.534  1.00  0.00     0.020 A 
HETATM   37  C   UNL     1      43.742 -16.778   4.405  1.00  0.00     0.019 A 
ENDBRANCH  29  31
ENDBRANCH  28  29
ENDBRANCH   2  28
TORSDOF 6
ENDMDL
MODEL 2
REMARK VINA RESULT:      -8.5      1.304      2.369
REMARK  6 active torsions:
REMARK  status: ('A' for Active; 'I' for Inactive)
REMARK    1  A    between atoms: C_2  and  O_3 
REMARK    2  A    between atoms: O_3  and  C_4 
REMARK    3  A    between atoms: C_5  and  O_6 
REMARK    4  A    between atoms: O_6  and  C_7 
REMARK    5  A    between atoms: C_7  and  C_8 
REMARK    6  A    between atoms: C_18  and  C_19 
ROOT
HETATM    1  C   UNL     1      42.887 -12.558   5.153  1.00  0.00     0.103 A 
HETATM    2  C   UNL     1      42.438 -11.885   4.007  1.00  0.00     0.112 A 
HETATM    3  C   UNL     1      42.000 -10.563   4.069  1.00  0.00     0.041 A 
HETATM    4  C   UNL     1      42.009  -9.894   5.290  1.00  0.00     0.014 A 
HETATM    5  C   UNL     1      42.470 -10.531   6.453  1.00  0.00    -0.013 A 
HETATM    6  C   UNL     1      42.896 -11.874   6.373  1.00  0.00     0.050 A 
ENDROOT
BRANCH   5   7
HETATM    7  C   UNL     1      42.602  -9.733   7.729  1.00  0.00     0.219 C 
HETATM    8  N   UNL     1      43.485 -10.397   8.651  1.00  0.00    -0.332 N 
HETATM    9  C   UNL     1      43.616  -9.967   9.945  1.00  0.00     0.256 C 
HETATM   10  H   UNL     1      44.298 -10.865   8.277  1.00  0.00     0.165 HD
HETATM   11  O   UNL     1      44.595 -10.240  10.631  1.00  0.00    -0.267 OA
HETATM   12  C   UNL     1      42.499  -9.178  10.442  1.00  0.00     0.073 A 
HETATM   13  C   UNL     1      41.393  -9.013   9.638  1.00  0.00     0.088 A 
HETATM   14  C   UNL     1      42.352  -8.514  11.698  1.00  0.00    -0.023 A 
HETATM   15  S   UNL     1      40.173  -8.100  10.390  1.00  0.00    -0.074 SA
HETATM   16  N   UNL     1      41.321  -9.523   8.384  1.00  0.00    -0.358 N 
HETATM   17  C   UNL     1      41.122  -7.887  11.790  1.00  0.00     0.018 A 
HETATM   18  C   UNL     1      40.658  -7.079  12.953  1.00  0.00     0.281 C 
HETATM   19  N   UNL     1      41.530  -7.317  14.183  1.00  0.00    -0.070 N 
HETATM   20  C   UNL     1      43.014  -7.354  13.826  1.00  0.00     0.239 C 
HETATM   21  H   UNL     1      41.396  -6.497  14.787  1.00  0.00     0.279 HD
HETATM   22  C   UNL     1      41.083  -8.504  14.988  1.00  0.00     0.270 C 
HETATM   23  C   UNL     1      43.344  -8.473  12.822  1.00  0.00     0.068 C 
HETATM   24  H   UNL     1      40.594  -9.179   7.761  1.00  0.00     0.162 HD
ENDBRANCH   5   7
BRANCH   1  25
HETATM   25  O   UNL     1      43.316 -13.844   4.960  1.00  0.00    -0.349 OA
BRANCH  25  26
HETATM   26  C   UNL     1      42.784 -14.857   5.810  1.00  0.00     0.171 C 
HETATM   27  C   UNL     1      43.862 -15.910   6.007  1.00  0.00     0.034 C 
ENDBRANCH  25  26
ENDBRANCH   1  25
BRANCH   2  28
HETATM   28  O   UNL     1      42.592 -12.556   2.770  1.00  0.00    -0.272 OA
BRANCH  28  29
HETATM   29  C   UNL     1      41.565 -13.270   2.178  1.00  0.00     0.298 C 
HETATM   30  O   UNL     1      40.555 -12.820   1.659  1.00  0.00    -0.259 OA
BRANCH  29  31
HETATM   31  C   UNL     1      41.921 -14.715   2.181  1.00  0.00     0.040 A 
HETATM   32  C   UNL     1      43.195 -15.083   1.726  1.00  0.00     0.019 A 
HETATM   33  C   UNL     1      43.595 -16.421   1.758  1.00  0.00     0.020 A 
HETATM   34  C   UNL     1      42.718 -17.393   2.238  1.00  0.00     0.011 A 
HETATM   35 BR   UNL     1      43.264 -19.202   2.298  1.00  0.00    -0.051 Br
HETATM   36  C   UNL     1      41.444 -17.042   2.680  1.00  0.00     0.020 A 
HETATM   37  C   UNL     1      41.043 -15.702   2.651  1.00  0.00     0.019 A 
ENDBRANCH  29  31
ENDBRANCH  28  29
ENDBRANCH   2  28
TORSDOF 6
ENDMDL
MODEL 3
REMARK VINA RESULT:      -8.5      5.359     10.699
REMARK  6 active torsions:
REMARK  status: ('A' for Active; 'I' for Inactive)
REMARK    1  A    between atoms: C_2  and  O_3 
REMARK    2  A    between atoms: O_3  and  C_4 
REMARK    3  A    between atoms: C_5  and  O_6 
REMARK    4  A    between atoms: O_6  and  C_7 
REMARK    5  A    between atoms: C_7  and  C_8 
REMARK    6  A    between atoms: C_18  and  C_19 
ROOT
HETATM    1  C   UNL     1      42.966 -10.763   6.726  1.00  0.00     0.103 A 
HETATM    2  C   UNL     1      44.338 -10.876   6.993  1.00  0.00     0.112 A 
HETATM    3  C   UNL     1      45.234 -11.300   6.013  1.00  0.00     0.041 A 
HETATM    4  C   UNL     1      44.761 -11.617   4.742  1.00  0.00     0.014 A 
HETATM    5  C   UNL     1      43.396 -11.496   4.435  1.00  0.00    -0.013 A 
HETATM    6  C   UNL     1      42.503 -11.079   5.444  1.00  0.00     0.050 A 
ENDROOT
BRANCH   5   7
HETATM    7  C   UNL     1      42.939 -11.707   3.010  1.00  0.00     0.219 C 
HETATM    8  N   UNL     1      42.292 -10.524   2.507  1.00  0.00    -0.332 N 
HETATM    9  C   UNL     1      41.627 -10.533   1.309  1.00  0.00     0.256 C 
HETATM   10  H   UNL     1      42.667  -9.626   2.776  1.00  0.00     0.165 HD
HETATM   11  O   UNL     1      41.400  -9.507   0.679  1.00  0.00    -0.267 OA
HETATM   12  C   UNL     1      41.200 -11.848   0.857  1.00  0.00     0.073 A 
HETATM   13  C   UNL     1      41.402 -12.932   1.683  1.00  0.00     0.088 A 
HETATM   14  C   UNL     1      40.567 -12.220  -0.368  1.00  0.00    -0.023 A 
HETATM   15  S   UNL     1      40.809 -14.378   1.015  1.00  0.00    -0.074 SA
HETATM   16  N   UNL     1      42.021 -12.827   2.885  1.00  0.00    -0.358 N 
HETATM   17  C   UNL     1      40.304 -13.577  -0.402  1.00  0.00     0.018 A 
HETATM   18  C   UNL     1      39.679 -14.299  -1.546  1.00  0.00     0.281 C 
HETATM   19  N   UNL     1      39.025 -13.331  -2.530  1.00  0.00    -0.070 N 
HETATM   20  C   UNL     1      39.905 -12.110  -2.789  1.00  0.00     0.239 C 
HETATM   21  H   UNL     1      38.959 -13.837  -3.421  1.00  0.00     0.279 HD
HETATM   22  C   UNL     1      37.618 -12.978  -2.144  1.00  0.00     0.270 C 
HETATM   23  C   UNL     1      40.191 -11.314  -1.503  1.00  0.00     0.068 C 
HETATM   24  H   UNL     1      42.347 -13.677   3.339  1.00  0.00     0.162 HD
ENDBRANCH   5   7
BRANCH   1  25
HETATM   25  O   UNL     1      42.191 -10.312   7.761  1.00  0.00    -0.349 OA
BRANCH  25  26
HETATM   26  C   UNL     1      41.277  -9.251   7.495  1.00  0.00     0.171 C 
HETATM   27  C   UNL     1      40.498  -8.980   8.770  1.00  0.00     0.034 C 
ENDBRANCH  25  26
ENDBRANCH   1  25
BRANCH   2  28
HETATM   28  O   UNL     1      44.787 -10.399   8.249  1.00  0.00    -0.272 OA
BRANCH  28  29
HETATM   29  C   UNL     1      45.249  -9.108   8.432  1.00  0.00     0.298 C 
HETATM   30  O   UNL     1      46.161  -8.558   7.835  1.00  0.00    -0.259 OA
BRANCH  29  31
HETATM   31  C   UNL     1      44.382  -8.426   9.432  1.00  0.00     0.040 A 
HETATM   32  C   UNL     1      43.827  -7.185   9.089  1.00  0.00     0.019 A 
HETATM   33  C   UNL     1      42.965  -6.531   9.974  1.00  0.00     0.020 A 
HETATM   34  C   UNL     1      42.666  -7.114  11.205  1.00  0.00     0.011 A 
HETATM   35 BR   UNL     1      41.488  -6.238  12.396  1.00  0.00    -0.051 Br
HETATM   36  C   UNL     1      43.224  -8.340  11.563  1.00  0.00     0.020 A 
HETATM   37  C   UNL     1      44.083  -8.998  10.677  1.00  0.00     0.019 A 
ENDBRANCH  29  31
ENDBRANCH  28  29
ENDBRANCH   2  28
TORSDOF 6
ENDMDL
MODEL 4
REMARK VINA RESULT:      -8.1     19.312     20.787
REMARK  6 active torsions:
REMARK  status: ('A' for Active; 'I' for Inactive)
REMARK    1  A    between atoms: C_2  and  O_3 
REMARK    2  A    between atoms: O_3  and  C_4 
REMARK    3  A    between atoms: C_5  and  O_6 
REMARK    4  A    between atoms: O_6  and  C_7 
REMARK    5  A    between atoms: C_7  and  C_8 
REMARK    6  A    between atoms: C_18  and  C_19 
ROOT
HETATM    1  C   UNL     1      44.484 -29.045   0.383  1.00  0.00     0.103 A 
HETATM    2  C   UNL     1      45.046 -28.489  -0.776  1.00  0.00     0.112 A 
HETATM    3  C   UNL     1      46.401 -28.168  -0.842  1.00  0.00     0.041 A 
HETATM    4  C   UNL     1      47.216 -28.406   0.262  1.00  0.00     0.014 A 
HETATM    5  C   UNL     1      46.691 -28.980   1.431  1.00  0.00    -0.013 A 
HETATM    6  C   UNL     1      45.314 -29.285   1.484  1.00  0.00     0.050 A 
ENDROOT
BRANCH   5   7
HETATM    7  C   UNL     1      47.629 -29.357   2.553  1.00  0.00     0.219 C 
HETATM    8  N   UNL     1      48.989 -29.401   2.082  1.00  0.00    -0.332 N 
HETATM    9  C   UNL     1      49.996 -29.901   2.863  1.00  0.00     0.256 C 
HETATM   10  H   UNL     1      49.280 -28.709   1.407  1.00  0.00     0.165 HD
HETATM   11  O   UNL     1      51.174 -29.620   2.673  1.00  0.00    -0.267 OA
HETATM   12  C   UNL     1      49.560 -30.800   3.921  1.00  0.00     0.073 A 
HETATM   13  C   UNL     1      48.227 -31.144   3.993  1.00  0.00     0.088 A 
HETATM   14  C   UNL     1      50.329 -31.421   4.952  1.00  0.00    -0.023 A 
HETATM   15  S   UNL     1      47.904 -32.228   5.261  1.00  0.00    -0.074 SA
HETATM   16  N   UNL     1      47.300 -30.645   3.140  1.00  0.00    -0.358 N 
HETATM   17  C   UNL     1      49.536 -32.225   5.750  1.00  0.00     0.018 A 
HETATM   18  C   UNL     1      50.015 -32.993   6.935  1.00  0.00     0.281 C 
HETATM   19  N   UNL     1      51.538 -33.091   6.960  1.00  0.00    -0.070 N 
HETATM   20  C   UNL     1      52.197 -31.761   6.598  1.00  0.00     0.239 C 
HETATM   21  H   UNL     1      51.793 -33.285   7.936  1.00  0.00     0.279 HD
HETATM   22  C   UNL     1      52.057 -34.248   6.155  1.00  0.00     0.270 C 
HETATM   23  C   UNL     1      51.803 -31.281   5.190  1.00  0.00     0.068 C 
HETATM   24  H   UNL     1      46.316 -30.748   3.378  1.00  0.00     0.162 HD
ENDBRANCH   5   7
BRANCH   1  25
HETATM   25  O   UNL     1      43.149 -29.341   0.317  1.00  0.00    -0.349 OA
BRANCH  25  26
HETATM   26  C   UNL     1      42.382 -29.230   1.513  1.00  0.00     0.171 C 
HETATM   27  C   UNL     1      41.781 -30.594   1.806  1.00  0.00     0.034 C 
ENDBRANCH  25  26
ENDBRANCH   1  25
BRANCH   2  28
HETATM   28  O   UNL     1      44.210 -28.409  -1.916  1.00  0.00    -0.272 OA
BRANCH  28  29
HETATM   29  C   UNL     1      44.706 -28.470  -3.207  1.00  0.00     0.298 C 
HETATM   30  O   UNL     1      45.257 -27.575  -3.830  1.00  0.00    -0.259 OA
BRANCH  29  31
HETATM   31  C   UNL     1      44.551 -29.860  -3.715  1.00  0.00     0.040 A 
HETATM   32  C   UNL     1      44.375 -30.890  -2.780  1.00  0.00     0.019 A 
HETATM   33  C   UNL     1      44.173 -32.204  -3.210  1.00  0.00     0.020 A 
HETATM   34  C   UNL     1      44.156 -32.490  -4.575  1.00  0.00     0.011 A 
HETATM   35 BR   UNL     1      43.867 -34.264  -5.158  1.00  0.00    -0.051 Br
HETATM   36  C   UNL     1      44.344 -31.476  -5.514  1.00  0.00     0.020 A 
HETATM   37  C   UNL     1      44.543 -30.160  -5.085  1.00  0.00     0.019 A 
ENDBRANCH  29  31
ENDBRANCH  28  29
ENDBRANCH   2  28
TORSDOF 6
ENDMDL
MODEL 5
REMARK VINA RESULT:      -8.0      2.137      2.941
REMARK  6 active torsions:
REMARK  status: ('A' for Active; 'I' for Inactive)
REMARK    1  A    between atoms: C_2  and  O_3 
REMARK    2  A    between atoms: O_3  and  C_4 
REMARK    3  A    between atoms: C_5  and  O_6 
REMARK    4  A    between atoms: O_6  and  C_7 
REMARK    5  A    between atoms: C_7  and  C_8 
REMARK    6  A    between atoms: C_18  and  C_19 
ROOT
HETATM    1  C   UNL     1      42.140 -13.335   5.629  1.00  0.00     0.103 A 
HETATM    2  C   UNL     1      42.825 -13.076   4.432  1.00  0.00     0.112 A 
HETATM    3  C   UNL     1      42.969 -11.777   3.947  1.00  0.00     0.041 A 
HETATM    4  C   UNL     1      42.426 -10.714   4.662  1.00  0.00     0.014 A 
HETATM    5  C   UNL     1      41.751 -10.935   5.874  1.00  0.00    -0.013 A 
HETATM    6  C   UNL     1      41.603 -12.258   6.342  1.00  0.00     0.050 A 
ENDROOT
BRANCH   5   7
HETATM    7  C   UNL     1      41.301  -9.749   6.695  1.00  0.00     0.219 C 
HETATM    8  N   UNL     1      42.088  -8.586   6.376  1.00  0.00    -0.332 N 
HETATM    9  C   UNL     1      41.997  -7.440   7.120  1.00  0.00     0.256 C 
HETATM   10  H   UNL     1      42.359  -8.445   5.413  1.00  0.00     0.165 HD
HETATM   11  O   UNL     1      42.338  -6.347   6.684  1.00  0.00    -0.267 OA
HETATM   12  C   UNL     1      41.482  -7.627   8.468  1.00  0.00     0.073 A 
HETATM   13  C   UNL     1      41.227  -8.907   8.911  1.00  0.00     0.088 A 
HETATM   14  C   UNL     1      41.185  -6.648   9.465  1.00  0.00    -0.023 A 
HETATM   15  S   UNL     1      40.670  -8.941  10.516  1.00  0.00    -0.074 SA
HETATM   16  N   UNL     1      41.399  -9.997   8.123  1.00  0.00    -0.358 N 
HETATM   17  C   UNL     1      40.731  -7.242  10.629  1.00  0.00     0.018 A 
HETATM   18  C   UNL     1      40.304  -6.507  11.854  1.00  0.00     0.281 C 
HETATM   19  N   UNL     1      40.763  -5.052  11.822  1.00  0.00    -0.070 N 
HETATM   20  C   UNL     1      40.555  -4.422  10.447  1.00  0.00     0.239 C 
HETATM   21  H   UNL     1      40.145  -4.547  12.469  1.00  0.00     0.279 HD
HETATM   22  C   UNL     1      42.157  -4.874  12.352  1.00  0.00     0.270 C 
HETATM   23  C   UNL     1      41.336  -5.160   9.344  1.00  0.00     0.068 C 
HETATM   24  H   UNL     1      40.982 -10.878   8.416  1.00  0.00     0.162 HD
ENDBRANCH   5   7
BRANCH   1  25
HETATM   25  O   UNL     1      42.087 -14.647   6.015  1.00  0.00    -0.349 OA
BRANCH  25  26
HETATM   26  C   UNL     1      40.833 -15.163   6.452  1.00  0.00     0.171 C 
HETATM   27  C   UNL     1      40.401 -16.232   5.463  1.00  0.00     0.034 C 
ENDBRANCH  25  26
ENDBRANCH   1  25
BRANCH   2  28
HETATM   28  O   UNL     1      43.487 -14.170   3.825  1.00  0.00    -0.272 OA
BRANCH  28  29
HETATM   29  C   UNL     1      42.923 -14.903   2.795  1.00  0.00     0.298 C 
HETATM   30  O   UNL     1      42.379 -14.469   1.791  1.00  0.00    -0.259 OA
BRANCH  29  31
HETATM   31  C   UNL     1      43.163 -16.350   3.049  1.00  0.00     0.040 A 
HETATM   32  C   UNL     1      42.758 -17.269   2.071  1.00  0.00     0.019 A 
HETATM   33  C   UNL     1      43.009 -18.633   2.240  1.00  0.00     0.020 A 
HETATM   34  C   UNL     1      43.657 -19.079   3.392  1.00  0.00     0.011 A 
HETATM   35 BR   UNL     1      44.011 -20.922   3.614  1.00  0.00    -0.051 Br
HETATM   36  C   UNL     1      44.052 -18.176   4.378  1.00  0.00     0.020 A 
HETATM   37  C   UNL     1      43.804 -16.810   4.209  1.00  0.00     0.019 A 
ENDBRANCH  29  31
ENDBRANCH  28  29
ENDBRANCH   2  28
TORSDOF 6
ENDMDL
MODEL 6
REMARK VINA RESULT:      -7.9      6.783     11.181
REMARK  6 active torsions:
REMARK  status: ('A' for Active; 'I' for Inactive)
REMARK    1  A    between atoms: C_2  and  O_3 
REMARK    2  A    between atoms: O_3  and  C_4 
REMARK    3  A    between atoms: C_5  and  O_6 
REMARK    4  A    between atoms: O_6  and  C_7 
REMARK    5  A    between atoms: C_7  and  C_8 
REMARK    6  A    between atoms: C_18  and  C_19 
ROOT
HETATM    1  C   UNL     1      40.549 -13.246   2.172  1.00  0.00     0.103 A 
HETATM    2  C   UNL     1      40.753 -14.526   1.637  1.00  0.00     0.112 A 
HETATM    3  C   UNL     1      40.364 -14.837   0.334  1.00  0.00     0.041 A 
HETATM    4  C   UNL     1      39.763 -13.859  -0.453  1.00  0.00     0.014 A 
HETATM    5  C   UNL     1      39.562 -12.561   0.045  1.00  0.00    -0.013 A 
HETATM    6  C   UNL     1      39.949 -12.269   1.370  1.00  0.00     0.050 A 
ENDROOT
BRANCH   5   7
HETATM    7  C   UNL     1      39.041 -11.488  -0.882  1.00  0.00     0.219 C 
HETATM    8  N   UNL     1      37.841 -11.930  -1.543  1.00  0.00    -0.332 N 
HETATM    9  C   UNL     1      37.288 -11.211  -2.569  1.00  0.00     0.256 C 
HETATM   10  H   UNL     1      37.183 -12.485  -1.013  1.00  0.00     0.165 HD
HETATM   11  O   UNL     1      36.112 -11.330  -2.894  1.00  0.00    -0.267 OA
HETATM   12  C   UNL     1      38.207 -10.311  -3.249  1.00  0.00     0.073 A 
HETATM   13  C   UNL     1      39.537 -10.323  -2.888  1.00  0.00     0.088 A 
HETATM   14  C   UNL     1      37.944  -9.370  -4.291  1.00  0.00    -0.023 A 
HETATM   15  S   UNL     1      40.470  -9.242  -3.809  1.00  0.00    -0.074 SA
HETATM   16  N   UNL     1      40.015 -11.111  -1.894  1.00  0.00    -0.358 N 
HETATM   17  C   UNL     1      39.102  -8.721  -4.681  1.00  0.00     0.018 A 
HETATM   18  C   UNL     1      39.177  -7.656  -5.721  1.00  0.00     0.281 C 
HETATM   19  N   UNL     1      37.908  -7.612  -6.569  1.00  0.00    -0.070 N 
HETATM   20  C   UNL     1      36.651  -7.752  -5.714  1.00  0.00     0.239 C 
HETATM   21  H   UNL     1      37.876  -6.671  -6.980  1.00  0.00     0.279 HD
HETATM   22  C   UNL     1      37.951  -8.571  -7.724  1.00  0.00     0.270 C 
HETATM   23  C   UNL     1      36.621  -9.080  -4.936  1.00  0.00     0.068 C 
HETATM   24  H   UNL     1      40.939 -10.913  -1.519  1.00  0.00     0.162 HD
ENDBRANCH   5   7
BRANCH   1  25
HETATM   25  O   UNL     1      40.997 -13.056   3.452  1.00  0.00    -0.349 OA
BRANCH  25  26
HETATM   26  C   UNL     1      40.455 -11.965   4.192  1.00  0.00     0.171 C 
HETATM   27  C   UNL     1      39.441 -12.528   5.173  1.00  0.00     0.034 C 
ENDBRANCH  25  26
ENDBRANCH   1  25
BRANCH   2  28
HETATM   28  O   UNL     1      41.503 -15.436   2.422  1.00  0.00    -0.272 OA
BRANCH  28  29
HETATM   29  C   UNL     1      42.860 -15.634   2.238  1.00  0.00     0.298 C 
HETATM   30  O   UNL     1      43.650 -14.880   1.692  1.00  0.00    -0.259 OA
BRANCH  29  31
HETATM   31  C   UNL     1      43.253 -16.903   2.909  1.00  0.00     0.040 A 
HETATM   32  C   UNL     1      43.557 -16.862   4.277  1.00  0.00     0.019 A 
HETATM   33  C   UNL     1      43.882 -18.036   4.962  1.00  0.00     0.020 A 
HETATM   34  C   UNL     1      43.911 -19.250   4.277  1.00  0.00     0.011 A 
HETATM   35 BR   UNL     1      44.334 -20.841   5.206  1.00  0.00    -0.051 Br
HETATM   36  C   UNL     1      43.625 -19.302   2.914  1.00  0.00     0.020 A 
HETATM   37  C   UNL     1      43.297 -18.129   2.227  1.00  0.00     0.019 A 
ENDBRANCH  29  31
ENDBRANCH  28  29
ENDBRANCH   2  28
TORSDOF 6
ENDMDL
MODEL 7
REMARK VINA RESULT:      -7.9     18.981     20.266
REMARK  6 active torsions:
REMARK  status: ('A' for Active; 'I' for Inactive)
REMARK    1  A    between atoms: C_2  and  O_3 
REMARK    2  A    between atoms: O_3  and  C_4 
REMARK    3  A    between atoms: C_5  and  O_6 
REMARK    4  A    between atoms: O_6  and  C_7 
REMARK    5  A    between atoms: C_7  and  C_8 
REMARK    6  A    between atoms: C_18  and  C_19 
ROOT
HETATM    1  C   UNL     1      45.851 -28.941   1.802  1.00  0.00     0.103 A 
HETATM    2  C   UNL     1      45.342 -28.915   0.495  1.00  0.00     0.112 A 
HETATM    3  C   UNL     1      44.247 -29.696   0.128  1.00  0.00     0.041 A 
HETATM    4  C   UNL     1      43.643 -30.518   1.076  1.00  0.00     0.014 A 
HETATM    5  C   UNL     1      44.114 -30.553   2.399  1.00  0.00    -0.013 A 
HETATM    6  C   UNL     1      45.232 -29.766   2.748  1.00  0.00     0.050 A 
ENDROOT
BRANCH   5   7
HETATM    7  C   UNL     1      43.347 -31.342   3.434  1.00  0.00     0.219 C 
HETATM    8  N   UNL     1      42.155 -30.637   3.826  1.00  0.00    -0.332 N 
HETATM    9  C   UNL     1      41.395 -31.058   4.885  1.00  0.00     0.256 C 
HETATM   10  H   UNL     1      41.645 -30.132   3.115  1.00  0.00     0.165 HD
HETATM   11  O   UNL     1      40.219 -30.739   5.016  1.00  0.00    -0.267 OA
HETATM   12  C   UNL     1      42.097 -31.896   5.845  1.00  0.00     0.073 A 
HETATM   13  C   UNL     1      43.447 -32.114   5.675  1.00  0.00     0.088 A 
HETATM   14  C   UNL     1      41.589 -32.564   7.001  1.00  0.00    -0.023 A 
HETATM   15  S   UNL     1      44.110 -33.080   6.905  1.00  0.00    -0.074 SA
HETATM   16  N   UNL     1      44.139 -31.610   4.623  1.00  0.00    -0.358 N 
HETATM   17  C   UNL     1      42.593 -33.247   7.664  1.00  0.00     0.018 A 
HETATM   18  C   UNL     1      42.401 -34.073   8.890  1.00  0.00     0.281 C 
HETATM   19  N   UNL     1      41.052 -33.793   9.548  1.00  0.00    -0.070 N 
HETATM   20  C   UNL     1      39.930 -33.689   8.516  1.00  0.00     0.239 C 
HETATM   21  H   UNL     1      40.842 -34.617  10.123  1.00  0.00     0.279 HD
HETATM   22  C   UNL     1      41.100 -32.626  10.492  1.00  0.00     0.270 C 
HETATM   23  C   UNL     1      40.175 -32.558   7.502  1.00  0.00     0.068 C 
HETATM   24  H   UNL     1      45.062 -31.987   4.424  1.00  0.00     0.162 HD
ENDBRANCH   5   7
BRANCH   1  25
HETATM   25  O   UNL     1      46.912 -28.111   2.047  1.00  0.00    -0.349 OA
BRANCH  25  26
HETATM   26  C   UNL     1      47.988 -28.620   2.830  1.00  0.00     0.171 C 
HETATM   27  C   UNL     1      48.716 -29.661   1.998  1.00  0.00     0.034 C 
ENDBRANCH  25  26
ENDBRANCH   1  25
BRANCH   2  28
HETATM   28  O   UNL     1      45.894 -27.955  -0.387  1.00  0.00    -0.272 OA
BRANCH  28  29
HETATM   29  C   UNL     1      46.890 -28.265  -1.296  1.00  0.00     0.298 C 
HETATM   30  O   UNL     1      48.095 -28.145  -1.141  1.00  0.00    -0.259 OA
BRANCH  29  31
HETATM   31  C   UNL     1      46.266 -28.877  -2.500  1.00  0.00     0.040 A 
HETATM   32  C   UNL     1      46.620 -30.192  -2.834  1.00  0.00     0.019 A 
HETATM   33  C   UNL     1      46.022 -30.827  -3.925  1.00  0.00     0.020 A 
HETATM   34  C   UNL     1      45.076 -30.144  -4.689  1.00  0.00     0.011 A 
HETATM   35 BR   UNL     1      44.254 -31.008  -6.155  1.00  0.00    -0.051 Br
HETATM   36  C   UNL     1      44.725 -28.832  -4.376  1.00  0.00     0.020 A 
HETATM   37  C   UNL     1      45.321 -28.196  -3.282  1.00  0.00     0.019 A 
ENDBRANCH  29  31
ENDBRANCH  28  29
ENDBRANCH   2  28
TORSDOF 6
ENDMDL
MODEL 8
REMARK VINA RESULT:      -7.8      4.481     10.830
REMARK  6 active torsions:
REMARK  status: ('A' for Active; 'I' for Inactive)
REMARK    1  A    between atoms: C_2  and  O_3 
REMARK    2  A    between atoms: O_3  and  C_4 
REMARK    3  A    between atoms: C_5  and  O_6 
REMARK    4  A    between atoms: O_6  and  C_7 
REMARK    5  A    between atoms: C_7  and  C_8 
REMARK    6  A    between atoms: C_18  and  C_19 
ROOT
HETATM    1  C   UNL     1      43.362  -8.390   8.377  1.00  0.00     0.103 A 
HETATM    2  C   UNL     1      42.344  -8.019   9.268  1.00  0.00     0.112 A 
HETATM    3  C   UNL     1      41.038  -8.480   9.109  1.00  0.00     0.041 A 
HETATM    4  C   UNL     1      40.735  -9.327   8.047  1.00  0.00     0.014 A 
HETATM    5  C   UNL     1      41.734  -9.735   7.147  1.00  0.00    -0.013 A 
HETATM    6  C   UNL     1      43.047  -9.246   7.317  1.00  0.00     0.050 A 
ENDROOT
BRANCH   5   7
HETATM    7  C   UNL     1      41.403 -10.767   6.095  1.00  0.00     0.219 C 
HETATM    8  N   UNL     1      40.798 -11.926   6.697  1.00  0.00    -0.332 N 
HETATM    9  C   UNL     1      40.581 -13.070   5.976  1.00  0.00     0.256 C 
HETATM   10  H   UNL     1      40.158 -11.783   7.466  1.00  0.00     0.165 HD
HETATM   11  O   UNL     1      39.757 -13.912   6.315  1.00  0.00    -0.267 OA
HETATM   12  C   UNL     1      41.415 -13.213   4.792  1.00  0.00     0.073 A 
HETATM   13  C   UNL     1      42.390 -12.270   4.549  1.00  0.00     0.088 A 
HETATM   14  C   UNL     1      41.390 -14.229   3.788  1.00  0.00    -0.023 A 
HETATM   15  S   UNL     1      43.291 -12.614   3.150  1.00  0.00    -0.074 SA
HETATM   16  N   UNL     1      42.575 -11.192   5.349  1.00  0.00    -0.358 N 
HETATM   17  C   UNL     1      42.367 -14.011   2.834  1.00  0.00     0.018 A 
HETATM   18  C   UNL     1      42.596 -14.864   1.633  1.00  0.00     0.281 C 
HETATM   19  N   UNL     1      41.880 -16.207   1.755  1.00  0.00    -0.070 N 
HETATM   20  C   UNL     1      40.469 -16.046   2.318  1.00  0.00     0.239 C 
HETATM   21  H   UNL     1      41.772 -16.557   0.797  1.00  0.00     0.279 HD
HETATM   22  C   UNL     1      42.697 -17.233   2.487  1.00  0.00     0.270 C 
HETATM   23  C   UNL     1      40.469 -15.411   3.720  1.00  0.00     0.068 C 
HETATM   24  H   UNL     1      43.141 -10.421   5.000  1.00  0.00     0.162 HD
ENDBRANCH   5   7
BRANCH   1  25
HETATM   25  O   UNL     1      44.608  -7.894   8.653  1.00  0.00    -0.349 OA
BRANCH  25  26
HETATM   26  C   UNL     1      45.690  -8.818   8.733  1.00  0.00     0.171 C 
HETATM   27  C   UNL     1      45.533  -9.605  10.023  1.00  0.00     0.034 C 
ENDBRANCH  25  26
ENDBRANCH   1  25
BRANCH   2  28
HETATM   28  O   UNL     1      42.734  -7.282  10.413  1.00  0.00    -0.272 OA
BRANCH  28  29
HETATM   29  C   UNL     1      41.926  -6.315  10.986  1.00  0.00     0.298 C 
HETATM   30  O   UNL     1      41.392  -5.371  10.425  1.00  0.00    -0.259 OA
BRANCH  29  31
HETATM   31  C   UNL     1      41.716  -6.654  12.419  1.00  0.00     0.040 A 
HETATM   32  C   UNL     1      42.813  -7.123  13.156  1.00  0.00     0.019 A 
HETATM   33  C   UNL     1      42.678  -7.406  14.518  1.00  0.00     0.020 A 
HETATM   34  C   UNL     1      41.443  -7.228  15.141  1.00  0.00     0.011 A 
HETATM   35 BR   UNL     1      41.263  -7.594  16.987  1.00  0.00    -0.051 Br
HETATM   36  C   UNL     1      40.342  -6.776  14.417  1.00  0.00     0.020 A 
HETATM   37  C   UNL     1      40.476  -6.490  13.055  1.00  0.00     0.019 A 
ENDBRANCH  29  31
ENDBRANCH  28  29
ENDBRANCH   2  28
TORSDOF 6
ENDMDL
MODEL 9
REMARK VINA RESULT:      -7.8      6.939     11.023
REMARK  6 active torsions:
REMARK  status: ('A' for Active; 'I' for Inactive)
REMARK    1  A    between atoms: C_2  and  O_3 
REMARK    2  A    between atoms: O_3  and  C_4 
REMARK    3  A    between atoms: C_5  and  O_6 
REMARK    4  A    between atoms: O_6  and  C_7 
REMARK    5  A    between atoms: C_7  and  C_8 
REMARK    6  A    between atoms: C_18  and  C_19 
ROOT
HETATM    1  C   UNL     1      40.253 -12.989   1.895  1.00  0.00     0.103 A 
HETATM    2  C   UNL     1      40.659 -14.322   1.736  1.00  0.00     0.112 A 
HETATM    3  C   UNL     1      40.449 -15.006   0.540  1.00  0.00     0.041 A 
HETATM    4  C   UNL     1      39.827 -14.354  -0.522  1.00  0.00     0.014 A 
HETATM    5  C   UNL     1      39.426 -13.013  -0.405  1.00  0.00    -0.013 A 
HETATM    6  C   UNL     1      39.634 -12.342   0.819  1.00  0.00     0.050 A 
ENDROOT
BRANCH   5   7
HETATM    7  C   UNL     1      38.887 -12.296  -1.620  1.00  0.00     0.219 C 
HETATM    8  N   UNL     1      39.882 -11.411  -2.166  1.00  0.00    -0.332 N 
HETATM    9  C   UNL     1      39.571 -10.514  -3.154  1.00  0.00     0.256 C 
HETATM   10  H   UNL     1      40.845 -11.717  -2.162  1.00  0.00     0.165 HD
HETATM   11  O   UNL     1      40.422 -10.030  -3.891  1.00  0.00    -0.267 OA
HETATM   12  C   UNL     1      38.160 -10.171  -3.244  1.00  0.00     0.073 A 
HETATM   13  C   UNL     1      37.291 -10.680  -2.304  1.00  0.00     0.088 A 
HETATM   14  C   UNL     1      37.492  -9.345  -4.199  1.00  0.00    -0.023 A 
HETATM   15  S   UNL     1      35.694 -10.148  -2.539  1.00  0.00    -0.074 SA
HETATM   16  N   UNL     1      37.694 -11.521  -1.320  1.00  0.00    -0.358 N 
HETATM   17  C   UNL     1      36.140  -9.255  -3.921  1.00  0.00     0.018 A 
HETATM   18  C   UNL     1      35.147  -8.499  -4.736  1.00  0.00     0.281 C 
HETATM   19  N   UNL     1      35.833  -7.534  -5.700  1.00  0.00    -0.070 N 
HETATM   20  C   UNL     1      37.042  -8.176  -6.377  1.00  0.00     0.239 C 
HETATM   21  H   UNL     1      35.150  -7.345  -6.443  1.00  0.00     0.279 HD
HETATM   22  C   UNL     1      36.141  -6.207  -5.068  1.00  0.00     0.270 C 
HETATM   23  C   UNL     1      38.108  -8.625  -5.361  1.00  0.00     0.068 C 
HETATM   24  H   UNL     1      36.986 -12.042  -0.806  1.00  0.00     0.162 HD
ENDBRANCH   5   7
BRANCH   1  25
HETATM   25  O   UNL     1      40.537 -12.418   3.106  1.00  0.00    -0.349 OA
BRANCH  25  26
HETATM   26  C   UNL     1      40.893 -11.038   3.125  1.00  0.00     0.171 C 
HETATM   27  C   UNL     1      42.390 -10.948   3.361  1.00  0.00     0.034 C 
ENDBRANCH  25  26
ENDBRANCH   1  25
BRANCH   2  28
HETATM   28  O   UNL     1      41.420 -14.888   2.788  1.00  0.00    -0.272 OA
BRANCH  28  29
HETATM   29  C   UNL     1      42.800 -14.986   2.738  1.00  0.00     0.298 C 
HETATM   30  O   UNL     1      43.592 -14.110   2.429  1.00  0.00    -0.259 OA
BRANCH  29  31
HETATM   31  C   UNL     1      43.202 -16.334   3.225  1.00  0.00     0.040 A 
HETATM   32  C   UNL     1      43.553 -16.472   4.575  1.00  0.00     0.019 A 
HETATM   33  C   UNL     1      43.887 -17.728   5.090  1.00  0.00     0.020 A 
HETATM   34  C   UNL     1      43.879 -18.843   4.254  1.00  0.00     0.011 A 
HETATM   35 BR   UNL     1      44.316 -20.543   4.953  1.00  0.00    -0.051 Br
HETATM   36  C   UNL     1      43.546 -18.715   2.906  1.00  0.00     0.020 A 
HETATM   37  C   UNL     1      43.208 -17.461   2.389  1.00  0.00     0.019 A 
ENDBRANCH  29  31
ENDBRANCH  28  29
ENDBRANCH   2  28
TORSDOF 6
ENDMDL
MODEL 10
REMARK VINA RESULT:      -7.8      2.011      3.244
REMARK  6 active torsions:
REMARK  status: ('A' for Active; 'I' for Inactive)
REMARK    1  A    between atoms: C_2  and  O_3 
REMARK    2  A    between atoms: O_3  and  C_4 
REMARK    3  A    between atoms: C_5  and  O_6 
REMARK    4  A    between atoms: O_6  and  C_7 
REMARK    5  A    between atoms: C_7  and  C_8 
REMARK    6  A    between atoms: C_18  and  C_19 
ROOT
HETATM    1  C   UNL     1      43.012 -11.021   6.339  1.00  0.00     0.103 A 
HETATM    2  C   UNL     1      41.868 -10.657   5.614  1.00  0.00     0.112 A 
HETATM    3  C   UNL     1      40.886  -9.840   6.174  1.00  0.00     0.041 A 
HETATM    4  C   UNL     1      41.042  -9.374   7.476  1.00  0.00     0.014 A 
HETATM    5  C   UNL     1      42.185  -9.703   8.223  1.00  0.00    -0.013 A 
HETATM    6  C   UNL     1      43.161 -10.542   7.645  1.00  0.00     0.050 A 
ENDROOT
BRANCH   5   7
HETATM    7  C   UNL     1      42.391  -9.064   9.577  1.00  0.00     0.219 C 
HETATM    8  N   UNL     1      42.242 -10.041  10.624  1.00  0.00    -0.332 N 
HETATM    9  C   UNL     1      42.196  -9.669  11.942  1.00  0.00     0.256 C 
HETATM   10  H   UNL     1      42.597 -10.972  10.460  1.00  0.00     0.165 HD
HETATM   11  O   UNL     1      42.449 -10.449  12.852  1.00  0.00    -0.267 OA
HETATM   12  C   UNL     1      41.810  -8.285  12.172  1.00  0.00     0.073 A 
HETATM   13  C   UNL     1      41.439  -7.511  11.094  1.00  0.00     0.088 A 
HETATM   14  C   UNL     1      41.745  -7.559  13.401  1.00  0.00    -0.023 A 
HETATM   15  S   UNL     1      40.983  -5.938  11.551  1.00  0.00    -0.074 SA
HETATM   16  N   UNL     1      41.459  -7.977   9.822  1.00  0.00    -0.358 N 
HETATM   17  C   UNL     1      41.308  -6.263  13.192  1.00  0.00     0.018 A 
HETATM   18  C   UNL     1      41.157  -5.229  14.255  1.00  0.00     0.281 C 
HETATM   19  N   UNL     1      41.184  -5.851  15.649  1.00  0.00    -0.070 N 
HETATM   20  C   UNL     1      42.272  -6.916  15.772  1.00  0.00     0.239 C 
HETATM   21  H   UNL     1      41.445  -5.094  16.291  1.00  0.00     0.279 HD
HETATM   22  C   UNL     1      39.832  -6.330  16.094  1.00  0.00     0.270 C 
HETATM   23  C   UNL     1      42.074  -8.069  14.772  1.00  0.00     0.068 C 
HETATM   24  H   UNL     1      41.401  -7.306   9.058  1.00  0.00     0.162 HD
ENDBRANCH   5   7
BRANCH   1  25
HETATM   25  O   UNL     1      43.916 -11.805   5.673  1.00  0.00    -0.349 OA
BRANCH  25  26
HETATM   26  C   UNL     1      44.539 -12.864   6.396  1.00  0.00     0.171 C 
HETATM   27  C   UNL     1      43.575 -14.038   6.421  1.00  0.00     0.034 C 
ENDBRANCH  25  26
ENDBRANCH   1  25
BRANCH   2  28
HETATM   28  O   UNL     1      41.830 -11.030   4.249  1.00  0.00    -0.272 OA
BRANCH  28  29
HETATM   29  C   UNL     1      40.864 -11.877   3.736  1.00  0.00     0.298 C 
HETATM   30  O   UNL     1      39.712 -11.595   3.445  1.00  0.00    -0.259 OA
BRANCH  29  31
HETATM   31  C   UNL     1      41.477 -13.211   3.493  1.00  0.00     0.040 A 
HETATM   32  C   UNL     1      40.794 -14.347   3.948  1.00  0.00     0.019 A 
HETATM   33  C   UNL     1      41.304 -15.624   3.698  1.00  0.00     0.020 A 
HETATM   34  C   UNL     1      42.502 -15.764   2.999  1.00  0.00     0.011 A 
HETATM   35 BR   UNL     1      43.185 -17.491   2.646  1.00  0.00    -0.051 Br
HETATM   36  C   UNL     1      43.199 -14.642   2.554  1.00  0.00     0.020 A 
HETATM   37  C   UNL     1      42.688 -13.364   2.800  1.00  0.00     0.019 A 
ENDBRANCH  29  31
ENDBRANCH  28  29
ENDBRANCH   2  28
TORSDOF 6
ENDMDL
