MODEL 1
REMARK VINA RESULT:      -8.0      0.000      0.000
REMARK  7 active torsions:
REMARK  status: ('A' for Active; 'I' for Inactive)
REMARK    1  A    between atoms: C_2  and  N_3 
REMARK    2  A    between atoms: C_2  and  C_17 
REMARK       I    between atoms: N_3  and  C_4 
REMARK    3  A    between atoms: C_4  and  C_5 
REMARK    4  A    between atoms: C_6  and  N_7 
REMARK    5  A    between atoms: C_17  and  O_18 
REMARK    6  A    between atoms: C_17  and  C_19 
REMARK    7  A    between atoms: C_22  and  O_23 
ROOT
HETATM    1  N   UNL     1      41.591 -16.387   2.882  1.00  0.00    -0.350 N 
HETATM    2  C   UNL     1      42.815 -16.880   2.493  1.00  0.00     0.255 C 
HETATM    3  O   UNL     1      43.580 -16.284   1.745  1.00  0.00    -0.268 OA
HETATM    4  H   UNL     1      41.033 -16.925   3.535  1.00  0.00     0.163 HD
ENDROOT
BRANCH   1   5
HETATM    5  C   UNL     1      41.063 -15.065   2.510  1.00  0.00     0.114 C 
HETATM    6  C   UNL     1      39.860 -15.218   1.578  1.00  0.00     0.035 C 
BRANCH   5   7
HETATM    7  C   UNL     1      40.751 -14.097   3.698  1.00  0.00     0.173 C 
BRANCH   7   8
HETATM    8  O   UNL     1      40.164 -14.756   4.819  1.00  0.00    -0.389 OA
HETATM    9  H   UNL     1      39.465 -15.350   4.465  1.00  0.00     0.210 HD
ENDBRANCH   7   8
BRANCH   7  10
HETATM   10  C   UNL     1      41.934 -13.243   4.119  1.00  0.00    -0.028 A 
HETATM   11  C   UNL     1      42.213 -13.056   5.480  1.00  0.00     0.012 A 
HETATM   12  C   UNL     1      43.301 -12.278   5.885  1.00  0.00     0.037 A 
HETATM   13  C   UNL     1      44.134 -11.673   4.942  1.00  0.00     0.068 A 
HETATM   14  C   UNL     1      43.858 -11.838   3.587  1.00  0.00     0.037 A 
HETATM   15  C   UNL     1      42.770 -12.619   3.181  1.00  0.00     0.012 A 
BRANCH  13  16
HETATM   16  O   UNL     1      45.168 -10.949   5.470  1.00  0.00    -0.356 OA
HETATM   17  C   UNL     1      45.545 -11.260   6.806  1.00  0.00     0.210 C 
ENDBRANCH  13  16
ENDBRANCH   7  10
ENDBRANCH   5   7
ENDBRANCH   1   5
BRANCH   2  18
HETATM   18  C   UNL     1      43.163 -18.218   3.005  1.00  0.00     0.079 A 
HETATM   19  C   UNL     1      43.610 -18.476   4.304  1.00  0.00     0.165 A 
HETATM   20  N   UNL     1      44.086 -19.715   4.652  1.00  0.00    -0.241 NA
HETATM   21  C   UNL     1      44.098 -20.697   3.729  1.00  0.00     0.119 A 
HETATM   22  C   UNL     1      43.659 -20.524   2.433  1.00  0.00     0.020 A 
HETATM   23  C   UNL     1      43.200 -19.265   2.063  1.00  0.00     0.022 A 
BRANCH  19  24
HETATM   24  N   UNL     1      43.555 -17.507   5.366  1.00  0.00    -0.226 N 
HETATM   25  N   UNL     1      42.348 -17.140   5.894  1.00  0.00    -0.179 NA
HETATM   26  C   UNL     1      42.639 -16.265   6.854  1.00  0.00     0.141 A 
HETATM   27  C   UNL     1      44.006 -15.977   6.919  1.00  0.00     0.040 A 
HETATM   28  C   UNL     1      44.566 -16.748   5.928  1.00  0.00     0.122 A 
ENDBRANCH  19  24
ENDBRANCH   2  18
TORSDOF 7
ENDMDL
MODEL 2
REMARK VINA RESULT:      -7.2      2.694      4.931
REMARK  7 active torsions:
REMARK  status: ('A' for Active; 'I' for Inactive)
REMARK    1  A    between atoms: C_2  and  N_3 
REMARK    2  A    between atoms: C_2  and  C_17 
REMARK       I    between atoms: N_3  and  C_4 
REMARK    3  A    between atoms: C_4  and  C_5 
REMARK    4  A    between atoms: C_6  and  N_7 
REMARK    5  A    between atoms: C_17  and  O_18 
REMARK    6  A    between atoms: C_17  and  C_19 
REMARK    7  A    between atoms: C_22  and  O_23 
ROOT
HETATM    1  N   UNL     1      41.665 -14.644   3.360  1.00  0.00    -0.350 N 
HETATM    2  C   UNL     1      41.226 -15.946   3.446  1.00  0.00     0.255 C 
HETATM    3  O   UNL     1      40.045 -16.265   3.468  1.00  0.00    -0.268 OA
HETATM    4  H   UNL     1      42.661 -14.468   3.308  1.00  0.00     0.163 HD
ENDROOT
BRANCH   1   5
HETATM    5  C   UNL     1      40.786 -13.473   3.221  1.00  0.00     0.114 C 
HETATM    6  C   UNL     1      40.642 -12.756   4.564  1.00  0.00     0.035 C 
BRANCH   5   7
HETATM    7  C   UNL     1      41.157 -12.476   2.074  1.00  0.00     0.173 C 
BRANCH   7   8
HETATM    8  O   UNL     1      42.532 -12.096   2.084  1.00  0.00    -0.389 OA
HETATM    9  H   UNL     1      42.819 -12.092   3.023  1.00  0.00     0.210 HD
ENDBRANCH   7   8
BRANCH   7  10
HETATM   10  C   UNL     1      40.723 -12.941   0.695  1.00  0.00    -0.028 A 
HETATM   11  C   UNL     1      40.978 -12.139  -0.426  1.00  0.00     0.012 A 
HETATM   12  C   UNL     1      40.591 -12.554  -1.703  1.00  0.00     0.037 A 
HETATM   13  C   UNL     1      39.945 -13.777  -1.889  1.00  0.00     0.068 A 
HETATM   14  C   UNL     1      39.671 -14.576  -0.781  1.00  0.00     0.037 A 
HETATM   15  C   UNL     1      40.060 -14.162   0.498  1.00  0.00     0.012 A 
BRANCH  13  16
HETATM   16  O   UNL     1      39.631 -14.070  -3.188  1.00  0.00    -0.356 OA
HETATM   17  C   UNL     1      38.415 -14.777  -3.404  1.00  0.00     0.210 C 
ENDBRANCH  13  16
ENDBRANCH   7  10
ENDBRANCH   5   7
ENDBRANCH   1   5
BRANCH   2  18
HETATM   18  C   UNL     1      42.279 -16.975   3.549  1.00  0.00     0.079 A 
HETATM   19  C   UNL     1      43.220 -17.041   4.579  1.00  0.00     0.165 A 
HETATM   20  N   UNL     1      44.278 -17.914   4.513  1.00  0.00    -0.241 NA
HETATM   21  C   UNL     1      44.388 -18.730   3.446  1.00  0.00     0.119 A 
HETATM   22  C   UNL     1      43.490 -18.734   2.399  1.00  0.00     0.020 A 
HETATM   23  C   UNL     1      42.431 -17.836   2.445  1.00  0.00     0.022 A 
BRANCH  19  24
HETATM   24  N   UNL     1      43.129 -16.262   5.786  1.00  0.00    -0.226 N 
HETATM   25  N   UNL     1      43.509 -14.948   5.780  1.00  0.00    -0.179 NA
HETATM   26  C   UNL     1      43.283 -14.515   7.018  1.00  0.00     0.141 A 
HETATM   27  C   UNL     1      42.842 -15.533   7.869  1.00  0.00     0.040 A 
HETATM   28  C   UNL     1      42.794 -16.651   7.071  1.00  0.00     0.122 A 
ENDBRANCH  19  24
ENDBRANCH   2  18
TORSDOF 7
ENDMDL
MODEL 3
REMARK VINA RESULT:      -7.2      3.796      7.980
REMARK  7 active torsions:
REMARK  status: ('A' for Active; 'I' for Inactive)
REMARK    1  A    between atoms: C_2  and  N_3 
REMARK    2  A    between atoms: C_2  and  C_17 
REMARK       I    between atoms: N_3  and  C_4 
REMARK    3  A    between atoms: C_4  and  C_5 
REMARK    4  A    between atoms: C_6  and  N_7 
REMARK    5  A    between atoms: C_17  and  O_18 
REMARK    6  A    between atoms: C_17  and  C_19 
REMARK    7  A    between atoms: C_22  and  O_23 
ROOT
HETATM    1  N   UNL     1      41.477 -13.709   0.778  1.00  0.00    -0.350 N 
HETATM    2  C   UNL     1      40.763 -12.584   1.126  1.00  0.00     0.255 C 
HETATM    3  O   UNL     1      40.075 -12.502   2.134  1.00  0.00    -0.268 OA
HETATM    4  H   UNL     1      42.054 -13.683  -0.054  1.00  0.00     0.163 HD
ENDROOT
BRANCH   1   5
HETATM    5  C   UNL     1      41.560 -14.932   1.592  1.00  0.00     0.114 C 
HETATM    6  C   UNL     1      40.335 -15.815   1.348  1.00  0.00     0.035 C 
BRANCH   5   7
HETATM    7  C   UNL     1      42.890 -15.745   1.465  1.00  0.00     0.173 C 
BRANCH   7   8
HETATM    8  O   UNL     1      44.026 -14.924   1.198  1.00  0.00    -0.389 OA
HETATM    9  H   UNL     1      44.701 -15.500   0.776  1.00  0.00     0.210 HD
ENDBRANCH   7   8
BRANCH   7  10
HETATM   10  C   UNL     1      43.149 -16.682   2.631  1.00  0.00    -0.028 A 
HETATM   11  C   UNL     1      43.445 -18.031   2.393  1.00  0.00     0.012 A 
HETATM   12  C   UNL     1      43.692 -18.905   3.455  1.00  0.00     0.037 A 
HETATM   13  C   UNL     1      43.652 -18.452   4.775  1.00  0.00     0.068 A 
HETATM   14  C   UNL     1      43.343 -17.117   5.026  1.00  0.00     0.037 A 
HETATM   15  C   UNL     1      43.098 -16.240   3.962  1.00  0.00     0.012 A 
BRANCH  13  16
HETATM   16  O   UNL     1      43.923 -19.405   5.718  1.00  0.00    -0.356 OA
HETATM   17  C   UNL     1      44.305 -20.688   5.234  1.00  0.00     0.210 C 
ENDBRANCH  13  16
ENDBRANCH   7  10
ENDBRANCH   5   7
ENDBRANCH   1   5
BRANCH   2  18
HETATM   18  C   UNL     1      40.840 -11.456   0.180  1.00  0.00     0.079 A 
HETATM   19  C   UNL     1      40.425 -11.512  -1.153  1.00  0.00     0.165 A 
HETATM   20  N   UNL     1      40.694 -10.482  -2.020  1.00  0.00    -0.241 NA
HETATM   21  C   UNL     1      41.348  -9.395  -1.563  1.00  0.00     0.119 A 
HETATM   22  C   UNL     1      41.775  -9.259  -0.259  1.00  0.00     0.020 A 
HETATM   23  C   UNL     1      41.530 -10.309   0.619  1.00  0.00     0.022 A 
BRANCH  19  24
HETATM   24  N   UNL     1      39.654 -12.599  -1.696  1.00  0.00    -0.226 N 
HETATM   25  N   UNL     1      40.286 -13.721  -2.158  1.00  0.00    -0.179 NA
HETATM   26  C   UNL     1      39.309 -14.529  -2.562  1.00  0.00     0.141 A 
HETATM   27  C   UNL     1      38.047 -13.937  -2.459  1.00  0.00     0.040 A 
HETATM   28  C   UNL     1      38.295 -12.687  -1.945  1.00  0.00     0.122 A 
ENDBRANCH  19  24
ENDBRANCH   2  18
TORSDOF 7
ENDMDL
MODEL 4
REMARK VINA RESULT:      -7.0      1.623      1.949
REMARK  7 active torsions:
REMARK  status: ('A' for Active; 'I' for Inactive)
REMARK    1  A    between atoms: C_2  and  N_3 
REMARK    2  A    between atoms: C_2  and  C_17 
REMARK       I    between atoms: N_3  and  C_4 
REMARK    3  A    between atoms: C_4  and  C_5 
REMARK    4  A    between atoms: C_6  and  N_7 
REMARK    5  A    between atoms: C_17  and  O_18 
REMARK    6  A    between atoms: C_17  and  C_19 
REMARK    7  A    between atoms: C_22  and  O_23 
ROOT
HETATM    1  N   UNL     1      41.568 -16.469   2.746  1.00  0.00    -0.350 N 
HETATM    2  C   UNL     1      42.816 -16.936   2.402  1.00  0.00     0.255 C 
HETATM    3  O   UNL     1      43.592 -16.330   1.675  1.00  0.00    -0.268 OA
HETATM    4  H   UNL     1      41.002 -17.015   3.385  1.00  0.00     0.163 HD
ENDROOT
BRANCH   1   5
HETATM    5  C   UNL     1      41.023 -15.163   2.344  1.00  0.00     0.114 C 
HETATM    6  C   UNL     1      40.215 -15.301   1.053  1.00  0.00     0.035 C 
BRANCH   5   7
HETATM    7  C   UNL     1      40.223 -14.391   3.444  1.00  0.00     0.173 C 
BRANCH   7   8
HETATM    8  O   UNL     1      40.128 -15.108   4.674  1.00  0.00    -0.389 OA
HETATM    9  H   UNL     1      39.475 -15.828   4.534  1.00  0.00     0.210 HD
ENDBRANCH   7   8
BRANCH   7  10
HETATM   10  C   UNL     1      40.708 -12.970   3.670  1.00  0.00    -0.028 A 
HETATM   11  C   UNL     1      39.792 -11.909   3.659  1.00  0.00     0.012 A 
HETATM   12  C   UNL     1      40.221 -10.596   3.872  1.00  0.00     0.037 A 
HETATM   13  C   UNL     1      41.568 -10.314   4.102  1.00  0.00     0.068 A 
HETATM   14  C   UNL     1      42.491 -11.358   4.099  1.00  0.00     0.037 A 
HETATM   15  C   UNL     1      42.062 -12.674   3.888  1.00  0.00     0.012 A 
BRANCH  13  16
HETATM   16  O   UNL     1      41.853  -8.992   4.305  1.00  0.00    -0.356 OA
HETATM   17  C   UNL     1      40.799  -8.068   4.052  1.00  0.00     0.210 C 
ENDBRANCH  13  16
ENDBRANCH   7  10
ENDBRANCH   5   7
ENDBRANCH   1   5
BRANCH   2  18
HETATM   18  C   UNL     1      43.178 -18.262   2.938  1.00  0.00     0.079 A 
HETATM   19  C   UNL     1      43.642 -18.490   4.236  1.00  0.00     0.165 A 
HETATM   20  N   UNL     1      44.129 -19.719   4.605  1.00  0.00    -0.241 NA
HETATM   21  C   UNL     1      44.134 -20.721   3.703  1.00  0.00     0.119 A 
HETATM   22  C   UNL     1      43.678 -20.577   2.409  1.00  0.00     0.020 A 
HETATM   23  C   UNL     1      43.207 -19.329   2.019  1.00  0.00     0.022 A 
BRANCH  19  24
HETATM   24  N   UNL     1      43.596 -17.498   5.278  1.00  0.00    -0.226 N 
HETATM   25  N   UNL     1      42.394 -17.123   5.811  1.00  0.00    -0.179 NA
HETATM   26  C   UNL     1      42.693 -16.227   6.749  1.00  0.00     0.141 A 
HETATM   27  C   UNL     1      44.060 -15.935   6.793  1.00  0.00     0.040 A 
HETATM   28  C   UNL     1      44.612 -16.726   5.814  1.00  0.00     0.122 A 
ENDBRANCH  19  24
ENDBRANCH   2  18
TORSDOF 7
ENDMDL
MODEL 5
REMARK VINA RESULT:      -7.0      2.951      6.836
REMARK  7 active torsions:
REMARK  status: ('A' for Active; 'I' for Inactive)
REMARK    1  A    between atoms: C_2  and  N_3 
REMARK    2  A    between atoms: C_2  and  C_17 
REMARK       I    between atoms: N_3  and  C_4 
REMARK    3  A    between atoms: C_4  and  C_5 
REMARK    4  A    between atoms: C_6  and  N_7 
REMARK    5  A    between atoms: C_17  and  O_18 
REMARK    6  A    between atoms: C_17  and  C_19 
REMARK    7  A    between atoms: C_22  and  O_23 
ROOT
HETATM    1  N   UNL     1      41.950 -13.788   3.938  1.00  0.00    -0.350 N 
HETATM    2  C   UNL     1      41.805 -13.822   5.307  1.00  0.00     0.255 C 
HETATM    3  O   UNL     1      41.131 -14.655   5.897  1.00  0.00    -0.268 OA
HETATM    4  H   UNL     1      42.558 -13.087   3.529  1.00  0.00     0.163 HD
ENDROOT
BRANCH   1   5
HETATM    5  C   UNL     1      41.374 -14.773   3.010  1.00  0.00     0.114 C 
HETATM    6  C   UNL     1      40.247 -14.137   2.195  1.00  0.00     0.035 C 
BRANCH   5   7
HETATM    7  C   UNL     1      42.395 -15.524   2.093  1.00  0.00     0.173 C 
BRANCH   7   8
HETATM    8  O   UNL     1      43.435 -14.678   1.604  1.00  0.00    -0.389 OA
HETATM    9  H   UNL     1      43.070 -14.199   0.828  1.00  0.00     0.210 HD
ENDBRANCH   7   8
BRANCH   7  10
HETATM   10  C   UNL     1      42.959 -16.790   2.713  1.00  0.00    -0.028 A 
HETATM   11  C   UNL     1      42.884 -18.003   2.016  1.00  0.00     0.012 A 
HETATM   12  C   UNL     1      43.403 -19.177   2.570  1.00  0.00     0.037 A 
HETATM   13  C   UNL     1      44.011 -19.164   3.826  1.00  0.00     0.068 A 
HETATM   14  C   UNL     1      44.078 -17.967   4.536  1.00  0.00     0.037 A 
HETATM   15  C   UNL     1      43.559 -16.790   3.982  1.00  0.00     0.012 A 
BRANCH  13  16
HETATM   16  O   UNL     1      44.487 -20.375   4.247  1.00  0.00    -0.356 OA
HETATM   17  C   UNL     1      44.048 -20.822   5.525  1.00  0.00     0.210 C 
ENDBRANCH  13  16
ENDBRANCH   7  10
ENDBRANCH   5   7
ENDBRANCH   1   5
BRANCH   2  18
HETATM   18  C   UNL     1      42.493 -12.752   6.054  1.00  0.00     0.079 A 
HETATM   19  C   UNL     1      42.012 -11.447   6.190  1.00  0.00     0.165 A 
HETATM   20  N   UNL     1      42.791 -10.462   6.743  1.00  0.00    -0.241 NA
HETATM   21  C   UNL     1      44.028 -10.773   7.180  1.00  0.00     0.119 A 
HETATM   22  C   UNL     1      44.566 -12.040   7.096  1.00  0.00     0.020 A 
HETATM   23  C   UNL     1      43.793 -13.038   6.513  1.00  0.00     0.022 A 
BRANCH  19  24
HETATM   24  N   UNL     1      40.677 -11.054   5.821  1.00  0.00    -0.226 N 
HETATM   25  N   UNL     1      40.351 -10.896   4.502  1.00  0.00    -0.179 NA
HETATM   26  C   UNL     1      39.063 -10.561   4.500  1.00  0.00     0.141 A 
HETATM   27  C   UNL     1      38.547 -10.409   5.790  1.00  0.00     0.040 A 
HETATM   28  C   UNL     1      39.608 -10.685   6.619  1.00  0.00     0.122 A 
ENDBRANCH  19  24
ENDBRANCH   2  18
TORSDOF 7
ENDMDL
MODEL 6
REMARK VINA RESULT:      -6.9      2.135      4.273
REMARK  7 active torsions:
REMARK  status: ('A' for Active; 'I' for Inactive)
REMARK    1  A    between atoms: C_2  and  N_3 
REMARK    2  A    between atoms: C_2  and  C_17 
REMARK       I    between atoms: N_3  and  C_4 
REMARK    3  A    between atoms: C_4  and  C_5 
REMARK    4  A    between atoms: C_6  and  N_7 
REMARK    5  A    between atoms: C_17  and  O_18 
REMARK    6  A    between atoms: C_17  and  C_19 
REMARK    7  A    between atoms: C_22  and  O_23 
ROOT
HETATM    1  N   UNL     1      42.199 -16.120   3.769  1.00  0.00    -0.350 N 
HETATM    2  C   UNL     1      42.879 -16.807   2.789  1.00  0.00     0.255 C 
HETATM    3  O   UNL     1      43.185 -16.322   1.708  1.00  0.00    -0.268 OA
HETATM    4  H   UNL     1      42.018 -16.583   4.653  1.00  0.00     0.163 HD
ENDROOT
BRANCH   1   5
HETATM    5  C   UNL     1      41.806 -14.706   3.681  1.00  0.00     0.114 C 
HETATM    6  C   UNL     1      42.737 -13.955   2.728  1.00  0.00     0.035 C 
BRANCH   5   7
HETATM    7  C   UNL     1      40.302 -14.437   3.346  1.00  0.00     0.173 C 
BRANCH   7   8
HETATM    8  O   UNL     1      39.706 -13.456   4.194  1.00  0.00    -0.389 OA
HETATM    9  H   UNL     1      39.829 -13.766   5.118  1.00  0.00     0.210 HD
ENDBRANCH   7   8
BRANCH   7  10
HETATM   10  C   UNL     1      40.045 -14.129   1.882  1.00  0.00    -0.028 A 
HETATM   11  C   UNL     1      39.794 -12.811   1.478  1.00  0.00     0.012 A 
HETATM   12  C   UNL     1      39.562 -12.510   0.133  1.00  0.00     0.037 A 
HETATM   13  C   UNL     1      39.579 -13.515  -0.836  1.00  0.00     0.068 A 
HETATM   14  C   UNL     1      39.812 -14.831  -0.445  1.00  0.00     0.037 A 
HETATM   15  C   UNL     1      40.046 -15.134   0.902  1.00  0.00     0.012 A 
BRANCH  13  16
HETATM   16  O   UNL     1      39.349 -13.085  -2.114  1.00  0.00    -0.356 OA
HETATM   17  C   UNL     1      38.917 -14.069  -3.047  1.00  0.00     0.210 C 
ENDBRANCH  13  16
ENDBRANCH   7  10
ENDBRANCH   5   7
ENDBRANCH   1   5
BRANCH   2  18
HETATM   18  C   UNL     1      43.203 -18.213   3.095  1.00  0.00     0.079 A 
HETATM   19  C   UNL     1      43.779 -18.649   4.292  1.00  0.00     0.165 A 
HETATM   20  N   UNL     1      44.218 -19.942   4.432  1.00  0.00    -0.241 NA
HETATM   21  C   UNL     1      44.067 -20.802   3.406  1.00  0.00     0.119 A 
HETATM   22  C   UNL     1      43.494 -20.451   2.201  1.00  0.00     0.020 A 
HETATM   23  C   UNL     1      43.070 -19.136   2.040  1.00  0.00     0.022 A 
BRANCH  19  24
HETATM   24  N   UNL     1      43.903 -17.817   5.459  1.00  0.00    -0.226 N 
HETATM   25  N   UNL     1      44.809 -16.793   5.474  1.00  0.00    -0.179 NA
HETATM   26  C   UNL     1      44.660 -16.213   6.663  1.00  0.00     0.141 A 
HETATM   27  C   UNL     1      43.736 -16.881   7.471  1.00  0.00     0.040 A 
HETATM   28  C   UNL     1      43.298 -17.929   6.698  1.00  0.00     0.122 A 
ENDBRANCH  19  24
ENDBRANCH   2  18
TORSDOF 7
ENDMDL
MODEL 7
REMARK VINA RESULT:      -6.9      3.907      7.557
REMARK  7 active torsions:
REMARK  status: ('A' for Active; 'I' for Inactive)
REMARK    1  A    between atoms: C_2  and  N_3 
REMARK    2  A    between atoms: C_2  and  C_17 
REMARK       I    between atoms: N_3  and  C_4 
REMARK    3  A    between atoms: C_4  and  C_5 
REMARK    4  A    between atoms: C_6  and  N_7 
REMARK    5  A    between atoms: C_17  and  O_18 
REMARK    6  A    between atoms: C_17  and  C_19 
REMARK    7  A    between atoms: C_22  and  O_23 
ROOT
HETATM    1  N   UNL     1      41.529 -14.444   0.557  1.00  0.00    -0.350 N 
HETATM    2  C   UNL     1      40.340 -13.784   0.346  1.00  0.00     0.255 C 
HETATM    3  O   UNL     1      39.717 -13.208   1.228  1.00  0.00    -0.268 OA
HETATM    4  H   UNL     1      42.002 -14.863  -0.235  1.00  0.00     0.163 HD
ENDROOT
BRANCH   1   5
HETATM    5  C   UNL     1      42.241 -14.496   1.843  1.00  0.00     0.114 C 
HETATM    6  C   UNL     1      42.522 -13.080   2.351  1.00  0.00     0.035 C 
BRANCH   5   7
HETATM    7  C   UNL     1      41.583 -15.384   2.950  1.00  0.00     0.173 C 
BRANCH   7   8
HETATM    8  O   UNL     1      40.255 -15.791   2.626  1.00  0.00    -0.389 OA
HETATM    9  H   UNL     1      39.819 -16.041   3.470  1.00  0.00     0.210 HD
ENDBRANCH   7   8
BRANCH   7  10
HETATM   10  C   UNL     1      42.435 -16.568   3.371  1.00  0.00    -0.028 A 
HETATM   11  C   UNL     1      42.883 -16.671   4.696  1.00  0.00     0.012 A 
HETATM   12  C   UNL     1      43.663 -17.757   5.102  1.00  0.00     0.037 A 
HETATM   13  C   UNL     1      44.010 -18.763   4.198  1.00  0.00     0.068 A 
HETATM   14  C   UNL     1      43.585 -18.664   2.875  1.00  0.00     0.037 A 
HETATM   15  C   UNL     1      42.801 -17.577   2.468  1.00  0.00     0.012 A 
BRANCH  13  16
HETATM   16  O   UNL     1      44.766 -19.774   4.725  1.00  0.00    -0.356 OA
HETATM   17  C   UNL     1      44.061 -20.926   5.175  1.00  0.00     0.210 C 
ENDBRANCH  13  16
ENDBRANCH   7  10
ENDBRANCH   5   7
ENDBRANCH   1   5
BRANCH   2  18
HETATM   18  C   UNL     1      39.813 -13.832  -1.031  1.00  0.00     0.079 A 
HETATM   19  C   UNL     1      39.647 -12.714  -1.853  1.00  0.00     0.165 A 
HETATM   20  N   UNL     1      38.983 -12.812  -3.051  1.00  0.00    -0.241 NA
HETATM   21  C   UNL     1      38.510 -14.012  -3.442  1.00  0.00     0.119 A 
HETATM   22  C   UNL     1      38.649 -15.162  -2.694  1.00  0.00     0.020 A 
HETATM   23  C   UNL     1      39.297 -15.067  -1.467  1.00  0.00     0.022 A 
BRANCH  19  24
HETATM   24  N   UNL     1      40.191 -11.418  -1.545  1.00  0.00    -0.226 N 
HETATM   25  N   UNL     1      41.513 -11.158  -1.783  1.00  0.00    -0.179 NA
HETATM   26  C   UNL     1      41.689  -9.889  -1.421  1.00  0.00     0.141 A 
HETATM   27  C   UNL     1      40.535  -9.326  -0.868  1.00  0.00     0.040 A 
HETATM   28  C   UNL     1      39.603 -10.335  -0.916  1.00  0.00     0.122 A 
ENDBRANCH  19  24
ENDBRANCH   2  18
TORSDOF 7
ENDMDL
MODEL 8
REMARK VINA RESULT:      -6.8      3.365      7.751
REMARK  7 active torsions:
REMARK  status: ('A' for Active; 'I' for Inactive)
REMARK    1  A    between atoms: C_2  and  N_3 
REMARK    2  A    between atoms: C_2  and  C_17 
REMARK       I    between atoms: N_3  and  C_4 
REMARK    3  A    between atoms: C_4  and  C_5 
REMARK    4  A    between atoms: C_6  and  N_7 
REMARK    5  A    between atoms: C_17  and  O_18 
REMARK    6  A    between atoms: C_17  and  C_19 
REMARK    7  A    between atoms: C_22  and  O_23 
ROOT
HETATM    1  N   UNL     1      43.279 -13.098   7.262  1.00  0.00    -0.350 N 
HETATM    2  C   UNL     1      44.278 -12.166   7.099  1.00  0.00     0.255 C 
HETATM    3  O   UNL     1      45.322 -12.388   6.500  1.00  0.00    -0.268 OA
HETATM    4  H   UNL     1      42.428 -12.823   7.739  1.00  0.00     0.163 HD
ENDROOT
BRANCH   1   5
HETATM    5  C   UNL     1      43.298 -14.454   6.693  1.00  0.00     0.114 C 
HETATM    6  C   UNL     1      42.567 -15.428   7.618  1.00  0.00     0.035 C 
BRANCH   5   7
HETATM    7  C   UNL     1      42.799 -14.580   5.215  1.00  0.00     0.173 C 
BRANCH   7   8
HETATM    8  O   UNL     1      43.210 -13.491   4.391  1.00  0.00    -0.389 OA
HETATM    9  H   UNL     1      42.398 -13.124   3.977  1.00  0.00     0.210 HD
ENDBRANCH   7   8
BRANCH   7  10
HETATM   10  C   UNL     1      43.125 -15.915   4.570  1.00  0.00    -0.028 A 
HETATM   11  C   UNL     1      44.083 -16.757   5.152  1.00  0.00     0.012 A 
HETATM   12  C   UNL     1      44.392 -17.991   4.574  1.00  0.00     0.037 A 
HETATM   13  C   UNL     1      43.750 -18.413   3.408  1.00  0.00     0.068 A 
HETATM   14  C   UNL     1      42.808 -17.578   2.811  1.00  0.00     0.037 A 
HETATM   15  C   UNL     1      42.497 -16.342   3.390  1.00  0.00     0.012 A 
BRANCH  13  16
HETATM   16  O   UNL     1      44.135 -19.644   2.953  1.00  0.00    -0.356 OA
HETATM   17  C   UNL     1      43.317 -20.234   1.949  1.00  0.00     0.210 C 
ENDBRANCH  13  16
ENDBRANCH   7  10
ENDBRANCH   5   7
ENDBRANCH   1   5
BRANCH   2  18
HETATM   18  C   UNL     1      44.044 -10.853   7.730  1.00  0.00     0.079 A 
HETATM   19  C   UNL     1      43.007  -9.983   7.382  1.00  0.00     0.165 A 
HETATM   20  N   UNL     1      42.960  -8.706   7.883  1.00  0.00    -0.241 NA
HETATM   21  C   UNL     1      43.919  -8.303   8.741  1.00  0.00     0.119 A 
HETATM   22  C   UNL     1      44.963  -9.108   9.144  1.00  0.00     0.020 A 
HETATM   23  C   UNL     1      45.033 -10.395   8.621  1.00  0.00     0.022 A 
BRANCH  19  24
HETATM   24  N   UNL     1      41.905 -10.363   6.537  1.00  0.00    -0.226 N 
HETATM   25  N   UNL     1      42.125 -10.655   5.219  1.00  0.00    -0.179 NA
HETATM   26  C   UNL     1      40.931 -10.987   4.733  1.00  0.00     0.141 A 
HETATM   27  C   UNL     1      39.909 -10.840   5.676  1.00  0.00     0.040 A 
HETATM   28  C   UNL     1      40.549 -10.398   6.809  1.00  0.00     0.122 A 
ENDBRANCH  19  24
ENDBRANCH   2  18
TORSDOF 7
ENDMDL
MODEL 9
REMARK VINA RESULT:      -6.7      2.311      3.141
REMARK  7 active torsions:
REMARK  status: ('A' for Active; 'I' for Inactive)
REMARK    1  A    between atoms: C_2  and  N_3 
REMARK    2  A    between atoms: C_2  and  C_17 
REMARK       I    between atoms: N_3  and  C_4 
REMARK    3  A    between atoms: C_4  and  C_5 
REMARK    4  A    between atoms: C_6  and  N_7 
REMARK    5  A    between atoms: C_17  and  O_18 
REMARK    6  A    between atoms: C_17  and  C_19 
REMARK    7  A    between atoms: C_22  and  O_23 
ROOT
HETATM    1  N   UNL     1      41.539 -16.575   2.436  1.00  0.00    -0.350 N 
HETATM    2  C   UNL     1      42.861 -16.952   2.360  1.00  0.00     0.255 C 
HETATM    3  O   UNL     1      43.728 -16.279   1.819  1.00  0.00    -0.268 OA
HETATM    4  H   UNL     1      40.890 -17.172   2.936  1.00  0.00     0.163 HD
ENDROOT
BRANCH   1   5
HETATM    5  C   UNL     1      41.002 -15.299   1.940  1.00  0.00     0.114 C 
HETATM    6  C   UNL     1      39.938 -15.551   0.871  1.00  0.00     0.035 C 
BRANCH   5   7
HETATM    7  C   UNL     1      40.494 -14.303   3.034  1.00  0.00     0.173 C 
BRANCH   7   8
HETATM    8  O   UNL     1      41.344 -14.245   4.178  1.00  0.00    -0.389 OA
HETATM    9  H   UNL     1      40.774 -14.017   4.945  1.00  0.00     0.210 HD
ENDBRANCH   7   8
BRANCH   7  10
HETATM   10  C   UNL     1      40.190 -12.913   2.503  1.00  0.00    -0.028 A 
HETATM   11  C   UNL     1      41.206 -12.155   1.904  1.00  0.00     0.012 A 
HETATM   12  C   UNL     1      40.941 -10.877   1.404  1.00  0.00     0.037 A 
HETATM   13  C   UNL     1      39.660 -10.330   1.488  1.00  0.00     0.068 A 
HETATM   14  C   UNL     1      38.645 -11.067   2.096  1.00  0.00     0.037 A 
HETATM   15  C   UNL     1      38.909 -12.348   2.595  1.00  0.00     0.012 A 
BRANCH  13  16
HETATM   16  O   UNL     1      39.533  -9.078   0.952  1.00  0.00    -0.356 OA
HETATM   17  C   UNL     1      40.741  -8.412   0.600  1.00  0.00     0.210 C 
ENDBRANCH  13  16
ENDBRANCH   7  10
ENDBRANCH   5   7
ENDBRANCH   1   5
BRANCH   2  18
HETATM   18  C   UNL     1      43.191 -18.264   2.948  1.00  0.00     0.079 A 
HETATM   19  C   UNL     1      43.612 -18.455   4.267  1.00  0.00     0.165 A 
HETATM   20  N   UNL     1      44.075 -19.676   4.689  1.00  0.00    -0.241 NA
HETATM   21  C   UNL     1      44.099 -20.705   3.819  1.00  0.00     0.119 A 
HETATM   22  C   UNL     1      43.685 -20.599   2.507  1.00  0.00     0.020 A 
HETATM   23  C   UNL     1      43.239 -19.358   2.064  1.00  0.00     0.022 A 
BRANCH  19  24
HETATM   24  N   UNL     1      43.543 -17.431   5.275  1.00  0.00    -0.226 N 
HETATM   25  N   UNL     1      42.327 -16.972   5.701  1.00  0.00    -0.179 NA
HETATM   26  C   UNL     1      42.604 -16.066   6.636  1.00  0.00     0.141 A 
HETATM   27  C   UNL     1      43.978 -15.850   6.781  1.00  0.00     0.040 A 
HETATM   28  C   UNL     1      44.557 -16.701   5.870  1.00  0.00     0.122 A 
ENDBRANCH  19  24
ENDBRANCH   2  18
TORSDOF 7
ENDMDL
MODEL 10
REMARK VINA RESULT:      -6.6      1.587      2.258
REMARK  7 active torsions:
REMARK  status: ('A' for Active; 'I' for Inactive)
REMARK    1  A    between atoms: C_2  and  N_3 
REMARK    2  A    between atoms: C_2  and  C_17 
REMARK       I    between atoms: N_3  and  C_4 
REMARK    3  A    between atoms: C_4  and  C_5 
REMARK    4  A    between atoms: C_6  and  N_7 
REMARK    5  A    between atoms: C_17  and  O_18 
REMARK    6  A    between atoms: C_17  and  C_19 
REMARK    7  A    between atoms: C_22  and  O_23 
ROOT
HETATM    1  N   UNL     1      43.140 -15.107   3.701  1.00  0.00    -0.350 N 
HETATM    2  C   UNL     1      42.231 -16.106   3.436  1.00  0.00     0.255 C 
HETATM    3  O   UNL     1      41.034 -15.910   3.278  1.00  0.00    -0.268 OA
HETATM    4  H   UNL     1      44.121 -15.348   3.781  1.00  0.00     0.163 HD
ENDROOT
BRANCH   1   5
HETATM    5  C   UNL     1      42.813 -13.675   3.770  1.00  0.00     0.114 C 
HETATM    6  C   UNL     1      42.028 -13.251   2.528  1.00  0.00     0.035 C 
BRANCH   5   7
HETATM    7  C   UNL     1      42.112 -13.198   5.084  1.00  0.00     0.173 C 
BRANCH   7   8
HETATM    8  O   UNL     1      41.585 -14.273   5.860  1.00  0.00    -0.389 OA
HETATM    9  H   UNL     1      41.006 -14.797   5.264  1.00  0.00     0.210 HD
ENDBRANCH   7   8
BRANCH   7  10
HETATM   10  C   UNL     1      42.966 -12.273   5.933  1.00  0.00    -0.028 A 
HETATM   11  C   UNL     1      42.431 -11.067   6.407  1.00  0.00     0.012 A 
HETATM   12  C   UNL     1      43.201 -10.207   7.194  1.00  0.00     0.037 A 
HETATM   13  C   UNL     1      44.518 -10.531   7.527  1.00  0.00     0.068 A 
HETATM   14  C   UNL     1      45.066 -11.719   7.048  1.00  0.00     0.037 A 
HETATM   15  C   UNL     1      44.294 -12.583   6.261  1.00  0.00     0.012 A 
BRANCH  13  16
HETATM   16  O   UNL     1      45.157  -9.610   8.311  1.00  0.00    -0.356 OA
HETATM   17  C   UNL     1      45.014  -9.766   9.718  1.00  0.00     0.210 C 
ENDBRANCH  13  16
ENDBRANCH   7  10
ENDBRANCH   5   7
ENDBRANCH   1   5
BRANCH   2  18
HETATM   18  C   UNL     1      42.777 -17.476   3.382  1.00  0.00     0.079 A 
HETATM   19  C   UNL     1      43.607 -18.035   4.358  1.00  0.00     0.165 A 
HETATM   20  N   UNL     1      44.222 -19.244   4.152  1.00  0.00    -0.241 NA
HETATM   21  C   UNL     1      43.997 -19.907   2.999  1.00  0.00     0.119 A 
HETATM   22  C   UNL     1      43.178 -19.428   1.998  1.00  0.00     0.020 A 
HETATM   23  C   UNL     1      42.573 -18.190   2.186  1.00  0.00     0.022 A 
BRANCH  19  24
HETATM   24  N   UNL     1      43.834 -17.430   5.644  1.00  0.00    -0.226 N 
HETATM   25  N   UNL     1      44.888 -16.576   5.821  1.00  0.00    -0.179 NA
HETATM   26  C   UNL     1      44.805 -16.179   7.088  1.00  0.00     0.141 A 
HETATM   27  C   UNL     1      43.771 -16.815   7.782  1.00  0.00     0.040 A 
HETATM   28  C   UNL     1      43.192 -17.644   6.851  1.00  0.00     0.122 A 
ENDBRANCH  19  24
ENDBRANCH   2  18
TORSDOF 7
ENDMDL
