MODEL 1
REMARK VINA RESULT:      -7.9      0.000      0.000
REMARK  3 active torsions:
REMARK  status: ('A' for Active; 'I' for Inactive)
REMARK    1  A    between atoms: C_2  and  N_3 
REMARK    2  A    between atoms: N_10  and  C_11 
REMARK    3  A    between atoms: C_11  and  C_12 
ROOT
HETATM    1  N   UNL     1      43.706 -18.652   4.094  1.00  0.00    -0.063 N 
HETATM    2  H   UNL     1      42.773 -18.652   4.551  1.00  0.00     0.280 HD
HETATM    3  C   UNL     1      44.459 -17.575   4.867  1.00  0.00     0.277 C 
HETATM    4  C   UNL     1      43.523 -16.392   5.196  1.00  0.00     0.132 C 
HETATM    5  O   UNL     1      42.359 -16.992   5.828  1.00  0.00    -0.373 OA
HETATM    6  C   UNL     1      41.494 -16.001   6.414  1.00  0.00     0.199 C 
HETATM    7  C   UNL     1      42.237 -15.184   7.482  1.00  0.00     0.299 C 
HETATM    8  N   UNL     1      43.455 -14.537   6.970  1.00  0.00     0.097 N 
HETATM    9  C   UNL     1      44.277 -15.473   6.203  1.00  0.00     0.314 C 
HETATM   10  C   UNL     1      43.133 -15.658   3.891  1.00  0.00     0.209 C 
HETATM   11  O   UNL     1      42.023 -16.265   3.242  1.00  0.00    -0.386 OA
HETATM   12  C   UNL     1      42.196 -17.443   2.474  1.00  0.00     0.195 C 
HETATM   13  C   UNL     1      43.481 -18.256   2.644  1.00  0.00     0.261 C 
ENDROOT
BRANCH   1  14
HETATM   14  C   UNL     1      44.253 -20.067   4.240  1.00  0.00     0.180 C 
HETATM   15  C   UNL     1      43.811 -20.937   3.065  1.00  0.00     0.039 C 
HETATM   16  C   UNL     1      43.866 -20.671   5.585  1.00  0.00     0.039 C 
ENDBRANCH   1  14
BRANCH   8  17
HETATM   17  C   UNL     1      43.221 -13.234   6.350  1.00  0.00     0.311 C 
BRANCH  17  18
HETATM   18  C   UNL     1      44.104 -12.180   6.982  1.00  0.00    -0.030 A 
HETATM   19  C   UNL     1      43.675 -11.509   8.140  1.00  0.00     0.012 A 
HETATM   20  C   UNL     1      44.477 -10.533   8.733  1.00  0.00     0.043 A 
HETATM   21  C   UNL     1      45.708 -10.222   8.166  1.00  0.00     0.116 A 
HETATM   22  F   UNL     1      46.478  -9.289   8.735  1.00  0.00    -0.206 F 
HETATM   23  C   UNL     1      46.145 -10.866   7.014  1.00  0.00     0.043 A 
HETATM   24  C   UNL     1      45.344 -11.843   6.419  1.00  0.00     0.012 A 
ENDBRANCH  17  18
ENDBRANCH   8  17
TORSDOF 3
ENDMDL
MODEL 2
REMARK VINA RESULT:      -7.6      3.905      7.925
REMARK  3 active torsions:
REMARK  status: ('A' for Active; 'I' for Inactive)
REMARK    1  A    between atoms: C_2  and  N_3 
REMARK    2  A    between atoms: N_10  and  C_11 
REMARK    3  A    between atoms: C_11  and  C_12 
ROOT
HETATM    1  N   UNL     1      40.728 -11.520   6.417  1.00  0.00    -0.063 N 
HETATM    2  H   UNL     1      40.879 -12.217   7.171  1.00  0.00     0.280 HD
HETATM    3  C   UNL     1      40.619 -12.391   5.171  1.00  0.00     0.277 C 
HETATM    4  C   UNL     1      41.620 -13.564   5.242  1.00  0.00     0.132 C 
HETATM    5  O   UNL     1      41.381 -14.191   6.532  1.00  0.00    -0.373 OA
HETATM    6  C   UNL     1      42.069 -15.450   6.654  1.00  0.00     0.199 C 
HETATM    7  C   UNL     1      41.616 -16.433   5.564  1.00  0.00     0.299 C 
HETATM    8  N   UNL     1      41.790 -15.906   4.203  1.00  0.00     0.097 N 
HETATM    9  C   UNL     1      41.266 -14.545   4.084  1.00  0.00     0.314 C 
HETATM   10  C   UNL     1      43.066 -13.020   5.146  1.00  0.00     0.209 C 
HETATM   11  O   UNL     1      43.571 -12.604   6.409  1.00  0.00    -0.386 OA
HETATM   12  C   UNL     1      43.186 -11.356   6.960  1.00  0.00     0.195 C 
HETATM   13  C   UNL     1      41.965 -10.638   6.385  1.00  0.00     0.261 C 
ENDROOT
BRANCH   1  14
HETATM   14  C   UNL     1      39.466 -10.751   6.792  1.00  0.00     0.180 C 
HETATM   15  C   UNL     1      38.731 -10.281   5.539  1.00  0.00     0.039 C 
HETATM   16  C   UNL     1      39.784  -9.600   7.741  1.00  0.00     0.039 C 
ENDBRANCH   1  14
BRANCH   8  17
HETATM   17  C   UNL     1      43.122 -16.129   3.642  1.00  0.00     0.311 C 
BRANCH  17  18
HETATM   18  C   UNL     1      43.395 -17.610   3.498  1.00  0.00    -0.030 A 
HETATM   19  C   UNL     1      44.078 -18.299   4.517  1.00  0.00     0.012 A 
HETATM   20  C   UNL     1      44.339 -19.664   4.398  1.00  0.00     0.043 A 
HETATM   21  C   UNL     1      43.923 -20.344   3.258  1.00  0.00     0.116 A 
HETATM   22  F   UNL     1      44.171 -21.653   3.144  1.00  0.00    -0.206 F 
HETATM   23  C   UNL     1      43.257 -19.678   2.234  1.00  0.00     0.043 A 
HETATM   24  C   UNL     1      42.995 -18.312   2.352  1.00  0.00     0.012 A 
ENDBRANCH  17  18
ENDBRANCH   8  17
TORSDOF 3
ENDMDL
MODEL 3
REMARK VINA RESULT:      -7.6      5.117      8.234
REMARK  3 active torsions:
REMARK  status: ('A' for Active; 'I' for Inactive)
REMARK    1  A    between atoms: C_2  and  N_3 
REMARK    2  A    between atoms: N_10  and  C_11 
REMARK    3  A    between atoms: C_11  and  C_12 
ROOT
HETATM    1  N   UNL     1      39.624 -11.824   0.808  1.00  0.00    -0.063 N 
HETATM    2  H   UNL     1      39.405 -11.941   1.816  1.00  0.00     0.280 HD
HETATM    3  C   UNL     1      40.080 -13.220   0.399  1.00  0.00     0.277 C 
HETATM    4  C   UNL     1      40.921 -13.864   1.522  1.00  0.00     0.132 C 
HETATM    5  O   UNL     1      40.112 -13.739   2.723  1.00  0.00    -0.373 OA
HETATM    6  C   UNL     1      40.650 -14.505   3.817  1.00  0.00     0.199 C 
HETATM    7  C   UNL     1      40.728 -15.997   3.459  1.00  0.00     0.299 C 
HETATM    8  N   UNL     1      41.510 -16.258   2.240  1.00  0.00     0.097 N 
HETATM    9  C   UNL     1      41.118 -15.364   1.150  1.00  0.00     0.314 C 
HETATM   10  C   UNL     1      42.261 -13.102   1.670  1.00  0.00     0.209 C 
HETATM   11  O   UNL     1      42.143 -11.961   2.509  1.00  0.00    -0.386 OA
HETATM   12  C   UNL     1      41.568 -10.763   2.015  1.00  0.00     0.195 C 
HETATM   13  C   UNL     1      40.754 -10.811   0.721  1.00  0.00     0.261 C 
ENDROOT
BRANCH   1  14
HETATM   14  C   UNL     1      38.342 -11.333   0.145  1.00  0.00     0.180 C 
HETATM   15  C   UNL     1      37.221 -11.204   1.175  1.00  0.00     0.039 C 
HETATM   16  C   UNL     1      37.951 -12.228  -1.026  1.00  0.00     0.039 C 
ENDBRANCH   1  14
BRANCH   8  17
HETATM   17  C   UNL     1      42.947 -16.392   2.472  1.00  0.00     0.311 C 
BRANCH  17  18
HETATM   18  C   UNL     1      43.284 -17.798   2.917  1.00  0.00    -0.030 A 
HETATM   19  C   UNL     1      43.889 -18.011   4.168  1.00  0.00     0.012 A 
HETATM   20  C   UNL     1      44.208 -19.302   4.591  1.00  0.00     0.043 A 
HETATM   21  C   UNL     1      43.926 -20.383   3.762  1.00  0.00     0.116 A 
HETATM   22  F   UNL     1      44.230 -21.621   4.168  1.00  0.00    -0.206 F 
HETATM   23  C   UNL     1      43.339 -20.192   2.516  1.00  0.00     0.043 A 
HETATM   24  C   UNL     1      43.020 -18.901   2.091  1.00  0.00     0.012 A 
ENDBRANCH  17  18
ENDBRANCH   8  17
TORSDOF 3
ENDMDL
MODEL 4
REMARK VINA RESULT:      -7.4      4.792      8.101
REMARK  3 active torsions:
REMARK  status: ('A' for Active; 'I' for Inactive)
REMARK    1  A    between atoms: C_2  and  N_3 
REMARK    2  A    between atoms: N_10  and  C_11 
REMARK    3  A    between atoms: C_11  and  C_12 
ROOT
HETATM    1  N   UNL     1      40.246 -11.097   2.598  1.00  0.00    -0.063 N 
HETATM    2  H   UNL     1      39.939 -11.433   3.531  1.00  0.00     0.280 HD
HETATM    3  C   UNL     1      40.662 -12.385   1.897  1.00  0.00     0.277 C 
HETATM    4  C   UNL     1      41.372 -13.333   2.887  1.00  0.00     0.132 C 
HETATM    5  O   UNL     1      40.474 -13.440   4.024  1.00  0.00    -0.373 OA
HETATM    6  C   UNL     1      40.878 -14.479   4.935  1.00  0.00     0.199 C 
HETATM    7  C   UNL     1      40.908 -15.845   4.234  1.00  0.00     0.299 C 
HETATM    8  N   UNL     1      41.774 -15.865   3.045  1.00  0.00     0.097 N 
HETATM    9  C   UNL     1      41.521 -14.713   2.178  1.00  0.00     0.314 C 
HETATM   10  C   UNL     1      42.732 -12.725   3.304  1.00  0.00     0.209 C 
HETATM   11  O   UNL     1      42.604 -11.808   4.384  1.00  0.00    -0.386 OA
HETATM   12  C   UNL     1      42.136 -10.490   4.155  1.00  0.00     0.195 C 
HETATM   13  C   UNL     1      41.430 -10.174   2.836  1.00  0.00     0.261 C 
ENDROOT
BRANCH   1  14
HETATM   14  C   UNL     1      39.050 -10.374   1.987  1.00  0.00     0.180 C 
HETATM   15  C   UNL     1      37.918 -11.358   1.703  1.00  0.00     0.039 C 
HETATM   16  C   UNL     1      39.458  -9.587   0.747  1.00  0.00     0.039 C 
ENDBRANCH   1  14
BRANCH   8  17
HETATM   17  C   UNL     1      43.178 -16.150   3.335  1.00  0.00     0.311 C 
BRANCH  17  18
HETATM   18  C   UNL     1      43.425 -17.643   3.343  1.00  0.00    -0.030 A 
HETATM   19  C   UNL     1      44.025 -18.247   4.462  1.00  0.00     0.012 A 
HETATM   20  C   UNL     1      44.261 -19.622   4.484  1.00  0.00     0.043 A 
HETATM   21  C   UNL     1      43.903 -20.396   3.385  1.00  0.00     0.116 A 
HETATM   22  F   UNL     1      44.127 -21.714   3.406  1.00  0.00    -0.206 F 
HETATM   23  C   UNL     1      43.320 -19.815   2.265  1.00  0.00     0.043 A 
HETATM   24  C   UNL     1      43.082 -18.439   2.241  1.00  0.00     0.012 A 
ENDBRANCH  17  18
ENDBRANCH   8  17
TORSDOF 3
ENDMDL
MODEL 5
REMARK VINA RESULT:      -7.0      5.163      7.290
REMARK  3 active torsions:
REMARK  status: ('A' for Active; 'I' for Inactive)
REMARK    1  A    between atoms: C_2  and  N_3 
REMARK    2  A    between atoms: N_10  and  C_11 
REMARK    3  A    between atoms: C_11  and  C_12 
ROOT
HETATM    1  N   UNL     1      43.169 -16.900   4.897  1.00  0.00    -0.063 N 
HETATM    2  H   UNL     1      42.236 -17.291   4.663  1.00  0.00     0.280 HD
HETATM    3  C   UNL     1      43.051 -15.451   4.439  1.00  0.00     0.277 C 
HETATM    4  C   UNL     1      42.248 -15.364   3.123  1.00  0.00     0.132 C 
HETATM    5  O   UNL     1      41.019 -16.097   3.377  1.00  0.00    -0.373 OA
HETATM    6  C   UNL     1      40.052 -15.908   2.327  1.00  0.00     0.199 C 
HETATM    7  C   UNL     1      39.688 -14.423   2.174  1.00  0.00     0.299 C 
HETATM    8  N   UNL     1      40.858 -13.565   1.930  1.00  0.00     0.097 N 
HETATM    9  C   UNL     1      41.943 -13.858   2.867  1.00  0.00     0.314 C 
HETATM   10  C   UNL     1      43.059 -16.014   1.976  1.00  0.00     0.209 C 
HETATM   11  O   UNL     1      42.872 -17.423   1.914  1.00  0.00    -0.386 OA
HETATM   12  C   UNL     1      43.552 -18.277   2.818  1.00  0.00     0.195 C 
HETATM   13  C   UNL     1      44.184 -17.674   4.073  1.00  0.00     0.261 C 
ENDROOT
BRANCH   1  14
HETATM   14  C   UNL     1      43.352 -17.101   6.397  1.00  0.00     0.180 C 
HETATM   15  C   UNL     1      43.245 -18.581   6.758  1.00  0.00     0.039 C 
HETATM   16  C   UNL     1      42.374 -16.240   7.190  1.00  0.00     0.039 C 
ENDBRANCH   1  14
BRANCH   8  17
HETATM   17  C   UNL     1      41.239 -13.463   0.522  1.00  0.00     0.311 C 
BRANCH  17  18
HETATM   18  C   UNL     1      40.012 -13.307  -0.350  1.00  0.00    -0.030 A 
HETATM   19  C   UNL     1      39.725 -14.271  -1.333  1.00  0.00     0.012 A 
HETATM   20  C   UNL     1      38.598 -14.141  -2.146  1.00  0.00     0.043 A 
HETATM   21  C   UNL     1      37.759 -13.043  -1.982  1.00  0.00     0.116 A 
HETATM   22  F   UNL     1      36.679 -12.919  -2.759  1.00  0.00    -0.206 F 
HETATM   23  C   UNL     1      38.033 -12.074  -1.023  1.00  0.00     0.043 A 
HETATM   24  C   UNL     1      39.160 -12.203  -0.209  1.00  0.00     0.012 A 
ENDBRANCH  17  18
ENDBRANCH   8  17
TORSDOF 3
ENDMDL
MODEL 6
REMARK VINA RESULT:      -7.0      3.890      8.240
REMARK  3 active torsions:
REMARK  status: ('A' for Active; 'I' for Inactive)
REMARK    1  A    between atoms: C_2  and  N_3 
REMARK    2  A    between atoms: N_10  and  C_11 
REMARK    3  A    between atoms: C_11  and  C_12 
ROOT
HETATM    1  N   UNL     1      42.930  -9.311   7.515  1.00  0.00    -0.063 N 
HETATM    2  H   UNL     1      42.884  -8.918   6.555  1.00  0.00     0.280 HD
HETATM    3  C   UNL     1      43.429 -10.731   7.273  1.00  0.00     0.277 C 
HETATM    4  C   UNL     1      42.788 -11.319   5.998  1.00  0.00     0.132 C 
HETATM    5  O   UNL     1      43.028 -10.330   4.960  1.00  0.00    -0.373 OA
HETATM    6  C   UNL     1      42.703 -10.834   3.651  1.00  0.00     0.199 C 
HETATM    7  C   UNL     1      43.540 -12.077   3.315  1.00  0.00     0.299 C 
HETATM    8  N   UNL     1      43.398 -13.153   4.308  1.00  0.00     0.097 N 
HETATM    9  C   UNL     1      43.539 -12.645   5.673  1.00  0.00     0.314 C 
HETATM   10  C   UNL     1      41.272 -11.530   6.228  1.00  0.00     0.209 C 
HETATM   11  O   UNL     1      40.519 -10.350   5.977  1.00  0.00    -0.386 OA
HETATM   12  C   UNL     1      40.475  -9.309   6.939  1.00  0.00     0.195 C 
HETATM   13  C   UNL     1      41.512  -9.293   8.061  1.00  0.00     0.261 C 
ENDROOT
BRANCH   1  14
HETATM   14  C   UNL     1      43.876  -8.409   8.301  1.00  0.00     0.180 C 
HETATM   15  C   UNL     1      45.259  -9.045   8.408  1.00  0.00     0.039 C 
HETATM   16  C   UNL     1      43.293  -8.058   9.665  1.00  0.00     0.039 C 
ENDBRANCH   1  14
BRANCH   8  17
HETATM   17  C   UNL     1      42.260 -14.039   4.069  1.00  0.00     0.311 C 
BRANCH  17  18
HETATM   18  C   UNL     1      42.736 -15.424   3.690  1.00  0.00    -0.030 A 
HETATM   19  C   UNL     1      43.299 -16.264   4.667  1.00  0.00     0.012 A 
HETATM   20  C   UNL     1      43.744 -17.543   4.332  1.00  0.00     0.043 A 
HETATM   21  C   UNL     1      43.633 -17.984   3.018  1.00  0.00     0.116 A 
HETATM   22  F   UNL     1      44.058 -19.211   2.697  1.00  0.00    -0.206 F 
HETATM   23  C   UNL     1      43.090 -17.165   2.035  1.00  0.00     0.043 A 
HETATM   24  C   UNL     1      42.644 -15.884   2.368  1.00  0.00     0.012 A 
ENDBRANCH  17  18
ENDBRANCH   8  17
TORSDOF 3
ENDMDL
MODEL 7
REMARK VINA RESULT:      -6.8      4.715      9.396
REMARK  3 active torsions:
REMARK  status: ('A' for Active; 'I' for Inactive)
REMARK    1  A    between atoms: C_2  and  N_3 
REMARK    2  A    between atoms: N_10  and  C_11 
REMARK    3  A    between atoms: C_11  and  C_12 
ROOT
HETATM    1  N   UNL     1      43.309  -8.028  11.211  1.00  0.00    -0.063 N 
HETATM    2  H   UNL     1      44.280  -7.781  10.939  1.00  0.00     0.280 HD
HETATM    3  C   UNL     1      43.119  -9.399  10.572  1.00  0.00     0.277 C 
HETATM    4  C   UNL     1      43.796  -9.446   9.185  1.00  0.00     0.132 C 
HETATM    5  O   UNL     1      45.157  -8.985   9.410  1.00  0.00    -0.373 OA
HETATM    6  C   UNL     1      45.994  -9.198   8.258  1.00  0.00     0.199 C 
HETATM    7  C   UNL     1      46.060 -10.689   7.893  1.00  0.00     0.299 C 
HETATM    8  N   UNL     1      44.736 -11.284   7.657  1.00  0.00     0.097 N 
HETATM    9  C   UNL     1      43.794 -10.934   8.721  1.00  0.00     0.314 C 
HETATM   10  C   UNL     1      43.045  -8.512   8.207  1.00  0.00     0.209 C 
HETATM   11  O   UNL     1      43.489  -7.164   8.299  1.00  0.00    -0.386 OA
HETATM   12  C   UNL     1      43.048  -6.335   9.360  1.00  0.00     0.195 C 
HETATM   13  C   UNL     1      42.402  -6.981  10.586  1.00  0.00     0.261 C 
ENDROOT
BRANCH   1  14
HETATM   14  C   UNL     1      43.273  -8.005  12.735  1.00  0.00     0.180 C 
HETATM   15  C   UNL     1      42.560  -9.242  13.274  1.00  0.00     0.039 C 
HETATM   16  C   UNL     1      42.654  -6.710  13.251  1.00  0.00     0.039 C 
ENDBRANCH   1  14
BRANCH   8  17
HETATM   17  C   UNL     1      44.244 -11.124   6.290  1.00  0.00     0.311 C 
BRANCH  17  18
HETATM   18  C   UNL     1      43.766 -12.450   5.739  1.00  0.00    -0.030 A 
HETATM   19  C   UNL     1      43.202 -12.511   4.452  1.00  0.00     0.012 A 
HETATM   20  C   UNL     1      42.755 -13.725   3.931  1.00  0.00     0.043 A 
HETATM   21  C   UNL     1      42.866 -14.881   4.697  1.00  0.00     0.116 A 
HETATM   22  F   UNL     1      42.439 -16.046   4.197  1.00  0.00    -0.206 F 
HETATM   23  C   UNL     1      43.410 -14.839   5.976  1.00  0.00     0.043 A 
HETATM   24  C   UNL     1      43.858 -13.624   6.499  1.00  0.00     0.012 A 
ENDBRANCH  17  18
ENDBRANCH   8  17
TORSDOF 3
ENDMDL
MODEL 8
REMARK VINA RESULT:      -6.8      4.809      8.406
REMARK  3 active torsions:
REMARK  status: ('A' for Active; 'I' for Inactive)
REMARK    1  A    between atoms: C_2  and  N_3 
REMARK    2  A    between atoms: N_10  and  C_11 
REMARK    3  A    between atoms: C_11  and  C_12 
ROOT
HETATM    1  N   UNL     1      44.250 -10.370   7.730  1.00  0.00    -0.063 N 
HETATM    2  H   UNL     1      44.487 -10.001   6.789  1.00  0.00     0.280 HD
HETATM    3  C   UNL     1      43.709 -11.761   7.418  1.00  0.00     0.277 C 
HETATM    4  C   UNL     1      42.862 -11.734   6.128  1.00  0.00     0.132 C 
HETATM    5  O   UNL     1      43.706 -11.096   5.131  1.00  0.00    -0.373 OA
HETATM    6  C   UNL     1      43.154 -11.209   3.806  1.00  0.00     0.199 C 
HETATM    7  C   UNL     1      42.987 -12.682   3.403  1.00  0.00     0.299 C 
HETATM    8  N   UNL     1      42.162 -13.449   4.349  1.00  0.00     0.097 N 
HETATM    9  C   UNL     1      42.575 -13.214   5.733  1.00  0.00     0.314 C 
HETATM   10  C   UNL     1      41.570 -10.918   6.371  1.00  0.00     0.209 C 
HETATM   11  O   UNL     1      41.771  -9.522   6.184  1.00  0.00    -0.386 OA
HETATM   12  C   UNL     1      42.397  -8.746   7.192  1.00  0.00     0.195 C 
HETATM   13  C   UNL     1      43.175  -9.458   8.298  1.00  0.00     0.261 C 
ENDROOT
BRANCH   1  14
HETATM   14  C   UNL     1      45.541 -10.335   8.541  1.00  0.00     0.180 C 
HETATM   15  C   UNL     1      45.243 -10.053  10.012  1.00  0.00     0.039 C 
HETATM   16  C   UNL     1      46.534  -9.340   7.951  1.00  0.00     0.039 C 
ENDBRANCH   1  14
BRANCH   8  17
HETATM   17  C   UNL     1      40.726 -13.369   4.088  1.00  0.00     0.311 C 
BRANCH  17  18
HETATM   18  C   UNL     1      40.409 -13.891   2.704  1.00  0.00    -0.030 A 
HETATM   19  C   UNL     1      40.122 -12.989   1.664  1.00  0.00     0.012 A 
HETATM   20  C   UNL     1      39.825 -13.455   0.383  1.00  0.00     0.043 A 
HETATM   21  C   UNL     1      39.810 -14.825   0.139  1.00  0.00     0.116 A 
HETATM   22  F   UNL     1      39.527 -15.272  -1.089  1.00  0.00    -0.206 F 
HETATM   23  C   UNL     1      40.079 -15.733   1.157  1.00  0.00     0.043 A 
HETATM   24  C   UNL     1      40.376 -15.268   2.440  1.00  0.00     0.012 A 
ENDBRANCH  17  18
ENDBRANCH   8  17
TORSDOF 3
ENDMDL
MODEL 9
REMARK VINA RESULT:      -6.8      5.141      7.360
REMARK  3 active torsions:
REMARK  status: ('A' for Active; 'I' for Inactive)
REMARK    1  A    between atoms: C_2  and  N_3 
REMARK    2  A    between atoms: N_10  and  C_11 
REMARK    3  A    between atoms: C_11  and  C_12 
ROOT
HETATM    1  N   UNL     1      39.301 -12.551  -0.672  1.00  0.00    -0.063 N 
HETATM    2  H   UNL     1      38.730 -13.320  -0.272  1.00  0.00     0.280 HD
HETATM    3  C   UNL     1      40.722 -12.964  -0.307  1.00  0.00     0.277 C 
HETATM    4  C   UNL     1      40.758 -13.585   1.106  1.00  0.00     0.132 C 
HETATM    5  O   UNL     1      39.734 -14.616   1.095  1.00  0.00    -0.373 OA
HETATM    6  C   UNL     1      39.801 -15.455   2.264  1.00  0.00     0.199 C 
HETATM    7  C   UNL     1      41.166 -16.152   2.364  1.00  0.00     0.299 C 
HETATM    8  N   UNL     1      42.296 -15.211   2.365  1.00  0.00     0.097 N 
HETATM    9  C   UNL     1      42.169 -14.219   1.297  1.00  0.00     0.314 C 
HETATM   10  C   UNL     1      40.442 -12.497   2.161  1.00  0.00     0.209 C 
HETATM   11  O   UNL     1      39.044 -12.319   2.350  1.00  0.00    -0.386 OA
HETATM   12  C   UNL     1      38.283 -11.572   1.417  1.00  0.00     0.195 C 
HETATM   13  C   UNL     1      38.880 -11.277   0.041  1.00  0.00     0.261 C 
ENDROOT
BRANCH   1  14
HETATM   14  C   UNL     1      38.991 -12.521  -2.165  1.00  0.00     0.180 C 
HETATM   15  C   UNL     1      38.662 -13.923  -2.673  1.00  0.00     0.039 C 
HETATM   16  C   UNL     1      40.126 -11.872  -2.949  1.00  0.00     0.039 C 
ENDBRANCH   1  14
BRANCH   8  17
HETATM   17  C   UNL     1      42.634 -14.687   3.687  1.00  0.00     0.311 C 
BRANCH  17  18
HETATM   18  C   UNL     1      42.850 -15.820   4.667  1.00  0.00    -0.030 A 
HETATM   19  C   UNL     1      42.203 -15.800   5.915  1.00  0.00     0.012 A 
HETATM   20  C   UNL     1      42.393 -16.836   6.830  1.00  0.00     0.043 A 
HETATM   21  C   UNL     1      43.237 -17.892   6.502  1.00  0.00     0.116 A 
HETATM   22  F   UNL     1      43.419 -18.886   7.378  1.00  0.00    -0.206 F 
HETATM   23  C   UNL     1      43.896 -17.924   5.278  1.00  0.00     0.043 A 
HETATM   24  C   UNL     1      43.706 -16.888   4.361  1.00  0.00     0.012 A 
ENDBRANCH  17  18
ENDBRANCH   8  17
TORSDOF 3
ENDMDL
MODEL 10
REMARK VINA RESULT:      -6.7      5.486      7.886
REMARK  3 active torsions:
REMARK  status: ('A' for Active; 'I' for Inactive)
REMARK    1  A    between atoms: C_2  and  N_3 
REMARK    2  A    between atoms: N_10  and  C_11 
REMARK    3  A    between atoms: C_11  and  C_12 
ROOT
HETATM    1  N   UNL     1      42.917 -16.012   4.880  1.00  0.00    -0.063 N 
HETATM    2  H   UNL     1      43.157 -15.016   5.045  1.00  0.00     0.280 HD
HETATM    3  C   UNL     1      42.492 -16.017   3.416  1.00  0.00     0.277 C 
HETATM    4  C   UNL     1      41.689 -14.742   3.081  1.00  0.00     0.132 C 
HETATM    5  O   UNL     1      42.517 -13.639   3.544  1.00  0.00    -0.373 OA
HETATM    6  C   UNL     1      42.020 -12.366   3.090  1.00  0.00     0.199 C 
HETATM    7  C   UNL     1      41.977 -12.307   1.556  1.00  0.00     0.299 C 
HETATM    8  N   UNL     1      41.180 -13.390   0.959  1.00  0.00     0.097 N 
HETATM    9  C   UNL     1      41.528 -14.690   1.533  1.00  0.00     0.314 C 
HETATM   10  C   UNL     1      40.332 -14.771   3.825  1.00  0.00     0.209 C 
HETATM   11  O   UNL     1      40.434 -14.275   5.154  1.00  0.00    -0.386 OA
HETATM   12  C   UNL     1      40.966 -15.088   6.185  1.00  0.00     0.195 C 
HETATM   13  C   UNL     1      41.758 -16.340   5.807  1.00  0.00     0.261 C 
ENDROOT
BRANCH   1  14
HETATM   14  C   UNL     1      44.173 -16.814   5.201  1.00  0.00     0.180 C 
HETATM   15  C   UNL     1      43.837 -18.295   5.366  1.00  0.00     0.039 C 
HETATM   16  C   UNL     1      44.892 -16.245   6.419  1.00  0.00     0.039 C 
ENDBRANCH   1  14
BRANCH   8  17
HETATM   17  C   UNL     1      39.752 -13.095   0.861  1.00  0.00     0.311 C 
BRANCH  17  18
HETATM   18  C   UNL     1      39.226 -13.466  -0.508  1.00  0.00    -0.030 A 
HETATM   19  C   UNL     1      39.588 -14.695  -1.088  1.00  0.00     0.012 A 
HETATM   20  C   UNL     1      39.113 -15.051  -2.350  1.00  0.00     0.043 A 
HETATM   21  C   UNL     1      38.278 -14.177  -3.039  1.00  0.00     0.116 A 
HETATM   22  F   UNL     1      37.821 -14.519  -4.248  1.00  0.00    -0.206 F 
HETATM   23  C   UNL     1      37.919 -12.953  -2.488  1.00  0.00     0.043 A 
HETATM   24  C   UNL     1      38.393 -12.594  -1.224  1.00  0.00     0.012 A 
ENDBRANCH  17  18
ENDBRANCH   8  17
TORSDOF 3
ENDMDL
