MODEL 1
REMARK VINA RESULT:      -9.2      0.000      0.000
REMARK  8 active torsions:
REMARK  status: ('A' for Active; 'I' for Inactive)
REMARK    1  A    between atoms: C_2  and  N_3 
REMARK    2  A    between atoms: C_2  and  C_23 
REMARK       I    between atoms: N_3  and  C_4 
REMARK    3  A    between atoms: N_3  and  C_16 
REMARK    4  A    between atoms: C_4  and  C_5 
REMARK    5  A    between atoms: C_5  and  N_6 
REMARK    6  A    between atoms: C_16  and  C_17 
REMARK       I    between atoms: C_23  and  N_24 
REMARK    7  A    between atoms: N_24  and  C_25 
REMARK    8  A    between atoms: C_28  and  O_29 
ROOT
HETATM    1  N   UNL     1      40.455 -14.017   2.085  1.00  0.00    -0.333 N 
HETATM    2  C   UNL     1      40.935 -15.226   2.593  1.00  0.00     0.240 C 
HETATM    3  O   UNL     1      40.370 -15.787   3.537  1.00  0.00    -0.271 OA
ENDROOT
BRANCH   1   4
HETATM    4  C   UNL     1      39.480 -13.282   2.940  1.00  0.00     0.176 C 
HETATM    5  C   UNL     1      38.801 -12.136   2.185  1.00  0.00     0.042 C 
BRANCH   4   6
HETATM    6  C   UNL     1      40.040 -12.825   4.313  1.00  0.00     0.244 C 
HETATM    7  N   UNL     1      41.424 -12.723   4.319  1.00  0.00    -0.325 N 
HETATM    8  H   UNL     1      41.890 -13.013   3.469  1.00  0.00     0.169 HD
HETATM    9  O   UNL     1      39.317 -12.747   5.305  1.00  0.00    -0.271 OA
BRANCH   7  10
HETATM   10  C   UNL     1      42.241 -12.285   5.378  1.00  0.00     0.035 A 
HETATM   11  C   UNL     1      43.003 -13.246   6.048  1.00  0.00     0.032 A 
HETATM   12  C   UNL     1      43.863 -12.873   7.086  1.00  0.00     0.039 A 
HETATM   13  C   UNL     1      43.989 -11.534   7.459  1.00  0.00     0.068 A 
HETATM   14  C   UNL     1      43.224 -10.574   6.801  1.00  0.00     0.039 A 
HETATM   15  C   UNL     1      42.355 -10.950   5.766  1.00  0.00     0.032 A 
BRANCH  13  16
HETATM   16  O   UNL     1      44.877 -11.296   8.471  1.00  0.00    -0.356 OA
HETATM   17  C   UNL     1      45.694 -10.138   8.338  1.00  0.00     0.210 C 
ENDBRANCH  13  16
ENDBRANCH   7  10
ENDBRANCH   4   6
ENDBRANCH   1   4
BRANCH   1  18
HETATM   18  C   UNL     1      41.139 -13.241   1.039  1.00  0.00     0.165 C 
BRANCH  18  19
HETATM   19  C   UNL     1      40.549 -13.458  -0.334  1.00  0.00    -0.040 A 
HETATM   20  C   UNL     1      40.806 -12.549  -1.372  1.00  0.00     0.009 A 
HETATM   21  C   UNL     1      40.228 -12.724  -2.629  1.00  0.00     0.001 A 
HETATM   22  C   UNL     1      39.396 -13.815  -2.868  1.00  0.00     0.000 A 
HETATM   23  C   UNL     1      39.147 -14.737  -1.852  1.00  0.00     0.001 A 
HETATM   24  C   UNL     1      39.722 -14.562  -0.592  1.00  0.00     0.009 A 
ENDBRANCH  18  19
ENDBRANCH   1  18
BRANCH   2  25
HETATM   25  C   UNL     1      42.183 -15.858   2.028  1.00  0.00     0.250 C 
BRANCH  25  26
HETATM   26  N   UNL     1      42.914 -16.683   2.962  1.00  0.00    -0.263 N 
HETATM   27  N   UNL     1      43.434 -16.093   4.058  1.00  0.00     0.006 NA
HETATM   28  N   UNL     1      44.040 -17.030   4.772  1.00  0.00    -0.158 NA
HETATM   29  C   UNL     1      43.892 -18.221   4.119  1.00  0.00     0.102 A 
HETATM   30  C   UNL     1      43.166 -18.030   2.946  1.00  0.00     0.079 A 
HETATM   31  C   UNL     1      44.351 -19.502   4.454  1.00  0.00     0.035 A 
HETATM   32  C   UNL     1      42.859 -19.078   2.072  1.00  0.00     0.033 A 
HETATM   33  C   UNL     1      43.336 -20.350   2.416  1.00  0.00     0.002 A 
HETATM   34  C   UNL     1      44.070 -20.561   3.585  1.00  0.00     0.002 A 
ENDBRANCH  25  26
ENDBRANCH   2  25
TORSDOF 8
ENDMDL
MODEL 2
REMARK VINA RESULT:      -8.9      1.785      2.572
REMARK  8 active torsions:
REMARK  status: ('A' for Active; 'I' for Inactive)
REMARK    1  A    between atoms: C_2  and  N_3 
REMARK    2  A    between atoms: C_2  and  C_23 
REMARK       I    between atoms: N_3  and  C_4 
REMARK    3  A    between atoms: N_3  and  C_16 
REMARK    4  A    between atoms: C_4  and  C_5 
REMARK    5  A    between atoms: C_5  and  N_6 
REMARK    6  A    between atoms: C_16  and  C_17 
REMARK       I    between atoms: C_23  and  N_24 
REMARK    7  A    between atoms: N_24  and  C_25 
REMARK    8  A    between atoms: C_28  and  O_29 
ROOT
HETATM    1  N   UNL     1      40.308 -12.663   1.707  1.00  0.00    -0.333 N 
HETATM    2  C   UNL     1      39.901 -13.645   2.611  1.00  0.00     0.240 C 
HETATM    3  O   UNL     1      39.535 -13.346   3.752  1.00  0.00    -0.271 OA
ENDROOT
BRANCH   1   4
HETATM    4  C   UNL     1      40.614 -11.322   2.282  1.00  0.00     0.176 C 
HETATM    5  C   UNL     1      40.586 -10.220   1.219  1.00  0.00     0.042 C 
BRANCH   4   6
HETATM    6  C   UNL     1      41.903 -11.268   3.144  1.00  0.00     0.244 C 
HETATM    7  N   UNL     1      41.637 -11.271   4.505  1.00  0.00    -0.325 N 
HETATM    8  H   UNL     1      40.658 -11.244   4.762  1.00  0.00     0.169 HD
HETATM    9  O   UNL     1      43.004 -11.065   2.635  1.00  0.00    -0.271 OA
BRANCH   7  10
HETATM   10  C   UNL     1      42.572 -11.285   5.557  1.00  0.00     0.035 A 
HETATM   11  C   UNL     1      42.550 -10.217   6.458  1.00  0.00     0.032 A 
HETATM   12  C   UNL     1      43.429 -10.187   7.545  1.00  0.00     0.039 A 
HETATM   13  C   UNL     1      44.330 -11.230   7.760  1.00  0.00     0.068 A 
HETATM   14  C   UNL     1      44.363 -12.292   6.859  1.00  0.00     0.039 A 
HETATM   15  C   UNL     1      43.488 -12.317   5.764  1.00  0.00     0.032 A 
BRANCH  13  16
HETATM   16  O   UNL     1      45.120 -11.094   8.868  1.00  0.00    -0.356 OA
HETATM   17  C   UNL     1      45.511  -9.769   9.210  1.00  0.00     0.210 C 
ENDBRANCH  13  16
ENDBRANCH   7  10
ENDBRANCH   4   6
ENDBRANCH   1   4
BRANCH   1  18
HETATM   18  C   UNL     1      40.858 -12.956   0.374  1.00  0.00     0.165 C 
BRANCH  18  19
HETATM   19  C   UNL     1      39.788 -13.249  -0.651  1.00  0.00    -0.040 A 
HETATM   20  C   UNL     1      39.886 -14.376  -1.482  1.00  0.00     0.009 A 
HETATM   21  C   UNL     1      38.922 -14.625  -2.458  1.00  0.00     0.001 A 
HETATM   22  C   UNL     1      37.843 -13.758  -2.609  1.00  0.00     0.000 A 
HETATM   23  C   UNL     1      37.722 -12.645  -1.779  1.00  0.00     0.001 A 
HETATM   24  C   UNL     1      38.688 -12.392  -0.803  1.00  0.00     0.009 A 
ENDBRANCH  18  19
ENDBRANCH   1  18
BRANCH   2  25
HETATM   25  C   UNL     1      39.936 -15.105   2.232  1.00  0.00     0.250 C 
BRANCH  25  26
HETATM   26  N   UNL     1      41.161 -15.787   2.579  1.00  0.00    -0.263 N 
HETATM   27  N   UNL     1      42.033 -16.069   1.588  1.00  0.00     0.006 NA
HETATM   28  N   UNL     1      43.080 -16.673   2.132  1.00  0.00    -0.158 NA
HETATM   29  C   UNL     1      42.863 -16.765   3.478  1.00  0.00     0.102 A 
HETATM   30  C   UNL     1      41.632 -16.198   3.798  1.00  0.00     0.079 A 
HETATM   31  C   UNL     1      43.659 -17.321   4.488  1.00  0.00     0.035 A 
HETATM   32  C   UNL     1      41.145 -16.148   5.109  1.00  0.00     0.033 A 
HETATM   33  C   UNL     1      41.948 -16.719   6.105  1.00  0.00     0.002 A 
HETATM   34  C   UNL     1      43.183 -17.296   5.803  1.00  0.00     0.002 A 
ENDBRANCH  25  26
ENDBRANCH   2  25
TORSDOF 8
ENDMDL
MODEL 3
REMARK VINA RESULT:      -8.8      2.636      7.551
REMARK  8 active torsions:
REMARK  status: ('A' for Active; 'I' for Inactive)
REMARK    1  A    between atoms: C_2  and  N_3 
REMARK    2  A    between atoms: C_2  and  C_23 
REMARK       I    between atoms: N_3  and  C_4 
REMARK    3  A    between atoms: N_3  and  C_16 
REMARK    4  A    between atoms: C_4  and  C_5 
REMARK    5  A    between atoms: C_5  and  N_6 
REMARK    6  A    between atoms: C_16  and  C_17 
REMARK       I    between atoms: C_23  and  N_24 
REMARK    7  A    between atoms: N_24  and  C_25 
REMARK    8  A    between atoms: C_28  and  O_29 
ROOT
HETATM    1  N   UNL     1      41.074 -12.297   3.605  1.00  0.00    -0.333 N 
HETATM    2  C   UNL     1      42.021 -11.274   3.530  1.00  0.00     0.240 C 
HETATM    3  O   UNL     1      42.690 -11.101   2.506  1.00  0.00    -0.271 OA
ENDROOT
BRANCH   1   4
HETATM    4  C   UNL     1      41.163 -13.358   2.561  1.00  0.00     0.176 C 
HETATM    5  C   UNL     1      39.804 -14.006   2.281  1.00  0.00     0.042 C 
BRANCH   4   6
HETATM    6  C   UNL     1      42.274 -14.413   2.806  1.00  0.00     0.244 C 
HETATM    7  N   UNL     1      41.769 -15.695   2.963  1.00  0.00    -0.325 N 
HETATM    8  H   UNL     1      40.760 -15.774   2.963  1.00  0.00     0.169 HD
HETATM    9  O   UNL     1      43.440 -14.078   3.008  1.00  0.00    -0.271 OA
BRANCH   7  10
HETATM   10  C   UNL     1      42.502 -16.884   3.143  1.00  0.00     0.035 A 
HETATM   11  C   UNL     1      43.164 -17.056   4.362  1.00  0.00     0.032 A 
HETATM   12  C   UNL     1      43.881 -18.230   4.619  1.00  0.00     0.039 A 
HETATM   13  C   UNL     1      43.932 -19.254   3.674  1.00  0.00     0.068 A 
HETATM   14  C   UNL     1      43.282 -19.082   2.454  1.00  0.00     0.039 A 
HETATM   15  C   UNL     1      42.571 -17.902   2.192  1.00  0.00     0.032 A 
BRANCH  13  16
HETATM   16  O   UNL     1      44.645 -20.358   4.052  1.00  0.00    -0.356 OA
HETATM   17  C   UNL     1      44.282 -20.952   5.293  1.00  0.00     0.210 C 
ENDBRANCH  13  16
ENDBRANCH   7  10
ENDBRANCH   4   6
ENDBRANCH   1   4
BRANCH   1  18
HETATM   18  C   UNL     1      40.324 -12.627   4.826  1.00  0.00     0.165 C 
BRANCH  18  19
HETATM   19  C   UNL     1      41.002 -13.685   5.665  1.00  0.00    -0.040 A 
HETATM   20  C   UNL     1      40.343 -14.886   5.967  1.00  0.00     0.009 A 
HETATM   21  C   UNL     1      40.950 -15.846   6.776  1.00  0.00     0.001 A 
HETATM   22  C   UNL     1      42.228 -15.622   7.284  1.00  0.00     0.000 A 
HETATM   23  C   UNL     1      42.902 -14.441   6.977  1.00  0.00     0.001 A 
HETATM   24  C   UNL     1      42.295 -13.478   6.170  1.00  0.00     0.009 A 
ENDBRANCH  18  19
ENDBRANCH   1  18
BRANCH   2  25
HETATM   25  C   UNL     1      42.282 -10.376   4.714  1.00  0.00     0.250 C 
BRANCH  25  26
HETATM   26  N   UNL     1      43.513 -10.652   5.417  1.00  0.00    -0.263 N 
HETATM   27  N   UNL     1      44.538 -11.183   4.717  1.00  0.00     0.006 NA
HETATM   28  N   UNL     1      45.558 -11.335   5.549  1.00  0.00    -0.158 NA
HETATM   29  C   UNL     1      45.170 -10.890   6.781  1.00  0.00     0.102 A 
HETATM   30  C   UNL     1      43.853 -10.439   6.727  1.00  0.00     0.079 A 
HETATM   31  C   UNL     1      45.875 -10.844   7.991  1.00  0.00     0.035 A 
HETATM   32  C   UNL     1      43.188  -9.924   7.845  1.00  0.00     0.033 A 
HETATM   33  C   UNL     1      43.903  -9.896   9.049  1.00  0.00     0.002 A 
HETATM   34  C   UNL     1      45.223 -10.347   9.125  1.00  0.00     0.002 A 
ENDBRANCH  25  26
ENDBRANCH   2  25
TORSDOF 8
ENDMDL
MODEL 4
REMARK VINA RESULT:      -8.5      2.962      7.728
REMARK  8 active torsions:
REMARK  status: ('A' for Active; 'I' for Inactive)
REMARK    1  A    between atoms: C_2  and  N_3 
REMARK    2  A    between atoms: C_2  and  C_23 
REMARK       I    between atoms: N_3  and  C_4 
REMARK    3  A    between atoms: N_3  and  C_16 
REMARK    4  A    between atoms: C_4  and  C_5 
REMARK    5  A    between atoms: C_5  and  N_6 
REMARK    6  A    between atoms: C_16  and  C_17 
REMARK       I    between atoms: C_23  and  N_24 
REMARK    7  A    between atoms: N_24  and  C_25 
REMARK    8  A    between atoms: C_28  and  O_29 
ROOT
HETATM    1  N   UNL     1      41.046 -12.212   4.189  1.00  0.00    -0.333 N 
HETATM    2  C   UNL     1      40.869 -10.967   4.795  1.00  0.00     0.240 C 
HETATM    3  O   UNL     1      41.839 -10.264   5.095  1.00  0.00    -0.271 OA
ENDROOT
BRANCH   1   4
HETATM    4  C   UNL     1      42.420 -12.788   4.249  1.00  0.00     0.176 C 
HETATM    5  C   UNL     1      43.251 -12.424   3.016  1.00  0.00     0.042 C 
BRANCH   4   6
HETATM    6  C   UNL     1      42.471 -14.307   4.560  1.00  0.00     0.244 C 
HETATM    7  N   UNL     1      43.076 -15.040   3.550  1.00  0.00    -0.325 N 
HETATM    8  H   UNL     1      43.346 -14.516   2.728  1.00  0.00     0.169 HD
HETATM    9  O   UNL     1      41.870 -14.782   5.522  1.00  0.00    -0.271 OA
BRANCH   7  10
HETATM   10  C   UNL     1      43.333 -16.425   3.538  1.00  0.00     0.035 A 
HETATM   11  C   UNL     1      43.932 -16.982   4.671  1.00  0.00     0.032 A 
HETATM   12  C   UNL     1      44.181 -18.356   4.738  1.00  0.00     0.039 A 
HETATM   13  C   UNL     1      43.821 -19.197   3.685  1.00  0.00     0.068 A 
HETATM   14  C   UNL     1      43.233 -18.644   2.549  1.00  0.00     0.039 A 
HETATM   15  C   UNL     1      42.991 -17.265   2.478  1.00  0.00     0.032 A 
BRANCH  13  16
HETATM   16  O   UNL     1      44.097 -20.522   3.880  1.00  0.00    -0.356 OA
HETATM   17  C   UNL     1      44.273 -20.941   5.228  1.00  0.00     0.210 C 
ENDBRANCH  13  16
ENDBRANCH   7  10
ENDBRANCH   4   6
ENDBRANCH   1   4
BRANCH   1  18
HETATM   18  C   UNL     1      39.945 -13.147   3.906  1.00  0.00     0.165 C 
BRANCH  18  19
HETATM   19  C   UNL     1      39.921 -13.608   2.468  1.00  0.00    -0.040 A 
HETATM   20  C   UNL     1      39.932 -14.977   2.159  1.00  0.00     0.009 A 
HETATM   21  C   UNL     1      39.953 -15.405   0.832  1.00  0.00     0.001 A 
HETATM   22  C   UNL     1      39.952 -14.472  -0.202  1.00  0.00     0.000 A 
HETATM   23  C   UNL     1      39.923 -13.110   0.090  1.00  0.00     0.001 A 
HETATM   24  C   UNL     1      39.905 -12.679   1.417  1.00  0.00     0.009 A 
ENDBRANCH  18  19
ENDBRANCH   1  18
BRANCH   2  25
HETATM   25  C   UNL     1      39.488 -10.466   5.139  1.00  0.00     0.250 C 
BRANCH  25  26
HETATM   26  N   UNL     1      39.260 -10.252   6.549  1.00  0.00    -0.263 N 
HETATM   27  N   UNL     1      38.679 -11.246   7.255  1.00  0.00     0.006 NA
HETATM   28  N   UNL     1      38.584 -10.843   8.513  1.00  0.00    -0.158 NA
HETATM   29  C   UNL     1      39.115  -9.587   8.597  1.00  0.00     0.102 A 
HETATM   30  C   UNL     1      39.564  -9.179   7.343  1.00  0.00     0.079 A 
HETATM   31  C   UNL     1      39.246  -8.730   9.699  1.00  0.00     0.035 A 
HETATM   32  C   UNL     1      40.159  -7.931   7.127  1.00  0.00     0.033 A 
HETATM   33  C   UNL     1      40.270  -7.082   8.235  1.00  0.00     0.002 A 
HETATM   34  C   UNL     1      39.823  -7.471   9.500  1.00  0.00     0.002 A 
ENDBRANCH  25  26
ENDBRANCH   2  25
TORSDOF 8
ENDMDL
MODEL 5
REMARK VINA RESULT:      -8.5      3.323      6.080
REMARK  8 active torsions:
REMARK  status: ('A' for Active; 'I' for Inactive)
REMARK    1  A    between atoms: C_2  and  N_3 
REMARK    2  A    between atoms: C_2  and  C_23 
REMARK       I    between atoms: N_3  and  C_4 
REMARK    3  A    between atoms: N_3  and  C_16 
REMARK    4  A    between atoms: C_4  and  C_5 
REMARK    5  A    between atoms: C_5  and  N_6 
REMARK    6  A    between atoms: C_16  and  C_17 
REMARK       I    between atoms: C_23  and  N_24 
REMARK    7  A    between atoms: N_24  and  C_25 
REMARK    8  A    between atoms: C_28  and  O_29 
ROOT
HETATM    1  N   UNL     1      42.567 -11.623   5.425  1.00  0.00    -0.333 N 
HETATM    2  C   UNL     1      42.210 -11.141   4.165  1.00  0.00     0.240 C 
HETATM    3  O   UNL     1      42.985 -10.437   3.510  1.00  0.00    -0.271 OA
ENDROOT
BRANCH   1   4
HETATM    4  C   UNL     1      43.742 -10.971   6.073  1.00  0.00     0.176 C 
HETATM    5  C   UNL     1      45.069 -11.518   5.541  1.00  0.00     0.042 C 
BRANCH   4   6
HETATM    6  C   UNL     1      43.697 -10.954   7.624  1.00  0.00     0.244 C 
HETATM    7  N   UNL     1      43.296  -9.728   8.134  1.00  0.00    -0.325 N 
HETATM    8  H   UNL     1      43.148  -8.995   7.452  1.00  0.00     0.169 HD
HETATM    9  O   UNL     1      44.146 -11.887   8.286  1.00  0.00    -0.271 OA
BRANCH   7  10
HETATM   10  C   UNL     1      43.097  -9.391   9.487  1.00  0.00     0.035 A 
HETATM   11  C   UNL     1      41.782  -9.354   9.958  1.00  0.00     0.032 A 
HETATM   12  C   UNL     1      41.517  -9.062  11.300  1.00  0.00     0.039 A 
HETATM   13  C   UNL     1      42.560  -8.820  12.194  1.00  0.00     0.068 A 
HETATM   14  C   UNL     1      43.872  -8.845  11.726  1.00  0.00     0.039 A 
HETATM   15  C   UNL     1      44.137  -9.129  10.379  1.00  0.00     0.032 A 
BRANCH  13  16
HETATM   16  O   UNL     1      42.173  -8.567  13.482  1.00  0.00    -0.356 OA
HETATM   17  C   UNL     1      42.708  -7.395  14.086  1.00  0.00     0.210 C 
ENDBRANCH  13  16
ENDBRANCH   7  10
ENDBRANCH   4   6
ENDBRANCH   1   4
BRANCH   1  18
HETATM   18  C   UNL     1      41.655 -12.372   6.303  1.00  0.00     0.165 C 
BRANCH  18  19
HETATM   19  C   UNL     1      41.749 -13.867   6.110  1.00  0.00    -0.040 A 
HETATM   20  C   UNL     1      40.595 -14.665   6.151  1.00  0.00     0.009 A 
HETATM   21  C   UNL     1      40.684 -16.050   6.015  1.00  0.00     0.001 A 
HETATM   22  C   UNL     1      41.925 -16.653   5.826  1.00  0.00     0.000 A 
HETATM   23  C   UNL     1      43.078 -15.872   5.765  1.00  0.00     0.001 A 
HETATM   24  C   UNL     1      42.991 -14.485   5.903  1.00  0.00     0.009 A 
ENDBRANCH  18  19
ENDBRANCH   1  18
BRANCH   2  25
HETATM   25  C   UNL     1      40.847 -11.434   3.585  1.00  0.00     0.250 C 
BRANCH  25  26
HETATM   26  N   UNL     1      40.672 -12.789   3.117  1.00  0.00    -0.263 N 
HETATM   27  N   UNL     1      39.423 -13.300   3.107  1.00  0.00     0.006 NA
HETATM   28  N   UNL     1      39.495 -14.534   2.630  1.00  0.00    -0.158 NA
HETATM   29  C   UNL     1      40.803 -14.795   2.333  1.00  0.00     0.102 A 
HETATM   30  C   UNL     1      41.588 -13.685   2.634  1.00  0.00     0.079 A 
HETATM   31  C   UNL     1      41.400 -15.952   1.813  1.00  0.00     0.035 A 
HETATM   32  C   UNL     1      42.972 -13.665   2.430  1.00  0.00     0.033 A 
HETATM   33  C   UNL     1      43.555 -14.832   1.921  1.00  0.00     0.002 A 
HETATM   34  C   UNL     1      42.786 -15.958   1.617  1.00  0.00     0.002 A 
ENDBRANCH  25  26
ENDBRANCH   2  25
TORSDOF 8
ENDMDL
MODEL 6
REMARK VINA RESULT:      -8.4      1.848      5.887
REMARK  8 active torsions:
REMARK  status: ('A' for Active; 'I' for Inactive)
REMARK    1  A    between atoms: C_2  and  N_3 
REMARK    2  A    between atoms: C_2  and  C_23 
REMARK       I    between atoms: N_3  and  C_4 
REMARK    3  A    between atoms: N_3  and  C_16 
REMARK    4  A    between atoms: C_4  and  C_5 
REMARK    5  A    between atoms: C_5  and  N_6 
REMARK    6  A    between atoms: C_16  and  C_17 
REMARK       I    between atoms: C_23  and  N_24 
REMARK    7  A    between atoms: N_24  and  C_25 
REMARK    8  A    between atoms: C_28  and  O_29 
ROOT
HETATM    1  N   UNL     1      41.888 -15.102   3.534  1.00  0.00    -0.333 N 
HETATM    2  C   UNL     1      40.816 -15.026   2.644  1.00  0.00     0.240 C 
HETATM    3  O   UNL     1      39.676 -14.765   3.042  1.00  0.00    -0.271 OA
ENDROOT
BRANCH   1   4
HETATM    4  C   UNL     1      41.540 -15.206   4.980  1.00  0.00     0.176 C 
HETATM    5  C   UNL     1      40.546 -16.338   5.253  1.00  0.00     0.042 C 
BRANCH   4   6
HETATM    6  C   UNL     1      41.099 -13.871   5.636  1.00  0.00     0.244 C 
HETATM    7  N   UNL     1      41.973 -12.828   5.368  1.00  0.00    -0.325 N 
HETATM    8  H   UNL     1      42.804 -13.074   4.845  1.00  0.00     0.169 HD
HETATM    9  O   UNL     1      40.169 -13.831   6.440  1.00  0.00    -0.271 OA
BRANCH   7  10
HETATM   10  C   UNL     1      41.842 -11.483   5.761  1.00  0.00     0.035 A 
HETATM   11  C   UNL     1      42.703 -11.013   6.757  1.00  0.00     0.032 A 
HETATM   12  C   UNL     1      42.648  -9.677   7.169  1.00  0.00     0.039 A 
HETATM   13  C   UNL     1      41.748  -8.787   6.581  1.00  0.00     0.068 A 
HETATM   14  C   UNL     1      40.881  -9.254   5.595  1.00  0.00     0.039 A 
HETATM   15  C   UNL     1      40.929 -10.596   5.189  1.00  0.00     0.032 A 
BRANCH  13  16
HETATM   16  O   UNL     1      41.807  -7.506   7.054  1.00  0.00    -0.356 OA
HETATM   17  C   UNL     1      42.646  -7.285   8.183  1.00  0.00     0.210 C 
ENDBRANCH  13  16
ENDBRANCH   7  10
ENDBRANCH   4   6
ENDBRANCH   1   4
BRANCH   1  18
HETATM   18  C   UNL     1      43.245 -15.516   3.145  1.00  0.00     0.165 C 
BRANCH  18  19
HETATM   19  C   UNL     1      43.471 -17.003   3.291  1.00  0.00    -0.040 A 
HETATM   20  C   UNL     1      43.109 -17.883   2.260  1.00  0.00     0.009 A 
HETATM   21  C   UNL     1      43.277 -19.259   2.409  1.00  0.00     0.001 A 
HETATM   22  C   UNL     1      43.817 -19.772   3.585  1.00  0.00     0.000 A 
HETATM   23  C   UNL     1      44.198 -18.909   4.611  1.00  0.00     0.001 A 
HETATM   24  C   UNL     1      44.028 -17.531   4.465  1.00  0.00     0.009 A 
ENDBRANCH  18  19
ENDBRANCH   1  18
BRANCH   2  25
HETATM   25  C   UNL     1      41.013 -15.304   1.173  1.00  0.00     0.250 C 
BRANCH  25  26
HETATM   26  N   UNL     1      40.747 -14.178   0.309  1.00  0.00    -0.263 N 
HETATM   27  N   UNL     1      41.296 -12.988   0.630  1.00  0.00     0.006 NA
HETATM   28  N   UNL     1      40.937 -12.114  -0.299  1.00  0.00    -0.158 NA
HETATM   29  C   UNL     1      40.159 -12.765  -1.214  1.00  0.00     0.102 A 
HETATM   30  C   UNL     1      40.020 -14.103  -0.850  1.00  0.00     0.079 A 
HETATM   31  C   UNL     1      39.531 -12.289  -2.373  1.00  0.00     0.035 A 
HETATM   32  C   UNL     1      39.275 -15.014  -1.606  1.00  0.00     0.033 A 
HETATM   33  C   UNL     1      38.644 -14.519  -2.754  1.00  0.00     0.002 A 
HETATM   34  C   UNL     1      38.767 -13.180  -3.134  1.00  0.00     0.002 A 
ENDBRANCH  25  26
ENDBRANCH   2  25
TORSDOF 8
ENDMDL
MODEL 7
REMARK VINA RESULT:      -8.2      1.816      6.883
REMARK  8 active torsions:
REMARK  status: ('A' for Active; 'I' for Inactive)
REMARK    1  A    between atoms: C_2  and  N_3 
REMARK    2  A    between atoms: C_2  and  C_23 
REMARK       I    between atoms: N_3  and  C_4 
REMARK    3  A    between atoms: N_3  and  C_16 
REMARK    4  A    between atoms: C_4  and  C_5 
REMARK    5  A    between atoms: C_5  and  N_6 
REMARK    6  A    between atoms: C_16  and  C_17 
REMARK       I    between atoms: C_23  and  N_24 
REMARK    7  A    between atoms: N_24  and  C_25 
REMARK    8  A    between atoms: C_28  and  O_29 
ROOT
HETATM    1  N   UNL     1      42.348 -12.570   5.009  1.00  0.00    -0.333 N 
HETATM    2  C   UNL     1      42.216 -13.760   5.728  1.00  0.00     0.240 C 
HETATM    3  O   UNL     1      41.101 -14.232   5.974  1.00  0.00    -0.271 OA
ENDROOT
BRANCH   1   4
HETATM    4  C   UNL     1      41.118 -11.740   4.874  1.00  0.00     0.176 C 
HETATM    5  C   UNL     1      40.350 -11.628   6.194  1.00  0.00     0.042 C 
BRANCH   4   6
HETATM    6  C   UNL     1      40.194 -12.142   3.694  1.00  0.00     0.244 C 
HETATM    7  N   UNL     1      40.903 -12.543   2.571  1.00  0.00    -0.325 N 
HETATM    8  H   UNL     1      41.910 -12.465   2.636  1.00  0.00     0.169 HD
HETATM    9  O   UNL     1      38.981 -11.942   3.735  1.00  0.00    -0.271 OA
BRANCH   7  10
HETATM   10  C   UNL     1      40.377 -13.021   1.356  1.00  0.00     0.035 A 
HETATM   11  C   UNL     1      40.500 -14.388   1.090  1.00  0.00     0.032 A 
HETATM   12  C   UNL     1      39.968 -14.933  -0.082  1.00  0.00     0.039 A 
HETATM   13  C   UNL     1      39.289 -14.128  -0.998  1.00  0.00     0.068 A 
HETATM   14  C   UNL     1      39.173 -12.763  -0.742  1.00  0.00     0.039 A 
HETATM   15  C   UNL     1      39.715 -12.215   0.429  1.00  0.00     0.032 A 
BRANCH  13  16
HETATM   16  O   UNL     1      38.797 -14.782  -2.093  1.00  0.00    -0.356 OA
HETATM   17  C   UNL     1      38.802 -14.060  -3.319  1.00  0.00     0.210 C 
ENDBRANCH  13  16
ENDBRANCH   7  10
ENDBRANCH   4   6
ENDBRANCH   1   4
BRANCH   1  18
HETATM   18  C   UNL     1      43.635 -11.896   4.776  1.00  0.00     0.165 C 
BRANCH  18  19
HETATM   19  C   UNL     1      44.206 -11.271   6.028  1.00  0.00    -0.040 A 
HETATM   20  C   UNL     1      43.414 -10.441   6.835  1.00  0.00     0.009 A 
HETATM   21  C   UNL     1      43.951  -9.829   7.967  1.00  0.00     0.001 A 
HETATM   22  C   UNL     1      45.282 -10.048   8.313  1.00  0.00     0.000 A 
HETATM   23  C   UNL     1      46.076 -10.885   7.531  1.00  0.00     0.001 A 
HETATM   24  C   UNL     1      45.541 -11.496   6.395  1.00  0.00     0.009 A 
ENDBRANCH  18  19
ENDBRANCH   1  18
BRANCH   2  25
HETATM   25  C   UNL     1      43.431 -14.480   6.259  1.00  0.00     0.250 C 
BRANCH  25  26
HETATM   26  N   UNL     1      43.595 -15.827   5.764  1.00  0.00    -0.263 N 
HETATM   27  N   UNL     1      43.887 -16.798   6.655  1.00  0.00     0.006 NA
HETATM   28  N   UNL     1      43.976 -17.941   5.990  1.00  0.00    -0.158 NA
HETATM   29  C   UNL     1      43.732 -17.683   4.671  1.00  0.00     0.102 A 
HETATM   30  C   UNL     1      43.479 -16.324   4.493  1.00  0.00     0.079 A 
HETATM   31  C   UNL     1      43.714 -18.546   3.566  1.00  0.00     0.035 A 
HETATM   32  C   UNL     1      43.195 -15.769   3.241  1.00  0.00     0.033 A 
HETATM   33  C   UNL     1      43.193 -16.643   2.147  1.00  0.00     0.002 A 
HETATM   34  C   UNL     1      43.448 -18.008   2.303  1.00  0.00     0.002 A 
ENDBRANCH  25  26
ENDBRANCH   2  25
TORSDOF 8
ENDMDL
MODEL 8
REMARK VINA RESULT:      -8.1      2.503      6.320
REMARK  8 active torsions:
REMARK  status: ('A' for Active; 'I' for Inactive)
REMARK    1  A    between atoms: C_2  and  N_3 
REMARK    2  A    between atoms: C_2  and  C_23 
REMARK       I    between atoms: N_3  and  C_4 
REMARK    3  A    between atoms: N_3  and  C_16 
REMARK    4  A    between atoms: C_4  and  C_5 
REMARK    5  A    between atoms: C_5  and  N_6 
REMARK    6  A    between atoms: C_16  and  C_17 
REMARK       I    between atoms: C_23  and  N_24 
REMARK    7  A    between atoms: N_24  and  C_25 
REMARK    8  A    between atoms: C_28  and  O_29 
ROOT
HETATM    1  N   UNL     1      42.481 -14.408   3.909  1.00  0.00    -0.333 N 
HETATM    2  C   UNL     1      42.542 -13.684   2.717  1.00  0.00     0.240 C 
HETATM    3  O   UNL     1      43.097 -12.582   2.670  1.00  0.00    -0.271 OA
ENDROOT
BRANCH   1   4
HETATM    4  C   UNL     1      42.789 -13.653   5.157  1.00  0.00     0.176 C 
HETATM    5  C   UNL     1      43.416 -14.546   6.230  1.00  0.00     0.042 C 
BRANCH   4   6
HETATM    6  C   UNL     1      41.607 -12.814   5.712  1.00  0.00     0.244 C 
HETATM    7  N   UNL     1      41.781 -11.452   5.520  1.00  0.00    -0.325 N 
HETATM    8  H   UNL     1      42.664 -11.174   5.110  1.00  0.00     0.169 HD
HETATM    9  O   UNL     1      40.724 -13.329   6.396  1.00  0.00    -0.271 OA
BRANCH   7  10
HETATM   10  C   UNL     1      40.880 -10.422   5.852  1.00  0.00     0.035 A 
HETATM   11  C   UNL     1      39.870 -10.125   4.933  1.00  0.00     0.032 A 
HETATM   12  C   UNL     1      38.921  -9.137   5.217  1.00  0.00     0.039 A 
HETATM   13  C   UNL     1      38.954  -8.446   6.428  1.00  0.00     0.068 A 
HETATM   14  C   UNL     1      39.966  -8.732   7.343  1.00  0.00     0.039 A 
HETATM   15  C   UNL     1      40.923  -9.715   7.054  1.00  0.00     0.032 A 
BRANCH  13  16
HETATM   16  O   UNL     1      37.960  -7.522   6.596  1.00  0.00    -0.356 OA
HETATM   17  C   UNL     1      38.249  -6.431   7.463  1.00  0.00     0.210 C 
ENDBRANCH  13  16
ENDBRANCH   7  10
ENDBRANCH   4   6
ENDBRANCH   1   4
BRANCH   1  18
HETATM   18  C   UNL     1      41.742 -15.672   4.061  1.00  0.00     0.165 C 
BRANCH  18  19
HETATM   19  C   UNL     1      42.564 -16.881   3.682  1.00  0.00    -0.040 A 
HETATM   20  C   UNL     1      42.328 -17.552   2.472  1.00  0.00     0.009 A 
HETATM   21  C   UNL     1      43.055 -18.694   2.140  1.00  0.00     0.001 A 
HETATM   22  C   UNL     1      44.035 -19.174   3.006  1.00  0.00     0.000 A 
HETATM   23  C   UNL     1      44.292 -18.508   4.203  1.00  0.00     0.001 A 
HETATM   24  C   UNL     1      43.563 -17.366   4.539  1.00  0.00     0.009 A 
ENDBRANCH  18  19
ENDBRANCH   1  18
BRANCH   2  25
HETATM   25  C   UNL     1      41.892 -14.211   1.460  1.00  0.00     0.250 C 
BRANCH  25  26
HETATM   26  N   UNL     1      40.720 -13.480   1.038  1.00  0.00    -0.263 N 
HETATM   27  N   UNL     1      40.169 -12.608   1.908  1.00  0.00     0.006 NA
HETATM   28  N   UNL     1      39.128 -12.046   1.311  1.00  0.00    -0.158 NA
HETATM   29  C   UNL     1      39.030 -12.569   0.053  1.00  0.00     0.102 A 
HETATM   30  C   UNL     1      40.047 -13.497  -0.155  1.00  0.00     0.079 A 
HETATM   31  C   UNL     1      38.102 -12.310  -0.966  1.00  0.00     0.035 A 
HETATM   32  C   UNL     1      40.196 -14.193  -1.359  1.00  0.00     0.033 A 
HETATM   33  C   UNL     1      39.254 -13.932  -2.362  1.00  0.00     0.002 A 
HETATM   34  C   UNL     1      38.224 -13.008  -2.173  1.00  0.00     0.002 A 
ENDBRANCH  25  26
ENDBRANCH   2  25
TORSDOF 8
ENDMDL
MODEL 9
REMARK VINA RESULT:      -8.1      2.738      7.373
REMARK  8 active torsions:
REMARK  status: ('A' for Active; 'I' for Inactive)
REMARK    1  A    between atoms: C_2  and  N_3 
REMARK    2  A    between atoms: C_2  and  C_23 
REMARK       I    between atoms: N_3  and  C_4 
REMARK    3  A    between atoms: N_3  and  C_16 
REMARK    4  A    between atoms: C_4  and  C_5 
REMARK    5  A    between atoms: C_5  and  N_6 
REMARK    6  A    between atoms: C_16  and  C_17 
REMARK       I    between atoms: C_23  and  N_24 
REMARK    7  A    between atoms: N_24  and  C_25 
REMARK    8  A    between atoms: C_28  and  O_29 
ROOT
HETATM    1  N   UNL     1      40.278 -12.700   2.140  1.00  0.00    -0.333 N 
HETATM    2  C   UNL     1      39.396 -11.675   2.485  1.00  0.00     0.240 C 
HETATM    3  O   UNL     1      39.688 -10.854   3.361  1.00  0.00    -0.271 OA
ENDROOT
BRANCH   1   4
HETATM    4  C   UNL     1      41.392 -12.963   3.095  1.00  0.00     0.176 C 
HETATM    5  C   UNL     1      42.719 -12.376   2.608  1.00  0.00     0.042 C 
BRANCH   4   6
HETATM    6  C   UNL     1      41.534 -14.447   3.528  1.00  0.00     0.244 C 
HETATM    7  N   UNL     1      42.606 -15.082   2.918  1.00  0.00    -0.325 N 
HETATM    8  H   UNL     1      43.111 -14.533   2.235  1.00  0.00     0.169 HD
HETATM    9  O   UNL     1      40.667 -15.002   4.200  1.00  0.00    -0.271 OA
BRANCH   7  10
HETATM   10  C   UNL     1      43.047 -16.402   3.130  1.00  0.00     0.035 A 
HETATM   11  C   UNL     1      43.589 -16.711   4.380  1.00  0.00     0.032 A 
HETATM   12  C   UNL     1      44.013 -18.013   4.667  1.00  0.00     0.039 A 
HETATM   13  C   UNL     1      43.886 -19.028   3.719  1.00  0.00     0.068 A 
HETATM   14  C   UNL     1      43.356 -18.722   2.467  1.00  0.00     0.039 A 
HETATM   15  C   UNL     1      42.939 -17.415   2.176  1.00  0.00     0.032 A 
BRANCH  13  16
HETATM   16  O   UNL     1      44.316 -20.260   4.127  1.00  0.00    -0.356 OA
HETATM   17  C   UNL     1      44.069 -20.599   5.487  1.00  0.00     0.210 C 
ENDBRANCH  13  16
ENDBRANCH   7  10
ENDBRANCH   4   6
ENDBRANCH   1   4
BRANCH   1  18
HETATM   18  C   UNL     1      39.951 -13.773   1.188  1.00  0.00     0.165 C 
BRANCH  18  19
HETATM   19  C   UNL     1      40.258 -13.401  -0.244  1.00  0.00    -0.040 A 
HETATM   20  C   UNL     1      41.084 -12.304  -0.534  1.00  0.00     0.009 A 
HETATM   21  C   UNL     1      41.334 -11.933  -1.855  1.00  0.00     0.001 A 
HETATM   22  C   UNL     1      40.772 -12.660  -2.902  1.00  0.00     0.000 A 
HETATM   23  C   UNL     1      39.965 -13.763  -2.629  1.00  0.00     0.001 A 
HETATM   24  C   UNL     1      39.711 -14.134  -1.307  1.00  0.00     0.009 A 
ENDBRANCH  18  19
ENDBRANCH   1  18
BRANCH   2  25
HETATM   25  C   UNL     1      38.043 -11.567   1.826  1.00  0.00     0.250 C 
BRANCH  25  26
HETATM   26  N   UNL     1      38.064 -10.995   0.500  1.00  0.00    -0.263 N 
HETATM   27  N   UNL     1      37.291 -11.565  -0.449  1.00  0.00     0.006 NA
HETATM   28  N   UNL     1      37.454 -10.876  -1.569  1.00  0.00    -0.158 NA
HETATM   29  C   UNL     1      38.334  -9.861  -1.317  1.00  0.00     0.102 A 
HETATM   30  C   UNL     1      38.744  -9.910   0.014  1.00  0.00     0.079 A 
HETATM   31  C   UNL     1      38.837  -8.866  -2.166  1.00  0.00     0.035 A 
HETATM   32  C   UNL     1      39.647  -8.990   0.557  1.00  0.00     0.033 A 
HETATM   33  C   UNL     1      40.149  -8.009  -0.308  1.00  0.00     0.002 A 
HETATM   34  C   UNL     1      39.753  -7.945  -1.647  1.00  0.00     0.002 A 
ENDBRANCH  25  26
ENDBRANCH   2  25
TORSDOF 8
ENDMDL
MODEL 10
REMARK VINA RESULT:      -8.0      2.291      6.946
REMARK  8 active torsions:
REMARK  status: ('A' for Active; 'I' for Inactive)
REMARK    1  A    between atoms: C_2  and  N_3 
REMARK    2  A    between atoms: C_2  and  C_23 
REMARK       I    between atoms: N_3  and  C_4 
REMARK    3  A    between atoms: N_3  and  C_16 
REMARK    4  A    between atoms: C_4  and  C_5 
REMARK    5  A    between atoms: C_5  and  N_6 
REMARK    6  A    between atoms: C_16  and  C_17 
REMARK       I    between atoms: C_23  and  N_24 
REMARK    7  A    between atoms: N_24  and  C_25 
REMARK    8  A    between atoms: C_28  and  O_29 
ROOT
HETATM    1  N   UNL     1      39.723 -12.073   3.709  1.00  0.00    -0.333 N 
HETATM    2  C   UNL     1      39.571 -12.791   2.521  1.00  0.00     0.240 C 
HETATM    3  O   UNL     1      39.024 -13.898   2.513  1.00  0.00    -0.271 OA
ENDROOT
BRANCH   1   4
HETATM    4  C   UNL     1      39.526 -12.839   4.973  1.00  0.00     0.176 C 
HETATM    5  C   UNL     1      39.135 -11.930   6.141  1.00  0.00     0.042 C 
BRANCH   4   6
HETATM    6  C   UNL     1      40.695 -13.791   5.340  1.00  0.00     0.244 C 
HETATM    7  N   UNL     1      40.704 -14.947   4.573  1.00  0.00    -0.325 N 
HETATM    8  H   UNL     1      39.931 -15.054   3.929  1.00  0.00     0.169 HD
HETATM    9  O   UNL     1      41.400 -13.585   6.326  1.00  0.00    -0.271 OA
BRANCH   7  10
HETATM   10  C   UNL     1      41.653 -15.987   4.610  1.00  0.00     0.035 A 
HETATM   11  C   UNL     1      42.229 -16.380   3.399  1.00  0.00     0.032 A 
HETATM   12  C   UNL     1      43.204 -17.383   3.371  1.00  0.00     0.039 A 
HETATM   13  C   UNL     1      43.631 -17.994   4.550  1.00  0.00     0.068 A 
HETATM   14  C   UNL     1      43.052 -17.612   5.758  1.00  0.00     0.039 A 
HETATM   15  C   UNL     1      42.068 -16.613   5.786  1.00  0.00     0.032 A 
BRANCH  13  16
HETATM   16  O   UNL     1      44.603 -18.943   4.393  1.00  0.00    -0.356 OA
HETATM   17  C   UNL     1      44.325 -20.231   4.931  1.00  0.00     0.210 C 
ENDBRANCH  13  16
ENDBRANCH   7  10
ENDBRANCH   4   6
ENDBRANCH   1   4
BRANCH   1  18
HETATM   18  C   UNL     1      40.459 -10.803   3.808  1.00  0.00     0.165 C 
BRANCH  18  19
HETATM   19  C   UNL     1      41.895 -10.989   4.238  1.00  0.00    -0.040 A 
HETATM   20  C   UNL     1      42.824 -11.594   3.377  1.00  0.00     0.009 A 
HETATM   21  C   UNL     1      44.140 -11.806   3.787  1.00  0.00     0.001 A 
HETATM   22  C   UNL     1      44.547 -11.406   5.057  1.00  0.00     0.000 A 
HETATM   23  C   UNL     1      43.640 -10.787   5.917  1.00  0.00     0.001 A 
HETATM   24  C   UNL     1      42.322 -10.577   5.509  1.00  0.00     0.009 A 
ENDBRANCH  18  19
ENDBRANCH   1  18
BRANCH   2  25
HETATM   25  C   UNL     1      40.110 -12.250   1.219  1.00  0.00     0.250 C 
BRANCH  25  26
HETATM   26  N   UNL     1      39.157 -12.235   0.135  1.00  0.00    -0.263 N 
HETATM   27  N   UNL     1      38.288 -11.204   0.069  1.00  0.00     0.006 NA
HETATM   28  N   UNL     1      37.527 -11.385  -1.001  1.00  0.00    -0.158 NA
HETATM   29  C   UNL     1      37.929 -12.538  -1.614  1.00  0.00     0.102 A 
HETATM   30  C   UNL     1      38.983 -13.109  -0.905  1.00  0.00     0.079 A 
HETATM   31  C   UNL     1      37.443 -13.167  -2.769  1.00  0.00     0.035 A 
HETATM   32  C   UNL     1      39.599 -14.300  -1.303  1.00  0.00     0.033 A 
HETATM   33  C   UNL     1      39.094 -14.922  -2.452  1.00  0.00     0.002 A 
HETATM   34  C   UNL     1      38.034 -14.368  -3.175  1.00  0.00     0.002 A 
ENDBRANCH  25  26
ENDBRANCH   2  25
TORSDOF 8
ENDMDL
