MODEL 1
REMARK VINA RESULT:      -8.7      0.000      0.000
REMARK  5 active torsions:
REMARK  status: ('A' for Active; 'I' for Inactive)
REMARK    1  A    between atoms: C_6  and  N_7 
REMARK       I    between atoms: N_7  and  C_8 
REMARK    2  A    between atoms: C_8  and  C_9 
REMARK    3  A    between atoms: C_9  and  O_10 
REMARK    4  A    between atoms: O_10  and  C_11 
REMARK    5  A    between atoms: C_20  and  C_21 
ROOT
HETATM    1  C   UNL     1      42.449 -11.424   2.901  1.00  0.00     0.073 C 
HETATM    2  C   UNL     1      42.235 -12.640   3.725  1.00  0.00     0.065 A 
HETATM    3  N   UNL     1      41.554 -13.677   3.222  1.00  0.00    -0.177 NA
HETATM    4  N   UNL     1      41.548 -14.577   4.218  1.00  0.00    -0.262 N 
HETATM    5  H   UNL     1      41.143 -15.490   4.034  1.00  0.00     0.191 HD
HETATM    6  C   UNL     1      42.169 -14.147   5.362  1.00  0.00     0.137 A 
HETATM    7  C   UNL     1      42.653 -12.885   5.062  1.00  0.00     0.046 A 
ENDROOT
BRANCH   6   8
HETATM    8  N   UNL     1      42.345 -14.891   6.513  1.00  0.00    -0.309 N 
HETATM    9  C   UNL     1      43.283 -15.850   6.785  1.00  0.00     0.247 C 
HETATM   10  O   UNL     1      43.355 -16.294   7.934  1.00  0.00    -0.271 OA
HETATM   11  H   UNL     1      41.687 -14.736   7.270  1.00  0.00     0.170 HD
BRANCH   9  12
HETATM   12  C   UNL     1      44.110 -16.466   5.660  1.00  0.00     0.278 C 
BRANCH  12  13
HETATM   13  O   UNL     1      44.135 -17.884   5.730  1.00  0.00    -0.339 OA
BRANCH  13  14
HETATM   14  C   UNL     1      43.883 -18.544   4.553  1.00  0.00     0.108 A 
HETATM   15  C   UNL     1      44.113 -19.926   4.562  1.00  0.00     0.152 A 
HETATM   16  F   UNL     1      44.545 -20.524   5.683  1.00  0.00    -0.203 F 
HETATM   17  C   UNL     1      43.895 -20.707   3.433  1.00  0.00     0.087 A 
HETATM   18  C   UNL     1      43.453 -20.091   2.272  1.00  0.00     0.119 A 
HETATM   19  F   UNL     1      43.236 -20.827   1.174  1.00  0.00    -0.206 F 
HETATM   20  C   UNL     1      43.235 -18.718   2.227  1.00  0.00     0.045 A 
HETATM   21  C   UNL     1      43.454 -17.939   3.368  1.00  0.00     0.043 A 
ENDBRANCH  13  14
ENDBRANCH  12  13
ENDBRANCH   9  12
ENDBRANCH   6   8
BRANCH   7  22
HETATM   22  C   UNL     1      43.351 -12.021   5.998  1.00  0.00    -0.020 A 
HETATM   23  C   UNL     1      44.714 -12.204   6.253  1.00  0.00     0.014 A 
HETATM   24  C   UNL     1      45.385 -11.355   7.138  1.00  0.00     0.020 A 
HETATM   25  C   UNL     1      44.693 -10.320   7.767  1.00  0.00     0.011 A 
HETATM   26 BR   UNL     1      45.602  -9.169   8.959  1.00  0.00    -0.051 Br
HETATM   27  C   UNL     1      43.336 -10.126   7.520  1.00  0.00     0.020 A 
HETATM   28  C   UNL     1      42.668 -10.974   6.633  1.00  0.00     0.014 A 
ENDBRANCH   7  22
TORSDOF 5
ENDMDL
MODEL 2
REMARK VINA RESULT:      -8.3      1.057      1.804
REMARK  5 active torsions:
REMARK  status: ('A' for Active; 'I' for Inactive)
REMARK    1  A    between atoms: C_6  and  N_7 
REMARK       I    between atoms: N_7  and  C_8 
REMARK    2  A    between atoms: C_8  and  C_9 
REMARK    3  A    between atoms: C_9  and  O_10 
REMARK    4  A    between atoms: O_10  and  C_11 
REMARK    5  A    between atoms: C_20  and  C_21 
ROOT
HETATM    1  C   UNL     1      42.593 -11.693   2.686  1.00  0.00     0.073 C 
HETATM    2  C   UNL     1      42.296 -12.803   3.626  1.00  0.00     0.065 A 
HETATM    3  N   UNL     1      41.627 -13.881   3.198  1.00  0.00    -0.177 NA
HETATM    4  N   UNL     1      41.532 -14.660   4.289  1.00  0.00    -0.262 N 
HETATM    5  H   UNL     1      41.120 -15.582   4.181  1.00  0.00     0.191 HD
HETATM    6  C   UNL     1      42.082 -14.110   5.417  1.00  0.00     0.137 A 
HETATM    7  C   UNL     1      42.614 -12.898   5.010  1.00  0.00     0.046 A 
ENDROOT
BRANCH   6   8
HETATM    8  N   UNL     1      42.161 -14.718   6.655  1.00  0.00    -0.309 N 
HETATM    9  C   UNL     1      43.151 -15.516   7.161  1.00  0.00     0.247 C 
HETATM   10  O   UNL     1      43.093 -15.843   8.350  1.00  0.00    -0.271 OA
HETATM   11  H   UNL     1      41.379 -14.583   7.288  1.00  0.00     0.170 HD
BRANCH   9  12
HETATM   12  C   UNL     1      44.210 -16.116   6.241  1.00  0.00     0.278 C 
BRANCH  12  13
HETATM   13  O   UNL     1      43.679 -16.466   4.971  1.00  0.00    -0.339 OA
BRANCH  13  14
HETATM   14  C   UNL     1      43.778 -17.790   4.627  1.00  0.00     0.108 A 
HETATM   15  C   UNL     1      43.674 -18.079   3.260  1.00  0.00     0.152 A 
HETATM   16  F   UNL     1      43.497 -17.083   2.378  1.00  0.00    -0.203 F 
HETATM   17  C   UNL     1      43.759 -19.383   2.784  1.00  0.00     0.087 A 
HETATM   18  C   UNL     1      43.936 -20.415   3.693  1.00  0.00     0.119 A 
HETATM   19  F   UNL     1      44.021 -21.676   3.254  1.00  0.00    -0.206 F 
HETATM   20  C   UNL     1      44.023 -20.160   5.058  1.00  0.00     0.045 A 
HETATM   21  C   UNL     1      43.940 -18.846   5.529  1.00  0.00     0.043 A 
ENDBRANCH  13  14
ENDBRANCH  12  13
ENDBRANCH   9  12
ENDBRANCH   6   8
BRANCH   7  22
HETATM   22  C   UNL     1      43.265 -11.941   5.888  1.00  0.00    -0.020 A 
HETATM   23  C   UNL     1      42.540 -10.885   6.451  1.00  0.00     0.014 A 
HETATM   24  C   UNL     1      43.167  -9.981   7.313  1.00  0.00     0.020 A 
HETATM   25  C   UNL     1      44.521 -10.133   7.613  1.00  0.00     0.011 A 
HETATM   26 BR   UNL     1      45.367  -8.914   8.783  1.00  0.00    -0.051 Br
HETATM   27  C   UNL     1      45.253 -11.181   7.061  1.00  0.00     0.020 A 
HETATM   28  C   UNL     1      44.624 -12.086   6.202  1.00  0.00     0.014 A 
ENDBRANCH   7  22
TORSDOF 5
ENDMDL
MODEL 3
REMARK VINA RESULT:      -8.3      1.733      2.126
REMARK  5 active torsions:
REMARK  status: ('A' for Active; 'I' for Inactive)
REMARK    1  A    between atoms: C_6  and  N_7 
REMARK       I    between atoms: N_7  and  C_8 
REMARK    2  A    between atoms: C_8  and  C_9 
REMARK    3  A    between atoms: C_9  and  O_10 
REMARK    4  A    between atoms: O_10  and  C_11 
REMARK    5  A    between atoms: C_20  and  C_21 
ROOT
HETATM    1  C   UNL     1      40.099 -13.739   1.986  1.00  0.00     0.073 C 
HETATM    2  C   UNL     1      40.437 -14.617   3.134  1.00  0.00     0.065 A 
HETATM    3  N   UNL     1      40.281 -15.942   3.031  1.00  0.00    -0.177 NA
HETATM    4  N   UNL     1      40.667 -16.411   4.229  1.00  0.00    -0.262 N 
HETATM    5  H   UNL     1      40.704 -17.417   4.358  1.00  0.00     0.191 HD
HETATM    6  C   UNL     1      41.032 -15.434   5.118  1.00  0.00     0.137 A 
HETATM    7  C   UNL     1      40.915 -14.244   4.421  1.00  0.00     0.046 A 
ENDROOT
BRANCH   6   8
HETATM    8  N   UNL     1      41.512 -15.645   6.396  1.00  0.00    -0.309 N 
HETATM    9  C   UNL     1      42.788 -15.929   6.802  1.00  0.00     0.247 C 
HETATM   10  O   UNL     1      43.033 -15.940   8.012  1.00  0.00    -0.271 OA
HETATM   11  H   UNL     1      40.839 -15.608   7.156  1.00  0.00     0.170 HD
BRANCH   9  12
HETATM   12  C   UNL     1      43.841 -16.377   5.792  1.00  0.00     0.278 C 
BRANCH  12  13
HETATM   13  O   UNL     1      44.053 -17.781   5.828  1.00  0.00    -0.339 OA
BRANCH  13  14
HETATM   14  C   UNL     1      43.868 -18.442   4.640  1.00  0.00     0.108 A 
HETATM   15  C   UNL     1      44.031 -19.833   4.680  1.00  0.00     0.152 A 
HETATM   16  F   UNL     1      44.339 -20.437   5.838  1.00  0.00    -0.203 F 
HETATM   17  C   UNL     1      43.870 -20.617   3.543  1.00  0.00     0.087 A 
HETATM   18  C   UNL     1      43.556 -19.995   2.343  1.00  0.00     0.119 A 
HETATM   19  F   UNL     1      43.396 -20.733   1.238  1.00  0.00    -0.206 F 
HETATM   20  C   UNL     1      43.409 -18.614   2.269  1.00  0.00     0.045 A 
HETATM   21  C   UNL     1      43.568 -17.833   3.418  1.00  0.00     0.043 A 
ENDBRANCH  13  14
ENDBRANCH  12  13
ENDBRANCH   9  12
ENDBRANCH   6   8
BRANCH   7  22
HETATM   22  C   UNL     1      41.159 -12.927   4.982  1.00  0.00    -0.020 A 
HETATM   23  C   UNL     1      42.396 -12.297   4.805  1.00  0.00     0.014 A 
HETATM   24  C   UNL     1      42.618 -11.020   5.328  1.00  0.00     0.020 A 
HETATM   25  C   UNL     1      41.602 -10.371   6.029  1.00  0.00     0.011 A 
HETATM   26 BR   UNL     1      41.900  -8.642   6.732  1.00  0.00    -0.051 Br
HETATM   27  C   UNL     1      40.366 -10.986   6.212  1.00  0.00     0.020 A 
HETATM   28  C   UNL     1      40.145 -12.261   5.685  1.00  0.00     0.014 A 
ENDBRANCH   7  22
TORSDOF 5
ENDMDL
MODEL 4
REMARK VINA RESULT:      -8.1      4.645      7.899
REMARK  5 active torsions:
REMARK  status: ('A' for Active; 'I' for Inactive)
REMARK    1  A    between atoms: C_6  and  N_7 
REMARK       I    between atoms: N_7  and  C_8 
REMARK    2  A    between atoms: C_8  and  C_9 
REMARK    3  A    between atoms: C_9  and  O_10 
REMARK    4  A    between atoms: O_10  and  C_11 
REMARK    5  A    between atoms: C_20  and  C_21 
ROOT
HETATM    1  C   UNL     1      43.984 -18.520   2.853  1.00  0.00     0.073 C 
HETATM    2  C   UNL     1      43.435 -17.757   4.001  1.00  0.00     0.065 A 
HETATM    3  N   UNL     1      43.766 -18.100   5.252  1.00  0.00    -0.177 NA
HETATM    4  N   UNL     1      43.099 -17.222   6.018  1.00  0.00    -0.262 N 
HETATM    5  H   UNL     1      43.261 -17.245   7.021  1.00  0.00     0.191 HD
HETATM    6  C   UNL     1      42.317 -16.346   5.312  1.00  0.00     0.137 A 
HETATM    7  C   UNL     1      42.534 -16.656   3.980  1.00  0.00     0.046 A 
ENDROOT
BRANCH   6   8
HETATM    8  N   UNL     1      41.569 -15.317   5.851  1.00  0.00    -0.309 N 
HETATM    9  C   UNL     1      41.886 -13.990   5.966  1.00  0.00     0.247 C 
HETATM   10  O   UNL     1      41.012 -13.208   6.351  1.00  0.00    -0.271 OA
HETATM   11  H   UNL     1      40.662 -15.557   6.238  1.00  0.00     0.170 HD
BRANCH   9  12
HETATM   12  C   UNL     1      43.324 -13.517   5.776  1.00  0.00     0.278 C 
BRANCH  12  13
HETATM   13  O   UNL     1      43.398 -12.122   5.520  1.00  0.00    -0.339 OA
BRANCH  13  14
HETATM   14  C   UNL     1      44.124 -11.388   6.424  1.00  0.00     0.108 A 
HETATM   15  C   UNL     1      43.400 -10.463   7.187  1.00  0.00     0.152 A 
HETATM   16  F   UNL     1      42.074 -10.346   7.013  1.00  0.00    -0.203 F 
HETATM   17  C   UNL     1      44.020  -9.659   8.137  1.00  0.00     0.087 A 
HETATM   18  C   UNL     1      45.391  -9.774   8.315  1.00  0.00     0.119 A 
HETATM   19  F   UNL     1      46.005  -9.009   9.226  1.00  0.00    -0.206 F 
HETATM   20  C   UNL     1      46.139 -10.669   7.558  1.00  0.00     0.045 A 
HETATM   21  C   UNL     1      45.507 -11.477   6.607  1.00  0.00     0.043 A 
ENDBRANCH  13  14
ENDBRANCH  12  13
ENDBRANCH   9  12
ENDBRANCH   6   8
BRANCH   7  22
HETATM   22  C   UNL     1      41.874 -16.008   2.860  1.00  0.00    -0.020 A 
HETATM   23  C   UNL     1      42.529 -15.009   2.131  1.00  0.00     0.014 A 
HETATM   24  C   UNL     1      41.897 -14.405   1.040  1.00  0.00     0.020 A 
HETATM   25  C   UNL     1      40.610 -14.801   0.677  1.00  0.00     0.011 A 
HETATM   26 BR   UNL     1      39.759 -13.987  -0.802  1.00  0.00    -0.051 Br
HETATM   27  C   UNL     1      39.948 -15.794   1.392  1.00  0.00     0.020 A 
HETATM   28  C   UNL     1      40.582 -16.400   2.481  1.00  0.00     0.014 A 
ENDBRANCH   7  22
TORSDOF 5
ENDMDL
MODEL 5
REMARK VINA RESULT:      -8.1      3.225      4.599
REMARK  5 active torsions:
REMARK  status: ('A' for Active; 'I' for Inactive)
REMARK    1  A    between atoms: C_6  and  N_7 
REMARK       I    between atoms: N_7  and  C_8 
REMARK    2  A    between atoms: C_8  and  C_9 
REMARK    3  A    between atoms: C_9  and  O_10 
REMARK    4  A    between atoms: O_10  and  C_11 
REMARK    5  A    between atoms: C_20  and  C_21 
ROOT
HETATM    1  C   UNL     1      39.207 -10.845   2.292  1.00  0.00     0.073 C 
HETATM    2  C   UNL     1      39.920 -11.978   1.652  1.00  0.00     0.065 A 
HETATM    3  N   UNL     1      39.440 -12.518   0.525  1.00  0.00    -0.177 NA
HETATM    4  N   UNL     1      40.312 -13.499   0.237  1.00  0.00    -0.262 N 
HETATM    5  H   UNL     1      40.188 -14.007  -0.634  1.00  0.00     0.191 HD
HETATM    6  C   UNL     1      41.319 -13.638   1.156  1.00  0.00     0.137 A 
HETATM    7  C   UNL     1      41.103 -12.637   2.087  1.00  0.00     0.046 A 
ENDROOT
BRANCH   6   8
HETATM    8  N   UNL     1      42.367 -14.534   1.075  1.00  0.00    -0.309 N 
HETATM    9  C   UNL     1      42.480 -15.782   1.623  1.00  0.00     0.247 C 
HETATM   10  O   UNL     1      43.449 -16.479   1.309  1.00  0.00    -0.271 OA
HETATM   11  H   UNL     1      43.189 -14.239   0.556  1.00  0.00     0.170 HD
BRANCH   9  12
HETATM   12  C   UNL     1      41.518 -16.238   2.717  1.00  0.00     0.278 C 
BRANCH  12  13
HETATM   13  O   UNL     1      42.119 -17.171   3.603  1.00  0.00    -0.339 OA
BRANCH  13  14
HETATM   14  C   UNL     1      42.450 -16.686   4.844  1.00  0.00     0.108 A 
HETATM   15  C   UNL     1      41.377 -16.407   5.701  1.00  0.00     0.152 A 
HETATM   16  F   UNL     1      40.119 -16.626   5.289  1.00  0.00    -0.203 F 
HETATM   17  C   UNL     1      41.581 -15.913   6.985  1.00  0.00     0.087 A 
HETATM   18  C   UNL     1      42.880 -15.681   7.411  1.00  0.00     0.119 A 
HETATM   19  F   UNL     1      43.096 -15.206   8.644  1.00  0.00    -0.206 F 
HETATM   20  C   UNL     1      43.964 -15.930   6.575  1.00  0.00     0.045 A 
HETATM   21  C   UNL     1      43.751 -16.431   5.287  1.00  0.00     0.043 A 
ENDBRANCH  13  14
ENDBRANCH  12  13
ENDBRANCH   9  12
ENDBRANCH   6   8
BRANCH   7  22
HETATM   22  C   UNL     1      41.907 -12.425   3.278  1.00  0.00    -0.020 A 
HETATM   23  C   UNL     1      43.142 -11.772   3.195  1.00  0.00     0.014 A 
HETATM   24  C   UNL     1      43.901 -11.551   4.348  1.00  0.00     0.020 A 
HETATM   25  C   UNL     1      43.424 -11.982   5.586  1.00  0.00     0.011 A 
HETATM   26 BR   UNL     1      44.448 -11.679   7.146  1.00  0.00    -0.051 Br
HETATM   27  C   UNL     1      42.197 -12.632   5.683  1.00  0.00     0.020 A 
HETATM   28  C   UNL     1      41.438 -12.849   4.529  1.00  0.00     0.014 A 
ENDBRANCH   7  22
TORSDOF 5
ENDMDL
MODEL 6
REMARK VINA RESULT:      -8.0      3.580      4.895
REMARK  5 active torsions:
REMARK  status: ('A' for Active; 'I' for Inactive)
REMARK    1  A    between atoms: C_6  and  N_7 
REMARK       I    between atoms: N_7  and  C_8 
REMARK    2  A    between atoms: C_8  and  C_9 
REMARK    3  A    between atoms: C_9  and  O_10 
REMARK    4  A    between atoms: O_10  and  C_11 
REMARK    5  A    between atoms: C_20  and  C_21 
ROOT
HETATM    1  C   UNL     1      41.355  -9.547   4.176  1.00  0.00     0.073 C 
HETATM    2  C   UNL     1      41.027 -10.837   4.833  1.00  0.00     0.065 A 
HETATM    3  N   UNL     1      41.094 -10.945   6.165  1.00  0.00    -0.177 NA
HETATM    4  N   UNL     1      40.746 -12.219   6.407  1.00  0.00    -0.262 N 
HETATM    5  H   UNL     1      40.653 -12.512   7.375  1.00  0.00     0.191 HD
HETATM    6  C   UNL     1      40.493 -12.952   5.278  1.00  0.00     0.137 A 
HETATM    7  C   UNL     1      40.646 -12.066   4.225  1.00  0.00     0.046 A 
ENDROOT
BRANCH   6   8
HETATM    8  N   UNL     1      40.072 -14.268   5.247  1.00  0.00    -0.309 N 
HETATM    9  C   UNL     1      40.778 -15.406   5.530  1.00  0.00     0.247 C 
HETATM   10  O   UNL     1      40.170 -16.479   5.580  1.00  0.00    -0.271 OA
HETATM   11  H   UNL     1      39.114 -14.441   4.960  1.00  0.00     0.170 HD
BRANCH   9  12
HETATM   12  C   UNL     1      42.301 -15.370   5.622  1.00  0.00     0.278 C 
BRANCH  12  13
HETATM   13  O   UNL     1      42.916 -15.465   4.346  1.00  0.00    -0.339 OA
BRANCH  13  14
HETATM   14  C   UNL     1      43.267 -16.730   3.945  1.00  0.00     0.108 A 
HETATM   15  C   UNL     1      42.640 -17.202   2.785  1.00  0.00     0.152 A 
HETATM   16  F   UNL     1      41.763 -16.422   2.134  1.00  0.00    -0.203 F 
HETATM   17  C   UNL     1      42.910 -18.468   2.275  1.00  0.00     0.087 A 
HETATM   18  C   UNL     1      43.813 -19.278   2.948  1.00  0.00     0.119 A 
HETATM   19  F   UNL     1      44.087 -20.499   2.473  1.00  0.00    -0.206 F 
HETATM   20  C   UNL     1      44.435 -18.844   4.114  1.00  0.00     0.045 A 
HETATM   21  C   UNL     1      44.161 -17.568   4.618  1.00  0.00     0.043 A 
ENDBRANCH  13  14
ENDBRANCH  12  13
ENDBRANCH   9  12
ENDBRANCH   6   8
BRANCH   7  22
HETATM   22  C   UNL     1      40.515 -12.414   2.822  1.00  0.00    -0.020 A 
HETATM   23  C   UNL     1      41.563 -13.051   2.147  1.00  0.00     0.014 A 
HETATM   24  C   UNL     1      41.422 -13.404   0.802  1.00  0.00     0.020 A 
HETATM   25  C   UNL     1      40.233 -13.122   0.130  1.00  0.00     0.011 A 
HETATM   26 BR   UNL     1      40.041 -13.604  -1.687  1.00  0.00    -0.051 Br
HETATM   27  C   UNL     1      39.182 -12.490   0.790  1.00  0.00     0.020 A 
HETATM   28  C   UNL     1      39.323 -12.140   2.136  1.00  0.00     0.014 A 
ENDBRANCH   7  22
TORSDOF 5
ENDMDL
MODEL 7
REMARK VINA RESULT:      -7.9      3.805      5.716
REMARK  5 active torsions:
REMARK  status: ('A' for Active; 'I' for Inactive)
REMARK    1  A    between atoms: C_6  and  N_7 
REMARK       I    between atoms: N_7  and  C_8 
REMARK    2  A    between atoms: C_8  and  C_9 
REMARK    3  A    between atoms: C_9  and  O_10 
REMARK    4  A    between atoms: O_10  and  C_11 
REMARK    5  A    between atoms: C_20  and  C_21 
ROOT
HETATM    1  C   UNL     1      41.262 -12.110  -0.343  1.00  0.00     0.073 C 
HETATM    2  C   UNL     1      40.527 -12.012   0.942  1.00  0.00     0.065 A 
HETATM    3  N   UNL     1      39.811 -10.915   1.221  1.00  0.00    -0.177 NA
HETATM    4  N   UNL     1      39.297 -11.161   2.437  1.00  0.00    -0.262 N 
HETATM    5  H   UNL     1      38.647 -10.485   2.826  1.00  0.00     0.191 HD
HETATM    6  C   UNL     1      39.685 -12.361   2.975  1.00  0.00     0.137 A 
HETATM    7  C   UNL     1      40.475 -12.956   2.006  1.00  0.00     0.046 A 
ENDROOT
BRANCH   6   8
HETATM    8  N   UNL     1      39.266 -12.876   4.186  1.00  0.00    -0.309 N 
HETATM    9  C   UNL     1      39.939 -12.939   5.375  1.00  0.00     0.247 C 
HETATM   10  O   UNL     1      39.326 -13.312   6.380  1.00  0.00    -0.271 OA
HETATM   11  H   UNL     1      38.338 -13.288   4.218  1.00  0.00     0.170 HD
BRANCH   9  12
HETATM   12  C   UNL     1      41.447 -12.708   5.426  1.00  0.00     0.278 C 
BRANCH  12  13
HETATM   13  O   UNL     1      42.041 -13.308   6.568  1.00  0.00    -0.339 OA
BRANCH  13  14
HETATM   14  C   UNL     1      42.494 -14.592   6.399  1.00  0.00     0.108 A 
HETATM   15  C   UNL     1      43.884 -14.762   6.431  1.00  0.00     0.152 A 
HETATM   16  F   UNL     1      44.683 -13.702   6.628  1.00  0.00    -0.203 F 
HETATM   17  C   UNL     1      44.468 -16.015   6.273  1.00  0.00     0.087 A 
HETATM   18  C   UNL     1      43.645 -17.112   6.064  1.00  0.00     0.119 A 
HETATM   19  F   UNL     1      44.188 -18.326   5.910  1.00  0.00    -0.206 F 
HETATM   20  C   UNL     1      42.262 -16.970   6.006  1.00  0.00     0.045 A 
HETATM   21  C   UNL     1      41.683 -15.708   6.170  1.00  0.00     0.043 A 
ENDBRANCH  13  14
ENDBRANCH  12  13
ENDBRANCH   9  12
ENDBRANCH   6   8
BRANCH   7  22
HETATM   22  C   UNL     1      41.148 -14.234   2.154  1.00  0.00    -0.020 A 
HETATM   23  C   UNL     1      40.420 -15.429   2.112  1.00  0.00     0.014 A 
HETATM   24  C   UNL     1      41.077 -16.657   2.233  1.00  0.00     0.020 A 
HETATM   25  C   UNL     1      42.461 -16.692   2.395  1.00  0.00     0.011 A 
HETATM   26 BR   UNL     1      43.349 -18.353   2.554  1.00  0.00    -0.051 Br
HETATM   27  C   UNL     1      43.197 -15.511   2.438  1.00  0.00     0.020 A 
HETATM   28  C   UNL     1      42.540 -14.283   2.313  1.00  0.00     0.014 A 
ENDBRANCH   7  22
TORSDOF 5
ENDMDL
MODEL 8
REMARK VINA RESULT:      -7.8      3.420      4.483
REMARK  5 active torsions:
REMARK  status: ('A' for Active; 'I' for Inactive)
REMARK    1  A    between atoms: C_6  and  N_7 
REMARK       I    between atoms: N_7  and  C_8 
REMARK    2  A    between atoms: C_8  and  C_9 
REMARK    3  A    between atoms: C_9  and  O_10 
REMARK    4  A    between atoms: O_10  and  C_11 
REMARK    5  A    between atoms: C_20  and  C_21 
ROOT
HETATM    1  C   UNL     1      39.868 -13.163  -1.248  1.00  0.00     0.073 C 
HETATM    2  C   UNL     1      39.859 -13.896   0.042  1.00  0.00     0.065 A 
HETATM    3  N   UNL     1      39.828 -15.235   0.050  1.00  0.00    -0.177 NA
HETATM    4  N   UNL     1      39.822 -15.553   1.355  1.00  0.00    -0.262 N 
HETATM    5  H   UNL     1      39.876 -16.535   1.606  1.00  0.00     0.191 HD
HETATM    6  C   UNL     1      39.810 -14.469   2.194  1.00  0.00     0.137 A 
HETATM    7  C   UNL     1      39.859 -13.364   1.361  1.00  0.00     0.046 A 
ENDROOT
BRANCH   6   8
HETATM    8  N   UNL     1      39.851 -14.516   3.573  1.00  0.00    -0.309 N 
HETATM    9  C   UNL     1      40.929 -14.401   4.409  1.00  0.00     0.247 C 
HETATM   10  O   UNL     1      40.728 -14.327   5.624  1.00  0.00    -0.271 OA
HETATM   11  H   UNL     1      38.973 -14.676   4.058  1.00  0.00     0.170 HD
BRANCH   9  12
HETATM   12  C   UNL     1      42.349 -14.521   3.863  1.00  0.00     0.278 C 
BRANCH  12  13
HETATM   13  O   UNL     1      43.131 -15.446   4.604  1.00  0.00    -0.339 OA
BRANCH  13  14
HETATM   14  C   UNL     1      43.315 -16.674   4.020  1.00  0.00     0.108 A 
HETATM   15  C   UNL     1      44.145 -17.565   4.713  1.00  0.00     0.152 A 
HETATM   16  F   UNL     1      44.695 -17.197   5.880  1.00  0.00    -0.203 F 
HETATM   17  C   UNL     1      44.410 -18.841   4.225  1.00  0.00     0.087 A 
HETATM   18  C   UNL     1      43.847 -19.222   3.017  1.00  0.00     0.119 A 
HETATM   19  F   UNL     1      44.090 -20.446   2.532  1.00  0.00    -0.206 F 
HETATM   20  C   UNL     1      43.036 -18.352   2.297  1.00  0.00     0.045 A 
HETATM   21  C   UNL     1      42.770 -17.072   2.796  1.00  0.00     0.043 A 
ENDBRANCH  13  14
ENDBRANCH  12  13
ENDBRANCH   9  12
ENDBRANCH   6   8
BRANCH   7  22
HETATM   22  C   UNL     1      39.823 -11.984   1.813  1.00  0.00    -0.020 A 
HETATM   23  C   UNL     1      41.010 -11.287   2.064  1.00  0.00     0.014 A 
HETATM   24  C   UNL     1      40.968  -9.952   2.477  1.00  0.00     0.020 A 
HETATM   25  C   UNL     1      39.739  -9.312   2.637  1.00  0.00     0.011 A 
HETATM   26 BR   UNL     1      39.683  -7.506   3.190  1.00  0.00    -0.051 Br
HETATM   27  C   UNL     1      38.550  -9.994   2.388  1.00  0.00     0.020 A 
HETATM   28  C   UNL     1      38.594 -11.327   1.973  1.00  0.00     0.014 A 
ENDBRANCH   7  22
TORSDOF 5
ENDMDL
MODEL 9
REMARK VINA RESULT:      -7.8      4.359      6.685
REMARK  5 active torsions:
REMARK  status: ('A' for Active; 'I' for Inactive)
REMARK    1  A    between atoms: C_6  and  N_7 
REMARK       I    between atoms: N_7  and  C_8 
REMARK    2  A    between atoms: C_8  and  C_9 
REMARK    3  A    between atoms: C_9  and  O_10 
REMARK    4  A    between atoms: O_10  and  C_11 
REMARK    5  A    between atoms: C_20  and  C_21 
ROOT
HETATM    1  C   UNL     1      40.349 -13.877  -1.607  1.00  0.00     0.073 C 
HETATM    2  C   UNL     1      39.770 -13.425  -0.317  1.00  0.00     0.065 A 
HETATM    3  N   UNL     1      38.906 -12.402  -0.293  1.00  0.00    -0.177 NA
HETATM    4  N   UNL     1      38.599 -12.265   1.007  1.00  0.00    -0.262 N 
HETATM    5  H   UNL     1      37.889 -11.585   1.260  1.00  0.00     0.191 HD
HETATM    6  C   UNL     1      39.261 -13.136   1.832  1.00  0.00     0.137 A 
HETATM    7  C   UNL     1      40.022 -13.929   0.990  1.00  0.00     0.046 A 
ENDROOT
BRANCH   6   8
HETATM    8  N   UNL     1      39.094 -13.238   3.199  1.00  0.00    -0.309 N 
HETATM    9  C   UNL     1      39.768 -12.594   4.201  1.00  0.00     0.247 C 
HETATM   10  O   UNL     1      39.364 -12.722   5.360  1.00  0.00    -0.271 OA
HETATM   11  H   UNL     1      38.390 -13.890   3.533  1.00  0.00     0.170 HD
BRANCH   9  12
HETATM   12  C   UNL     1      41.079 -11.869   3.911  1.00  0.00     0.278 C 
BRANCH  12  13
HETATM   13  O   UNL     1      42.180 -12.763   3.838  1.00  0.00    -0.339 OA
BRANCH  13  14
HETATM   14  C   UNL     1      42.406 -13.524   4.958  1.00  0.00     0.108 A 
HETATM   15  C   UNL     1      43.179 -12.924   5.961  1.00  0.00     0.152 A 
HETATM   16  F   UNL     1      43.639 -11.675   5.794  1.00  0.00    -0.203 F 
HETATM   17  C   UNL     1      43.478 -13.591   7.145  1.00  0.00     0.087 A 
HETATM   18  C   UNL     1      43.008 -14.884   7.318  1.00  0.00     0.119 A 
HETATM   19  F   UNL     1      43.284 -15.542   8.451  1.00  0.00    -0.206 F 
HETATM   20  C   UNL     1      42.256 -15.512   6.331  1.00  0.00     0.045 A 
HETATM   21  C   UNL     1      41.956 -14.834   5.145  1.00  0.00     0.043 A 
ENDBRANCH  13  14
ENDBRANCH  12  13
ENDBRANCH   9  12
ENDBRANCH   6   8
BRANCH   7  22
HETATM   22  C   UNL     1      40.928 -14.975   1.430  1.00  0.00    -0.020 A 
HETATM   23  C   UNL     1      42.314 -14.803   1.331  1.00  0.00     0.014 A 
HETATM   24  C   UNL     1      43.181 -15.805   1.776  1.00  0.00     0.020 A 
HETATM   25  C   UNL     1      42.663 -16.978   2.324  1.00  0.00     0.011 A 
HETATM   26 BR   UNL     1      43.837 -18.330   2.932  1.00  0.00    -0.051 Br
HETATM   27  C   UNL     1      41.287 -17.162   2.430  1.00  0.00     0.020 A 
HETATM   28  C   UNL     1      40.421 -16.158   1.986  1.00  0.00     0.014 A 
ENDBRANCH   7  22
TORSDOF 5
ENDMDL
MODEL 10
REMARK VINA RESULT:      -7.8      4.736      7.234
REMARK  5 active torsions:
REMARK  status: ('A' for Active; 'I' for Inactive)
REMARK    1  A    between atoms: C_6  and  N_7 
REMARK       I    between atoms: N_7  and  C_8 
REMARK    2  A    between atoms: C_8  and  C_9 
REMARK    3  A    between atoms: C_9  and  O_10 
REMARK    4  A    between atoms: O_10  and  C_11 
REMARK    5  A    between atoms: C_20  and  C_21 
ROOT
HETATM    1  C   UNL     1      43.982 -17.671   4.443  1.00  0.00     0.073 C 
HETATM    2  C   UNL     1      43.010 -16.983   5.329  1.00  0.00     0.065 A 
HETATM    3  N   UNL     1      43.060 -17.175   6.653  1.00  0.00    -0.177 NA
HETATM    4  N   UNL     1      42.055 -16.423   7.130  1.00  0.00    -0.262 N 
HETATM    5  H   UNL     1      41.948 -16.354   8.138  1.00  0.00     0.191 HD
HETATM    6  C   UNL     1      41.331 -15.780   6.161  1.00  0.00     0.137 A 
HETATM    7  C   UNL     1      41.948 -16.109   4.966  1.00  0.00     0.046 A 
ENDROOT
BRANCH   6   8
HETATM    8  N   UNL     1      40.280 -14.911   6.382  1.00  0.00    -0.309 N 
HETATM    9  C   UNL     1      40.191 -13.576   6.094  1.00  0.00     0.247 C 
HETATM   10  O   UNL     1      39.102 -13.013   6.244  1.00  0.00    -0.271 OA
HETATM   11  H   UNL     1      39.455 -15.288   6.837  1.00  0.00     0.170 HD
BRANCH   9  12
HETATM   12  C   UNL     1      41.441 -12.771   5.751  1.00  0.00     0.278 C 
BRANCH  12  13
HETATM   13  O   UNL     1      41.126 -11.470   5.277  1.00  0.00    -0.339 OA
BRANCH  13  14
HETATM   14  C   UNL     1      40.957 -11.353   3.920  1.00  0.00     0.108 A 
HETATM   15  C   UNL     1      42.092 -10.974   3.191  1.00  0.00     0.152 A 
HETATM   16  F   UNL     1      43.253 -10.758   3.827  1.00  0.00    -0.203 F 
HETATM   17  C   UNL     1      42.051 -10.822   1.809  1.00  0.00     0.087 A 
HETATM   18  C   UNL     1      40.850 -11.040   1.150  1.00  0.00     0.119 A 
HETATM   19  F   UNL     1      40.791 -10.900  -0.180  1.00  0.00    -0.206 F 
HETATM   20  C   UNL     1      39.703 -11.398   1.850  1.00  0.00     0.045 A 
HETATM   21  C   UNL     1      39.753 -11.552   3.239  1.00  0.00     0.043 A 
ENDBRANCH  13  14
ENDBRANCH  12  13
ENDBRANCH   9  12
ENDBRANCH   6   8
BRANCH   7  22
HETATM   22  C   UNL     1      41.493 -15.684   3.654  1.00  0.00    -0.020 A 
HETATM   23  C   UNL     1      42.310 -14.889   2.842  1.00  0.00     0.014 A 
HETATM   24  C   UNL     1      41.875 -14.502   1.571  1.00  0.00     0.020 A 
HETATM   25  C   UNL     1      40.625 -14.912   1.110  1.00  0.00     0.011 A 
HETATM   26 BR   UNL     1      40.040 -14.393  -0.611  1.00  0.00    -0.051 Br
HETATM   27  C   UNL     1      39.803 -15.704   1.907  1.00  0.00     0.020 A 
HETATM   28  C   UNL     1      40.240 -16.093   3.176  1.00  0.00     0.014 A 
ENDBRANCH   7  22
TORSDOF 5
ENDMDL
