MODEL 1
REMARK VINA RESULT:      -8.4      0.000      0.000
REMARK  9 active torsions:
REMARK  status: ('A' for Active; 'I' for Inactive)
REMARK    1  A    between atoms: C_4  and  C_5 
REMARK    2  A    between atoms: C_11  and  C_12 
REMARK    3  A    between atoms: C_15  and  C_16 
REMARK    4  A    between atoms: C_16  and  N_17 
REMARK    5  A    between atoms: N_17  and  C_18 
REMARK    6  A    between atoms: C_18  and  N_19 
REMARK    7  A    between atoms: N_19  and  C_20 
REMARK    8  A    between atoms: C_22  and  C_23 
REMARK    9  A    between atoms: C_23  and  O_24 
ROOT
HETATM    1  C   UNL     1      40.252 -13.434   4.213  1.00  0.00     0.067 C 
HETATM    2  C   UNL     1      40.949 -12.110   3.792  1.00  0.00     0.001 C 
HETATM    3  C   UNL     1      42.302 -11.940   4.520  1.00  0.00     0.040 C 
HETATM    4  C   UNL     1      42.089 -11.825   6.038  1.00  0.00     0.206 C 
HETATM    5  N   UNL     1      40.618 -12.148   6.325  1.00  0.00    -0.065 N 
HETATM    6  H   UNL     1      40.489 -12.184   7.346  1.00  0.00     0.280 HD
HETATM    7  C   UNL     1      40.174 -13.484   5.755  1.00  0.00     0.246 C 
HETATM    8  C   UNL     1      40.036 -10.948   4.247  1.00  0.00     0.033 C 
HETATM    9  C   UNL     1      39.750 -11.041   5.751  1.00  0.00     0.236 C 
ENDROOT
BRANCH   4  10
HETATM   10  C   UNL     1      43.060 -12.642   6.915  1.00  0.00     0.155 C 
BRANCH  10  11
HETATM   11  N   UNL     1      43.746 -11.879   7.952  1.00  0.00    -0.365 N 
HETATM   12  H   UNL     1      43.596 -12.172   8.911  1.00  0.00     0.161 HD
BRANCH  11  13
HETATM   13  C   UNL     1      44.921 -11.196   7.784  1.00  0.00     0.172 C 
HETATM   14  S   UNL     1      45.818 -11.219   6.378  1.00  0.00    -0.041 SA
BRANCH  13  15
HETATM   15  N   UNL     1      45.286 -10.354   8.800  1.00  0.00    -0.333 N 
HETATM   16  H   UNL     1      46.194 -10.564   9.208  1.00  0.00     0.168 HD
BRANCH  15  17
HETATM   17  C   UNL     1      44.550  -9.329   9.440  1.00  0.00     0.035 A 
HETATM   18  C   UNL     1      44.250  -9.344  10.802  1.00  0.00     0.047 A 
HETATM   19  C   UNL     1      43.464  -8.340  11.382  1.00  0.00     0.041 A 
HETATM   20  C   UNL     1      43.030  -7.267  10.606  1.00  0.00     0.018 A 
HETATM   21  C   UNL     1      43.386  -7.207   9.255  1.00  0.00     0.003 A 
HETATM   22  C   UNL     1      44.146  -8.232   8.677  1.00  0.00     0.029 A 
BRANCH  19  23
HETATM   23  C   UNL     1      43.104  -8.509  12.812  1.00  0.00     0.293 C 
HETATM   24  O   UNL     1      43.274  -7.623  13.638  1.00  0.00    -0.259 OA
BRANCH  23  25
HETATM   25  O   UNL     1      42.562  -9.728  13.032  1.00  0.00    -0.323 OA
HETATM   26  C   UNL     1      41.133  -9.735  13.051  1.00  0.00     0.213 C 
ENDBRANCH  23  25
ENDBRANCH  19  23
ENDBRANCH  15  17
ENDBRANCH  13  15
ENDBRANCH  11  13
ENDBRANCH  10  11
ENDBRANCH   4  10
BRANCH   1  27
HETATM   27  C   UNL     1      40.848 -14.682   3.616  1.00  0.00     0.038 A 
HETATM   28  N   UNL     1      40.719 -15.026   2.283  1.00  0.00    -0.277 N 
HETATM   29  C   UNL     1      40.045 -14.303   1.227  1.00  0.00     0.179 C 
HETATM   30  N   UNL     1      41.316 -16.181   1.967  1.00  0.00    -0.170 NA
HETATM   31  C   UNL     1      41.951 -16.549   3.082  1.00  0.00     0.112 A 
HETATM   32  C   UNL     1      41.675 -15.660   4.142  1.00  0.00     0.063 A 
BRANCH  31  33
HETATM   33  C   UNL     1      42.852 -17.733   3.152  1.00  0.00     0.105 A 
HETATM   34  O   UNL     1      43.739 -17.977   4.166  1.00  0.00    -0.320 OA
HETATM   35  C   UNL     1      44.405 -19.118   3.851  1.00  0.00     0.142 A 
HETATM   36  C   UNL     1      43.959 -19.624   2.654  1.00  0.00     0.027 A 
HETATM   37  C   UNL     1      42.953 -18.735   2.205  1.00  0.00     0.041 A 
ENDBRANCH  31  33
ENDBRANCH   1  27
TORSDOF 9
ENDMDL
MODEL 2
REMARK VINA RESULT:      -8.3      5.115      9.114
REMARK  9 active torsions:
REMARK  status: ('A' for Active; 'I' for Inactive)
REMARK    1  A    between atoms: C_4  and  C_5 
REMARK    2  A    between atoms: C_11  and  C_12 
REMARK    3  A    between atoms: C_15  and  C_16 
REMARK    4  A    between atoms: C_16  and  N_17 
REMARK    5  A    between atoms: N_17  and  C_18 
REMARK    6  A    between atoms: C_18  and  N_19 
REMARK    7  A    between atoms: N_19  and  C_20 
REMARK    8  A    between atoms: C_22  and  C_23 
REMARK    9  A    between atoms: C_23  and  O_24 
ROOT
HETATM    1  C   UNL     1      42.770 -13.190   5.475  1.00  0.00     0.067 C 
HETATM    2  C   UNL     1      41.273 -12.772   5.520  1.00  0.00     0.001 C 
HETATM    3  C   UNL     1      40.645 -12.807   4.109  1.00  0.00     0.040 C 
HETATM    4  C   UNL     1      41.327 -11.784   3.187  1.00  0.00     0.206 C 
HETATM    5  N   UNL     1      42.553 -11.238   3.928  1.00  0.00    -0.065 N 
HETATM    6  H   UNL     1      43.081 -10.636   3.280  1.00  0.00     0.280 HD
HETATM    7  C   UNL     1      43.493 -12.327   4.418  1.00  0.00     0.246 C 
HETATM    8  C   UNL     1      41.222 -11.306   6.007  1.00  0.00     0.033 C 
HETATM    9  C   UNL     1      42.084 -10.407   5.111  1.00  0.00     0.236 C 
ENDROOT
BRANCH   4  10
HETATM   10  C   UNL     1      41.663 -12.281   1.766  1.00  0.00     0.155 C 
BRANCH  10  11
HETATM   11  N   UNL     1      41.782 -13.729   1.631  1.00  0.00    -0.365 N 
HETATM   12  H   UNL     1      42.197 -14.228   2.410  1.00  0.00     0.161 HD
BRANCH  11  13
HETATM   13  C   UNL     1      40.968 -14.521   0.866  1.00  0.00     0.172 C 
HETATM   14  S   UNL     1      39.995 -15.727   1.484  1.00  0.00    -0.041 SA
BRANCH  13  15
HETATM   15  N   UNL     1      40.875 -14.195  -0.460  1.00  0.00    -0.333 N 
HETATM   16  H   UNL     1      41.772 -14.066  -0.921  1.00  0.00     0.168 HD
BRANCH  15  17
HETATM   17  C   UNL     1      39.736 -13.894  -1.244  1.00  0.00     0.035 A 
HETATM   18  C   UNL     1      39.042 -12.688  -1.147  1.00  0.00     0.047 A 
HETATM   19  C   UNL     1      37.882 -12.458  -1.896  1.00  0.00     0.041 A 
HETATM   20  C   UNL     1      37.446 -13.417  -2.809  1.00  0.00     0.018 A 
HETATM   21  C   UNL     1      38.176 -14.599  -2.964  1.00  0.00     0.003 A 
HETATM   22  C   UNL     1      39.317 -14.834  -2.188  1.00  0.00     0.029 A 
BRANCH  19  23
HETATM   23  C   UNL     1      37.152 -11.192  -1.635  1.00  0.00     0.293 C 
HETATM   24  O   UNL     1      37.209 -10.614  -0.559  1.00  0.00    -0.259 OA
BRANCH  23  25
HETATM   25  O   UNL     1      36.471 -10.793  -2.732  1.00  0.00    -0.323 OA
HETATM   26  C   UNL     1      37.092  -9.720  -3.444  1.00  0.00     0.213 C 
ENDBRANCH  23  25
ENDBRANCH  19  23
ENDBRANCH  15  17
ENDBRANCH  13  15
ENDBRANCH  11  13
ENDBRANCH  10  11
ENDBRANCH   4  10
BRANCH   1  27
HETATM   27  C   UNL     1      43.011 -14.665   5.291  1.00  0.00     0.038 A 
HETATM   28  N   UNL     1      43.083 -15.562   6.342  1.00  0.00    -0.277 N 
HETATM   29  C   UNL     1      42.932 -15.307   7.757  1.00  0.00     0.179 C 
HETATM   30  N   UNL     1      43.316 -16.822   5.956  1.00  0.00    -0.170 NA
HETATM   31  C   UNL     1      43.281 -16.778   4.622  1.00  0.00     0.112 A 
HETATM   32  C   UNL     1      43.114 -15.456   4.160  1.00  0.00     0.063 A 
BRANCH  31  33
HETATM   33  C   UNL     1      43.376 -17.993   3.765  1.00  0.00     0.105 A 
HETATM   34  O   UNL     1      43.921 -19.185   4.163  1.00  0.00    -0.320 OA
HETATM   35  C   UNL     1      43.867 -20.026   3.098  1.00  0.00     0.142 A 
HETATM   36  C   UNL     1      43.289 -19.404   2.018  1.00  0.00     0.027 A 
HETATM   37  C   UNL     1      42.965 -18.095   2.449  1.00  0.00     0.041 A 
ENDBRANCH  31  33
ENDBRANCH   1  27
TORSDOF 9
ENDMDL
MODEL 3
REMARK VINA RESULT:      -8.3      5.847      8.744
REMARK  9 active torsions:
REMARK  status: ('A' for Active; 'I' for Inactive)
REMARK    1  A    between atoms: C_4  and  C_5 
REMARK    2  A    between atoms: C_11  and  C_12 
REMARK    3  A    between atoms: C_15  and  C_16 
REMARK    4  A    between atoms: C_16  and  N_17 
REMARK    5  A    between atoms: N_17  and  C_18 
REMARK    6  A    between atoms: C_18  and  N_19 
REMARK    7  A    between atoms: N_19  and  C_20 
REMARK    8  A    between atoms: C_22  and  C_23 
REMARK    9  A    between atoms: C_23  and  O_24 
ROOT
HETATM    1  C   UNL     1      42.445 -13.812   3.937  1.00  0.00     0.067 C 
HETATM    2  C   UNL     1      40.925 -13.624   4.204  1.00  0.00     0.001 C 
HETATM    3  C   UNL     1      40.083 -14.192   3.039  1.00  0.00     0.040 C 
HETATM    4  C   UNL     1      40.367 -13.422   1.740  1.00  0.00     0.206 C 
HETATM    5  N   UNL     1      41.562 -12.499   2.001  1.00  0.00    -0.065 N 
HETATM    6  H   UNL     1      41.834 -12.061   1.109  1.00  0.00     0.280 HD
HETATM    7  C   UNL     1      42.779 -13.229   2.546  1.00  0.00     0.246 C 
HETATM    8  C   UNL     1      40.655 -12.103   4.264  1.00  0.00     0.033 C 
HETATM    9  C   UNL     1      41.143 -11.416   2.981  1.00  0.00     0.236 C 
ENDROOT
BRANCH   4  10
HETATM   10  C   UNL     1      40.547 -14.286   0.474  1.00  0.00     0.155 C 
BRANCH  10  11
HETATM   11  N   UNL     1      39.460 -14.195  -0.495  1.00  0.00    -0.365 N 
HETATM   12  H   UNL     1      38.594 -13.778  -0.172  1.00  0.00     0.161 HD
BRANCH  11  13
HETATM   13  C   UNL     1      39.616 -14.111  -1.852  1.00  0.00     0.172 C 
HETATM   14  S   UNL     1      38.639 -14.898  -2.952  1.00  0.00    -0.041 SA
BRANCH  13  15
HETATM   15  N   UNL     1      40.557 -13.223  -2.303  1.00  0.00    -0.333 N 
HETATM   16  H   UNL     1      41.464 -13.640  -2.494  1.00  0.00     0.168 HD
BRANCH  15  17
HETATM   17  C   UNL     1      40.492 -11.815  -2.423  1.00  0.00     0.035 A 
HETATM   18  C   UNL     1      41.361 -10.954  -1.752  1.00  0.00     0.047 A 
HETATM   19  C   UNL     1      41.221  -9.564  -1.850  1.00  0.00     0.041 A 
HETATM   20  C   UNL     1      40.245  -9.024  -2.686  1.00  0.00     0.018 A 
HETATM   21  C   UNL     1      39.416  -9.880  -3.417  1.00  0.00     0.003 A 
HETATM   22  C   UNL     1      39.543 -11.269  -3.288  1.00  0.00     0.029 A 
BRANCH  19  23
HETATM   23  C   UNL     1      42.119  -8.736  -1.006  1.00  0.00     0.293 C 
HETATM   24  O   UNL     1      43.314  -8.619  -1.242  1.00  0.00    -0.259 OA
BRANCH  23  25
HETATM   25  O   UNL     1      41.430  -8.144  -0.006  1.00  0.00    -0.323 OA
HETATM   26  C   UNL     1      41.488  -6.716  -0.024  1.00  0.00     0.213 C 
ENDBRANCH  23  25
ENDBRANCH  19  23
ENDBRANCH  15  17
ENDBRANCH  13  15
ENDBRANCH  11  13
ENDBRANCH  10  11
ENDBRANCH   4  10
BRANCH   1  27
HETATM   27  C   UNL     1      42.951 -15.218   4.119  1.00  0.00     0.038 A 
HETATM   28  N   UNL     1      43.503 -15.682   5.300  1.00  0.00    -0.277 N 
HETATM   29  C   UNL     1      43.686 -14.975   6.549  1.00  0.00     0.179 C 
HETATM   30  N   UNL     1      43.899 -16.959   5.241  1.00  0.00    -0.170 NA
HETATM   31  C   UNL     1      43.496 -17.382   4.041  1.00  0.00     0.112 A 
HETATM   32  C   UNL     1      42.919 -16.332   3.297  1.00  0.00     0.063 A 
BRANCH  31  33
HETATM   33  C   UNL     1      43.626 -18.797   3.591  1.00  0.00     0.105 A 
HETATM   34  O   UNL     1      43.982 -19.841   4.402  1.00  0.00    -0.320 OA
HETATM   35  C   UNL     1      44.037 -20.953   3.622  1.00  0.00     0.142 A 
HETATM   36  C   UNL     1      43.714 -20.649   2.322  1.00  0.00     0.027 A 
HETATM   37  C   UNL     1      43.443 -19.260   2.301  1.00  0.00     0.041 A 
ENDBRANCH  31  33
ENDBRANCH   1  27
TORSDOF 9
ENDMDL
MODEL 4
REMARK VINA RESULT:      -8.0      1.379      2.025
REMARK  9 active torsions:
REMARK  status: ('A' for Active; 'I' for Inactive)
REMARK    1  A    between atoms: C_4  and  C_5 
REMARK    2  A    between atoms: C_11  and  C_12 
REMARK    3  A    between atoms: C_15  and  C_16 
REMARK    4  A    between atoms: C_16  and  N_17 
REMARK    5  A    between atoms: N_17  and  C_18 
REMARK    6  A    between atoms: C_18  and  N_19 
REMARK    7  A    between atoms: N_19  and  C_20 
REMARK    8  A    between atoms: C_22  and  C_23 
REMARK    9  A    between atoms: C_23  and  O_24 
ROOT
HETATM    1  C   UNL     1      40.226 -13.363   4.315  1.00  0.00     0.067 C 
HETATM    2  C   UNL     1      40.849 -12.023   3.833  1.00  0.00     0.001 C 
HETATM    3  C   UNL     1      42.246 -11.805   4.457  1.00  0.00     0.040 C 
HETATM    4  C   UNL     1      42.143 -11.681   5.986  1.00  0.00     0.206 C 
HETATM    5  N   UNL     1      40.708 -12.044   6.384  1.00  0.00    -0.065 N 
HETATM    6  H   UNL     1      40.656 -12.074   7.412  1.00  0.00     0.280 HD
HETATM    7  C   UNL     1      40.263 -13.399   5.859  1.00  0.00     0.246 C 
HETATM    8  C   UNL     1      39.937 -10.883   4.345  1.00  0.00     0.033 C 
HETATM    9  C   UNL     1      39.767 -10.970   5.867  1.00  0.00     0.236 C 
ENDROOT
BRANCH   4  10
HETATM   10  C   UNL     1      43.201 -12.460   6.794  1.00  0.00     0.155 C 
BRANCH  10  11
HETATM   11  N   UNL     1      43.768 -11.735   7.927  1.00  0.00    -0.365 N 
HETATM   12  H   UNL     1      43.456 -12.013   8.850  1.00  0.00     0.161 HD
BRANCH  11  13
HETATM   13  C   UNL     1      44.996 -11.128   7.942  1.00  0.00     0.172 C 
HETATM   14  S   UNL     1      46.033 -11.095   6.636  1.00  0.00    -0.041 SA
BRANCH  13  15
HETATM   15  N   UNL     1      45.304 -10.407   9.064  1.00  0.00    -0.333 N 
HETATM   16  H   UNL     1      46.211 -10.632   9.466  1.00  0.00     0.168 HD
BRANCH  15  17
HETATM   17  C   UNL     1      44.514  -9.500   9.807  1.00  0.00     0.035 A 
HETATM   18  C   UNL     1      43.998  -8.321   9.268  1.00  0.00     0.047 A 
HETATM   19  C   UNL     1      43.274  -7.419  10.057  1.00  0.00     0.041 A 
HETATM   20  C   UNL     1      42.998  -7.731  11.387  1.00  0.00     0.018 A 
HETATM   21  C   UNL     1      43.451  -8.943  11.917  1.00  0.00     0.003 A 
HETATM   22  C   UNL     1      44.201  -9.824  11.129  1.00  0.00     0.029 A 
BRANCH  19  23
HETATM   23  C   UNL     1      42.869  -6.141   9.420  1.00  0.00     0.293 C 
HETATM   24  O   UNL     1      42.790  -5.094  10.047  1.00  0.00    -0.259 OA
BRANCH  23  25
HETATM   25  O   UNL     1      42.640  -6.312   8.099  1.00  0.00    -0.323 OA
HETATM   26  C   UNL     1      41.258  -6.262   7.737  1.00  0.00     0.213 C 
ENDBRANCH  23  25
ENDBRANCH  19  23
ENDBRANCH  15  17
ENDBRANCH  13  15
ENDBRANCH  11  13
ENDBRANCH  10  11
ENDBRANCH   4  10
BRANCH   1  27
HETATM   27  C   UNL     1      40.814 -14.598   3.686  1.00  0.00     0.038 A 
HETATM   28  N   UNL     1      40.669 -14.913   2.347  1.00  0.00    -0.277 N 
HETATM   29  C   UNL     1      39.985 -14.167   1.313  1.00  0.00     0.179 C 
HETATM   30  N   UNL     1      41.262 -16.062   2.000  1.00  0.00    -0.170 NA
HETATM   31  C   UNL     1      41.908 -16.454   3.099  1.00  0.00     0.112 A 
HETATM   32  C   UNL     1      41.645 -15.588   4.181  1.00  0.00     0.063 A 
BRANCH  31  33
HETATM   33  C   UNL     1      42.808 -17.641   3.134  1.00  0.00     0.105 A 
HETATM   34  O   UNL     1      43.738 -17.883   4.111  1.00  0.00    -0.320 OA
HETATM   35  C   UNL     1      44.387 -19.028   3.770  1.00  0.00     0.142 A 
HETATM   36  C   UNL     1      43.888 -19.536   2.596  1.00  0.00     0.027 A 
HETATM   37  C   UNL     1      42.866 -18.646   2.187  1.00  0.00     0.041 A 
ENDBRANCH  31  33
ENDBRANCH   1  27
TORSDOF 9
ENDMDL
MODEL 5
REMARK VINA RESULT:      -8.0      1.879      2.238
REMARK  9 active torsions:
REMARK  status: ('A' for Active; 'I' for Inactive)
REMARK    1  A    between atoms: C_4  and  C_5 
REMARK    2  A    between atoms: C_11  and  C_12 
REMARK    3  A    between atoms: C_15  and  C_16 
REMARK    4  A    between atoms: C_16  and  N_17 
REMARK    5  A    between atoms: N_17  and  C_18 
REMARK    6  A    between atoms: C_18  and  N_19 
REMARK    7  A    between atoms: N_19  and  C_20 
REMARK    8  A    between atoms: C_22  and  C_23 
REMARK    9  A    between atoms: C_23  and  O_24 
ROOT
HETATM    1  C   UNL     1      41.364 -12.626   3.649  1.00  0.00     0.067 C 
HETATM    2  C   UNL     1      42.390 -11.640   3.023  1.00  0.00     0.001 C 
HETATM    3  C   UNL     1      43.747 -11.710   3.760  1.00  0.00     0.040 C 
HETATM    4  C   UNL     1      43.592 -11.264   5.223  1.00  0.00     0.206 C 
HETATM    5  N   UNL     1      42.092 -11.119   5.506  1.00  0.00    -0.065 N 
HETATM    6  H   UNL     1      41.970 -10.930   6.511  1.00  0.00     0.280 HD
HETATM    7  C   UNL     1      41.294 -12.368   5.171  1.00  0.00     0.246 C 
HETATM    8  C   UNL     1      41.833 -10.212   3.224  1.00  0.00     0.033 C 
HETATM    9  C   UNL     1      41.551  -9.945   4.709  1.00  0.00     0.236 C 
ENDROOT
BRANCH   4  10
HETATM   10  C   UNL     1      44.314 -12.136   6.270  1.00  0.00     0.155 C 
BRANCH  10  11
HETATM   11  N   UNL     1      43.828 -11.987   7.638  1.00  0.00    -0.365 N 
HETATM   12  H   UNL     1      43.480 -12.824   8.093  1.00  0.00     0.161 HD
BRANCH  11  13
HETATM   13  C   UNL     1      44.249 -11.034   8.527  1.00  0.00     0.172 C 
HETATM   14  S   UNL     1      45.532 -10.006   8.250  1.00  0.00    -0.041 SA
BRANCH  13  15
HETATM   15  N   UNL     1      43.472 -10.856   9.640  1.00  0.00    -0.333 N 
HETATM   16  H   UNL     1      43.000 -11.700   9.957  1.00  0.00     0.168 HD
BRANCH  15  17
HETATM   17  C   UNL     1      43.135  -9.669  10.333  1.00  0.00     0.035 A 
HETATM   18  C   UNL     1      42.264  -8.709   9.817  1.00  0.00     0.047 A 
HETATM   19  C   UNL     1      42.008  -7.518  10.508  1.00  0.00     0.041 A 
HETATM   20  C   UNL     1      42.573  -7.313  11.766  1.00  0.00     0.018 A 
HETATM   21  C   UNL     1      43.391  -8.301  12.321  1.00  0.00     0.003 A 
HETATM   22  C   UNL     1      43.667  -9.475  11.609  1.00  0.00     0.029 A 
BRANCH  19  23
HETATM   23  C   UNL     1      41.160  -6.511   9.823  1.00  0.00     0.293 C 
HETATM   24  O   UNL     1      41.504  -5.965   8.784  1.00  0.00    -0.259 OA
BRANCH  23  25
HETATM   25  O   UNL     1      39.998  -6.326  10.488  1.00  0.00    -0.323 OA
HETATM   26  C   UNL     1      38.906  -7.093   9.976  1.00  0.00     0.213 C 
ENDBRANCH  23  25
ENDBRANCH  19  23
ENDBRANCH  15  17
ENDBRANCH  13  15
ENDBRANCH  11  13
ENDBRANCH  10  11
ENDBRANCH   4  10
BRANCH   1  27
HETATM   27  C   UNL     1      41.591 -14.076   3.312  1.00  0.00     0.038 A 
HETATM   28  N   UNL     1      40.990 -14.712   2.241  1.00  0.00    -0.277 N 
HETATM   29  C   UNL     1      40.085 -14.160   1.256  1.00  0.00     0.179 C 
HETATM   30  N   UNL     1      41.321 -16.004   2.130  1.00  0.00    -0.170 NA
HETATM   31  C   UNL     1      42.246 -16.197   3.071  1.00  0.00     0.112 A 
HETATM   32  C   UNL     1      42.435 -15.034   3.847  1.00  0.00     0.063 A 
BRANCH  31  33
HETATM   33  C   UNL     1      42.987 -17.480   3.233  1.00  0.00     0.105 A 
HETATM   34  O   UNL     1      43.725 -17.818   4.336  1.00  0.00    -0.320 OA
HETATM   35  C   UNL     1      44.280 -19.034   4.090  1.00  0.00     0.142 A 
HETATM   36  C   UNL     1      43.908 -19.493   2.850  1.00  0.00     0.027 A 
HETATM   37  C   UNL     1      43.068 -18.495   2.299  1.00  0.00     0.041 A 
ENDBRANCH  31  33
ENDBRANCH   1  27
TORSDOF 9
ENDMDL
MODEL 6
REMARK VINA RESULT:      -7.8      5.969      8.394
REMARK  9 active torsions:
REMARK  status: ('A' for Active; 'I' for Inactive)
REMARK    1  A    between atoms: C_4  and  C_5 
REMARK    2  A    between atoms: C_11  and  C_12 
REMARK    3  A    between atoms: C_15  and  C_16 
REMARK    4  A    between atoms: C_16  and  N_17 
REMARK    5  A    between atoms: N_17  and  C_18 
REMARK    6  A    between atoms: C_18  and  N_19 
REMARK    7  A    between atoms: N_19  and  C_20 
REMARK    8  A    between atoms: C_22  and  C_23 
REMARK    9  A    between atoms: C_23  and  O_24 
ROOT
HETATM    1  C   UNL     1      42.127 -13.758   3.335  1.00  0.00     0.067 C 
HETATM    2  C   UNL     1      40.613 -13.590   3.643  1.00  0.00     0.001 C 
HETATM    3  C   UNL     1      39.748 -14.295   2.574  1.00  0.00     0.040 C 
HETATM    4  C   UNL     1      39.957 -13.648   1.196  1.00  0.00     0.206 C 
HETATM    5  N   UNL     1      41.130 -12.669   1.318  1.00  0.00    -0.065 N 
HETATM    6  H   UNL     1      41.353 -12.313   0.377  1.00  0.00     0.280 HD
HETATM    7  C   UNL     1      42.389 -13.305   1.881  1.00  0.00     0.246 C 
HETATM    8  C   UNL     1      40.295 -12.079   3.565  1.00  0.00     0.033 C 
HETATM    9  C   UNL     1      40.712 -11.508   2.204  1.00  0.00     0.236 C 
ENDROOT
BRANCH   4  10
HETATM   10  C   UNL     1      40.119 -14.627   0.014  1.00  0.00     0.155 C 
BRANCH  10  11
HETATM   11  N   UNL     1      40.665 -14.037  -1.204  1.00  0.00    -0.365 N 
HETATM   12  H   UNL     1      41.592 -14.338  -1.482  1.00  0.00     0.161 HD
BRANCH  11  13
HETATM   13  C   UNL     1      39.923 -13.563  -2.253  1.00  0.00     0.172 C 
HETATM   14  S   UNL     1      38.689 -14.417  -2.981  1.00  0.00    -0.041 SA
BRANCH  13  15
HETATM   15  N   UNL     1      40.148 -12.262  -2.618  1.00  0.00    -0.333 N 
HETATM   16  H   UNL     1      40.374 -12.140  -3.602  1.00  0.00     0.168 HD
BRANCH  15  17
HETATM   17  C   UNL     1      40.231 -11.097  -1.821  1.00  0.00     0.035 A 
HETATM   18  C   UNL     1      39.133 -10.548  -1.158  1.00  0.00     0.047 A 
HETATM   19  C   UNL     1      39.247  -9.356  -0.432  1.00  0.00     0.041 A 
HETATM   20  C   UNL     1      40.491  -8.740  -0.304  1.00  0.00     0.018 A 
HETATM   21  C   UNL     1      41.611  -9.322  -0.906  1.00  0.00     0.003 A 
HETATM   22  C   UNL     1      41.481 -10.497  -1.657  1.00  0.00     0.029 A 
BRANCH  19  23
HETATM   23  C   UNL     1      37.998  -8.792   0.138  1.00  0.00     0.293 C 
HETATM   24  O   UNL     1      37.664  -7.629  -0.042  1.00  0.00    -0.259 OA
BRANCH  23  25
HETATM   25  O   UNL     1      37.316  -9.732   0.828  1.00  0.00    -0.323 OA
HETATM   26  C   UNL     1      35.921  -9.784   0.520  1.00  0.00     0.213 C 
ENDBRANCH  23  25
ENDBRANCH  19  23
ENDBRANCH  15  17
ENDBRANCH  13  15
ENDBRANCH  11  13
ENDBRANCH  10  11
ENDBRANCH   4  10
BRANCH   1  27
HETATM   27  C   UNL     1      42.687 -15.124   3.632  1.00  0.00     0.038 A 
HETATM   28  N   UNL     1      43.232 -15.473   4.854  1.00  0.00    -0.277 N 
HETATM   29  C   UNL     1      43.360 -14.668   6.049  1.00  0.00     0.179 C 
HETATM   30  N   UNL     1      43.682 -16.733   4.900  1.00  0.00    -0.170 NA
HETATM   31  C   UNL     1      43.322 -17.263   3.728  1.00  0.00     0.112 A 
HETATM   32  C   UNL     1      42.718 -16.296   2.897  1.00  0.00     0.063 A 
BRANCH  31  33
HETATM   33  C   UNL     1      43.520 -18.700   3.390  1.00  0.00     0.105 A 
HETATM   34  O   UNL     1      43.925 -19.660   4.278  1.00  0.00    -0.320 OA
HETATM   35  C   UNL     1      44.033 -20.825   3.587  1.00  0.00     0.142 A 
HETATM   36  C   UNL     1      43.696 -20.639   2.269  1.00  0.00     0.027 A 
HETATM   37  C   UNL     1      43.358 -19.270   2.141  1.00  0.00     0.041 A 
ENDBRANCH  31  33
ENDBRANCH   1  27
TORSDOF 9
ENDMDL
MODEL 7
REMARK VINA RESULT:      -7.8      4.109      9.333
REMARK  9 active torsions:
REMARK  status: ('A' for Active; 'I' for Inactive)
REMARK    1  A    between atoms: C_4  and  C_5 
REMARK    2  A    between atoms: C_11  and  C_12 
REMARK    3  A    between atoms: C_15  and  C_16 
REMARK    4  A    between atoms: C_16  and  N_17 
REMARK    5  A    between atoms: N_17  and  C_18 
REMARK    6  A    between atoms: C_18  and  N_19 
REMARK    7  A    between atoms: N_19  and  C_20 
REMARK    8  A    between atoms: C_22  and  C_23 
REMARK    9  A    between atoms: C_23  and  O_24 
ROOT
HETATM    1  C   UNL     1      42.090 -15.159   3.902  1.00  0.00     0.067 C 
HETATM    2  C   UNL     1      42.638 -14.772   2.500  1.00  0.00     0.001 C 
HETATM    3  C   UNL     1      42.205 -13.340   2.111  1.00  0.00     0.040 C 
HETATM    4  C   UNL     1      40.675 -13.251   1.990  1.00  0.00     0.206 C 
HETATM    5  N   UNL     1      40.092 -14.566   2.521  1.00  0.00    -0.065 N 
HETATM    6  H   UNL     1      39.066 -14.476   2.550  1.00  0.00     0.280 HD
HETATM    7  C   UNL     1      40.565 -14.910   3.924  1.00  0.00     0.246 C 
HETATM    8  C   UNL     1      41.998 -15.737   1.476  1.00  0.00     0.033 C 
HETATM    9  C   UNL     1      40.467 -15.691   1.572  1.00  0.00     0.236 C 
ENDROOT
BRANCH   4  10
HETATM   10  C   UNL     1      40.023 -12.009   2.630  1.00  0.00     0.155 C 
BRANCH  10  11
HETATM   11  N   UNL     1      40.922 -10.879   2.839  1.00  0.00    -0.365 N 
HETATM   12  H   UNL     1      41.821 -11.082   3.263  1.00  0.00     0.161 HD
BRANCH  11  13
HETATM   13  C   UNL     1      40.934  -9.730   2.094  1.00  0.00     0.172 C 
HETATM   14  S   UNL     1      40.162  -8.322   2.544  1.00  0.00    -0.041 SA
BRANCH  13  15
HETATM   15  N   UNL     1      41.739  -9.731   0.987  1.00  0.00    -0.333 N 
HETATM   16  H   UNL     1      42.693  -9.426   1.166  1.00  0.00     0.168 HD
BRANCH  15  17
HETATM   17  C   UNL     1      41.419  -9.972  -0.370  1.00  0.00     0.035 A 
HETATM   18  C   UNL     1      40.916 -11.190  -0.828  1.00  0.00     0.047 A 
HETATM   19  C   UNL     1      40.672 -11.407  -2.190  1.00  0.00     0.041 A 
HETATM   20  C   UNL     1      40.866 -10.369  -3.101  1.00  0.00     0.018 A 
HETATM   21  C   UNL     1      41.302  -9.123  -2.641  1.00  0.00     0.003 A 
HETATM   22  C   UNL     1      41.573  -8.926  -1.281  1.00  0.00     0.029 A 
BRANCH  19  23
HETATM   23  C   UNL     1      40.250 -12.773  -2.590  1.00  0.00     0.293 C 
HETATM   24  O   UNL     1      40.827 -13.406  -3.463  1.00  0.00    -0.259 OA
BRANCH  23  25
HETATM   25  O   UNL     1      39.197 -13.187  -1.851  1.00  0.00    -0.323 OA
HETATM   26  C   UNL     1      38.161 -13.811  -2.613  1.00  0.00     0.213 C 
ENDBRANCH  23  25
ENDBRANCH  19  23
ENDBRANCH  15  17
ENDBRANCH  13  15
ENDBRANCH  11  13
ENDBRANCH  10  11
ENDBRANCH   4  10
BRANCH   1  27
HETATM   27  C   UNL     1      42.804 -14.516   5.062  1.00  0.00     0.038 A 
HETATM   28  N   UNL     1      43.279 -15.224   6.150  1.00  0.00    -0.277 N 
HETATM   29  C   UNL     1      43.221 -16.649   6.395  1.00  0.00     0.179 C 
HETATM   30  N   UNL     1      43.872 -14.456   7.072  1.00  0.00    -0.170 NA
HETATM   31  C   UNL     1      43.893 -13.236   6.532  1.00  0.00     0.112 A 
HETATM   32  C   UNL     1      43.223 -13.216   5.290  1.00  0.00     0.063 A 
BRANCH  31  33
HETATM   33  C   UNL     1      44.574 -12.074   7.170  1.00  0.00     0.105 A 
HETATM   34  O   UNL     1      44.235 -11.548   8.388  1.00  0.00    -0.320 OA
HETATM   35  C   UNL     1      45.047 -10.480   8.603  1.00  0.00     0.142 A 
HETATM   36  C   UNL     1      45.913 -10.310   7.549  1.00  0.00     0.027 A 
HETATM   37  C   UNL     1      45.613 -11.342   6.627  1.00  0.00     0.041 A 
ENDBRANCH  31  33
ENDBRANCH   1  27
TORSDOF 9
ENDMDL
MODEL 8
REMARK VINA RESULT:      -7.7     18.227     20.595
REMARK  9 active torsions:
REMARK  status: ('A' for Active; 'I' for Inactive)
REMARK    1  A    between atoms: C_4  and  C_5 
REMARK    2  A    between atoms: C_11  and  C_12 
REMARK    3  A    between atoms: C_15  and  C_16 
REMARK    4  A    between atoms: C_16  and  N_17 
REMARK    5  A    between atoms: N_17  and  C_18 
REMARK    6  A    between atoms: C_18  and  N_19 
REMARK    7  A    between atoms: N_19  and  C_20 
REMARK    8  A    between atoms: C_22  and  C_23 
REMARK    9  A    between atoms: C_23  and  O_24 
ROOT
HETATM    1  C   UNL     1      42.996 -33.107   1.078  1.00  0.00     0.067 C 
HETATM    2  C   UNL     1      41.569 -32.633   1.471  1.00  0.00     0.001 C 
HETATM    3  C   UNL     1      41.481 -31.090   1.485  1.00  0.00     0.040 C 
HETATM    4  C   UNL     1      42.416 -30.503   2.555  1.00  0.00     0.206 C 
HETATM    5  N   UNL     1      43.285 -31.648   3.088  1.00  0.00    -0.065 N 
HETATM    6  H   UNL     1      43.991 -31.250   3.723  1.00  0.00     0.280 HD
HETATM    7  C   UNL     1      44.022 -32.403   1.994  1.00  0.00     0.246 C 
HETATM    8  C   UNL     1      41.308 -33.118   2.916  1.00  0.00     0.033 C 
HETATM    9  C   UNL     1      42.405 -32.615   3.863  1.00  0.00     0.236 C 
ENDROOT
BRANCH   4  10
HETATM   10  C   UNL     1      43.246 -29.278   2.121  1.00  0.00     0.155 C 
BRANCH  10  11
HETATM   11  N   UNL     1      44.345 -28.929   3.017  1.00  0.00    -0.365 N 
HETATM   12  H   UNL     1      44.170 -29.019   4.011  1.00  0.00     0.161 HD
BRANCH  11  13
HETATM   13  C   UNL     1      45.675 -29.006   2.702  1.00  0.00     0.172 C 
HETATM   14  S   UNL     1      46.709 -30.167   3.307  1.00  0.00    -0.041 SA
BRANCH  13  15
HETATM   15  N   UNL     1      46.122 -28.146   1.735  1.00  0.00    -0.333 N 
HETATM   16  H   UNL     1      45.932 -27.166   1.930  1.00  0.00     0.168 HD
BRANCH  15  17
HETATM   17  C   UNL     1      46.690 -28.418   0.468  1.00  0.00     0.035 A 
HETATM   18  C   UNL     1      47.928 -29.040   0.307  1.00  0.00     0.047 A 
HETATM   19  C   UNL     1      48.482 -29.233  -0.964  1.00  0.00     0.041 A 
HETATM   20  C   UNL     1      47.758 -28.864  -2.097  1.00  0.00     0.018 A 
HETATM   21  C   UNL     1      46.486 -28.305  -1.948  1.00  0.00     0.003 A 
HETATM   22  C   UNL     1      45.953 -28.087  -0.671  1.00  0.00     0.029 A 
BRANCH  19  23
HETATM   23  C   UNL     1      49.854 -29.797  -1.023  1.00  0.00     0.293 C 
HETATM   24  O   UNL     1      50.546 -29.937  -0.025  1.00  0.00    -0.259 OA
BRANCH  23  25
HETATM   25  O   UNL     1      50.182 -30.135  -2.290  1.00  0.00    -0.323 OA
HETATM   26  C   UNL     1      50.989 -31.311  -2.388  1.00  0.00     0.213 C 
ENDBRANCH  23  25
ENDBRANCH  19  23
ENDBRANCH  15  17
ENDBRANCH  13  15
ENDBRANCH  11  13
ENDBRANCH  10  11
ENDBRANCH   4  10
BRANCH   1  27
HETATM   27  C   UNL     1      43.328 -32.972  -0.385  1.00  0.00     0.038 A 
HETATM   28  N   UNL     1      42.981 -33.915  -1.335  1.00  0.00    -0.277 N 
HETATM   29  C   UNL     1      42.250 -35.150  -1.154  1.00  0.00     0.179 C 
HETATM   30  N   UNL     1      43.383 -33.602  -2.572  1.00  0.00    -0.170 NA
HETATM   31  C   UNL     1      43.902 -32.378  -2.460  1.00  0.00     0.112 A 
HETATM   32  C   UNL     1      43.910 -31.950  -1.115  1.00  0.00     0.063 A 
BRANCH  31  33
HETATM   33  C   UNL     1      44.374 -31.583  -3.628  1.00  0.00     0.105 A 
HETATM   34  O   UNL     1      45.204 -32.058  -4.608  1.00  0.00    -0.320 OA
HETATM   35  C   UNL     1      45.441 -31.031  -5.465  1.00  0.00     0.142 A 
HETATM   36  C   UNL     1      44.771 -29.901  -5.064  1.00  0.00     0.027 A 
HETATM   37  C   UNL     1      44.077 -30.257  -3.882  1.00  0.00     0.041 A 
ENDBRANCH  31  33
ENDBRANCH   1  27
TORSDOF 9
ENDMDL
MODEL 9
REMARK VINA RESULT:      -7.7      4.315      6.774
REMARK  9 active torsions:
REMARK  status: ('A' for Active; 'I' for Inactive)
REMARK    1  A    between atoms: C_4  and  C_5 
REMARK    2  A    between atoms: C_11  and  C_12 
REMARK    3  A    between atoms: C_15  and  C_16 
REMARK    4  A    between atoms: C_16  and  N_17 
REMARK    5  A    between atoms: N_17  and  C_18 
REMARK    6  A    between atoms: C_18  and  N_19 
REMARK    7  A    between atoms: N_19  and  C_20 
REMARK    8  A    between atoms: C_22  and  C_23 
REMARK    9  A    between atoms: C_23  and  O_24 
ROOT
HETATM    1  C   UNL     1      38.589  -9.653   4.449  1.00  0.00     0.067 C 
HETATM    2  C   UNL     1      39.382  -8.371   4.070  1.00  0.00     0.001 C 
HETATM    3  C   UNL     1      40.860  -8.483   4.509  1.00  0.00     0.040 C 
HETATM    4  C   UNL     1      40.964  -8.589   6.039  1.00  0.00     0.206 C 
HETATM    5  N   UNL     1      39.544  -8.777   6.587  1.00  0.00    -0.065 N 
HETATM    6  H   UNL     1      39.610  -8.962   7.598  1.00  0.00     0.280 HD
HETATM    7  C   UNL     1      38.803  -9.942   5.951  1.00  0.00     0.246 C 
HETATM    8  C   UNL     1      38.758  -7.197   4.859  1.00  0.00     0.033 C 
HETATM    9  C   UNL     1      38.757  -7.497   6.364  1.00  0.00     0.236 C 
ENDROOT
BRANCH   4  10
HETATM   10  C   UNL     1      41.952  -9.647   6.571  1.00  0.00     0.155 C 
BRANCH  10  11
HETATM   11  N   UNL     1      42.477 -10.563   5.564  1.00  0.00    -0.365 N 
HETATM   12  H   UNL     1      42.658 -10.176   4.644  1.00  0.00     0.161 HD
BRANCH  11  13
HETATM   13  C   UNL     1      43.220 -11.683   5.825  1.00  0.00     0.172 C 
HETATM   14  S   UNL     1      44.215 -11.851   7.152  1.00  0.00    -0.041 SA
BRANCH  13  15
HETATM   15  N   UNL     1      43.013 -12.756   4.999  1.00  0.00    -0.333 N 
HETATM   16  H   UNL     1      43.169 -12.558   4.014  1.00  0.00     0.168 HD
BRANCH  15  17
HETATM   17  C   UNL     1      42.506 -14.044   5.292  1.00  0.00     0.035 A 
HETATM   18  C   UNL     1      43.200 -15.219   5.003  1.00  0.00     0.047 A 
HETATM   19  C   UNL     1      42.633 -16.475   5.252  1.00  0.00     0.041 A 
HETATM   20  C   UNL     1      41.383 -16.561   5.862  1.00  0.00     0.018 A 
HETATM   21  C   UNL     1      40.710 -15.388   6.219  1.00  0.00     0.003 A 
HETATM   22  C   UNL     1      41.272 -14.136   5.938  1.00  0.00     0.029 A 
BRANCH  19  23
HETATM   23  C   UNL     1      43.403 -17.662   4.802  1.00  0.00     0.293 C 
HETATM   24  O   UNL     1      43.629 -18.612   5.539  1.00  0.00    -0.259 OA
BRANCH  23  25
HETATM   25  O   UNL     1      43.769 -17.537   3.508  1.00  0.00    -0.323 OA
HETATM   26  C   UNL     1      43.602 -18.729   2.737  1.00  0.00     0.213 C 
ENDBRANCH  23  25
ENDBRANCH  19  23
ENDBRANCH  15  17
ENDBRANCH  13  15
ENDBRANCH  11  13
ENDBRANCH  10  11
ENDBRANCH   4  10
BRANCH   1  27
HETATM   27  C   UNL     1      38.866 -10.850   3.578  1.00  0.00     0.038 A 
HETATM   28  N   UNL     1      38.383 -10.982   2.289  1.00  0.00    -0.277 N 
HETATM   29  C   UNL     1      37.575 -10.053   1.529  1.00  0.00     0.179 C 
HETATM   30  N   UNL     1      38.738 -12.129   1.698  1.00  0.00    -0.170 NA
HETATM   31  C   UNL     1      39.567 -12.713   2.565  1.00  0.00     0.112 A 
HETATM   32  C   UNL     1      39.663 -11.967   3.759  1.00  0.00     0.063 A 
BRANCH  31  33
HETATM   33  C   UNL     1      40.302 -13.974   2.266  1.00  0.00     0.105 A 
HETATM   34  O   UNL     1      41.532 -14.033   1.666  1.00  0.00    -0.320 OA
HETATM   35  C   UNL     1      41.845 -15.348   1.524  1.00  0.00     0.142 A 
HETATM   36  C   UNL     1      40.844 -16.141   2.030  1.00  0.00     0.027 A 
HETATM   37  C   UNL     1      39.851 -15.257   2.514  1.00  0.00     0.041 A 
ENDBRANCH  31  33
ENDBRANCH   1  27
TORSDOF 9
ENDMDL
MODEL 10
REMARK VINA RESULT:      -7.6      5.550      9.802
REMARK  9 active torsions:
REMARK  status: ('A' for Active; 'I' for Inactive)
REMARK    1  A    between atoms: C_4  and  C_5 
REMARK    2  A    between atoms: C_11  and  C_12 
REMARK    3  A    between atoms: C_15  and  C_16 
REMARK    4  A    between atoms: C_16  and  N_17 
REMARK    5  A    between atoms: N_17  and  C_18 
REMARK    6  A    between atoms: C_18  and  N_19 
REMARK    7  A    between atoms: N_19  and  C_20 
REMARK    8  A    between atoms: C_22  and  C_23 
REMARK    9  A    between atoms: C_23  and  O_24 
ROOT
HETATM    1  C   UNL     1      39.417 -11.851  -3.139  1.00  0.00     0.067 C 
HETATM    2  C   UNL     1      38.187 -12.078  -2.215  1.00  0.00     0.001 C 
HETATM    3  C   UNL     1      38.622 -12.227  -0.740  1.00  0.00     0.040 C 
HETATM    4  C   UNL     1      39.505 -13.472  -0.558  1.00  0.00     0.206 C 
HETATM    5  N   UNL     1      39.836 -14.012  -1.954  1.00  0.00    -0.065 N 
HETATM    6  H   UNL     1      40.518 -14.777  -1.851  1.00  0.00     0.280 HD
HETATM    7  C   UNL     1      40.450 -12.968  -2.873  1.00  0.00     0.246 C 
HETATM    8  C   UNL     1      37.539 -13.417  -2.638  1.00  0.00     0.033 C 
HETATM    9  C   UNL     1      38.566 -14.556  -2.586  1.00  0.00     0.236 C 
ENDROOT
BRANCH   4  10
HETATM   10  C   UNL     1      40.759 -13.281   0.320  1.00  0.00     0.155 C 
BRANCH  10  11
HETATM   11  N   UNL     1      41.612 -14.459   0.440  1.00  0.00    -0.365 N 
HETATM   12  H   UNL     1      42.108 -14.752  -0.394  1.00  0.00     0.161 HD
BRANCH  11  13
HETATM   13  C   UNL     1      42.218 -14.882   1.593  1.00  0.00     0.172 C 
HETATM   14  S   UNL     1      43.018 -13.868   2.649  1.00  0.00    -0.041 SA
BRANCH  13  15
HETATM   15  N   UNL     1      42.028 -16.194   1.934  1.00  0.00    -0.333 N 
HETATM   16  H   UNL     1      41.238 -16.634   1.469  1.00  0.00     0.168 HD
BRANCH  15  17
HETATM   17  C   UNL     1      42.680 -16.983   2.911  1.00  0.00     0.035 A 
HETATM   18  C   UNL     1      42.519 -16.782   4.282  1.00  0.00     0.047 A 
HETATM   19  C   UNL     1      43.233 -17.544   5.215  1.00  0.00     0.041 A 
HETATM   20  C   UNL     1      44.067 -18.571   4.775  1.00  0.00     0.018 A 
HETATM   21  C   UNL     1      44.179 -18.826   3.405  1.00  0.00     0.003 A 
HETATM   22  C   UNL     1      43.485 -18.038   2.479  1.00  0.00     0.029 A 
BRANCH  19  23
HETATM   23  C   UNL     1      43.081 -17.175   6.645  1.00  0.00     0.293 C 
HETATM   24  O   UNL     1      43.595 -17.824   7.545  1.00  0.00    -0.259 OA
BRANCH  23  25
HETATM   25  O   UNL     1      42.344 -16.051   6.776  1.00  0.00    -0.323 OA
HETATM   26  C   UNL     1      42.956 -15.045   7.586  1.00  0.00     0.213 C 
ENDBRANCH  23  25
ENDBRANCH  19  23
ENDBRANCH  15  17
ENDBRANCH  13  15
ENDBRANCH  11  13
ENDBRANCH  10  11
ENDBRANCH   4  10
BRANCH   1  27
HETATM   27  C   UNL     1      40.016 -10.471  -3.069  1.00  0.00     0.038 A 
HETATM   28  N   UNL     1      39.470  -9.371  -3.704  1.00  0.00    -0.277 N 
HETATM   29  C   UNL     1      38.269  -9.296  -4.507  1.00  0.00     0.179 C 
HETATM   30  N   UNL     1      40.168  -8.244  -3.519  1.00  0.00    -0.170 NA
HETATM   31  C   UNL     1      41.126  -8.579  -2.652  1.00  0.00     0.112 A 
HETATM   32  C   UNL     1      41.087  -9.958  -2.357  1.00  0.00     0.063 A 
BRANCH  31  33
HETATM   33  C   UNL     1      42.077  -7.592  -2.069  1.00  0.00     0.105 A 
HETATM   34  O   UNL     1      43.128  -7.030  -2.744  1.00  0.00    -0.320 OA
HETATM   35  C   UNL     1      43.782  -6.223  -1.869  1.00  0.00     0.142 A 
HETATM   36  C   UNL     1      43.170  -6.246  -0.639  1.00  0.00     0.027 A 
HETATM   37  C   UNL     1      42.066  -7.123  -0.768  1.00  0.00     0.041 A 
ENDBRANCH  31  33
ENDBRANCH   1  27
TORSDOF 9
ENDMDL
