MODEL 1
REMARK VINA RESULT:      -8.7      0.000      0.000
REMARK  5 active torsions:
REMARK  status: ('A' for Active; 'I' for Inactive)
REMARK    1  A    between atoms: C_4  and  N_5 
REMARK    2  A    between atoms: N_5  and  N_6 
REMARK       I    between atoms: N_6  and  C_7 
REMARK    3  A    between atoms: C_7  and  C_8 
REMARK    4  A    between atoms: C_12  and  C_13 
REMARK    5  A    between atoms: C_13  and  C_14 
ROOT
HETATM    1  C   UNL     1      43.836 -12.722   6.325  1.00  0.00     0.102 A 
HETATM    2  N   UNL     1      43.537 -12.425   5.014  1.00  0.00    -0.360 N 
HETATM    3  H   UNL     1      43.834 -11.573   4.552  1.00  0.00     0.165 HD
HETATM    4  C   UNL     1      42.810 -13.440   4.448  1.00  0.00     0.104 A 
HETATM    5  C   UNL     1      42.608 -14.419   5.404  1.00  0.00     0.033 A 
HETATM    6  C   UNL     1      43.241 -13.943   6.593  1.00  0.00     0.052 A 
ENDROOT
BRANCH   1   7
HETATM    7  C   UNL     1      44.630 -11.832   7.145  1.00  0.00     0.282 C 
HETATM    8  N   UNL     1      44.048 -11.464   8.346  1.00  0.00    -0.281 N 
HETATM    9  H   UNL     1      43.245 -11.957   8.719  1.00  0.00     0.184 HD
HETATM   10  O   UNL     1      45.748 -11.445   6.809  1.00  0.00    -0.265 OA
BRANCH   8  11
HETATM   11  N   UNL     1      44.861 -10.827   9.306  1.00  0.00    -0.203 NA
HETATM   12  H   UNL     1      45.473 -10.143   8.838  1.00  0.00     0.153 HD
BRANCH  11  13
HETATM   13  C   UNL     1      44.120 -10.152  10.311  1.00  0.00     0.027 A 
HETATM   14  C   UNL     1      43.658 -10.903  11.400  1.00  0.00     0.025 A 
HETATM   15  C   UNL     1      42.967 -10.297  12.451  1.00  0.00     0.002 A 
HETATM   16  C   UNL     1      42.752  -8.922  12.439  1.00  0.00     0.000 A 
HETATM   17  C   UNL     1      43.237  -8.154  11.382  1.00  0.00     0.002 A 
HETATM   18  C   UNL     1      43.925  -8.764  10.330  1.00  0.00     0.025 A 
ENDBRANCH  11  13
ENDBRANCH   8  11
ENDBRANCH   1   7
BRANCH   5  19
HETATM   19  C   UNL     1      41.895 -15.686   5.267  1.00  0.00     0.195 C 
HETATM   20  O   UNL     1      40.876 -15.940   5.901  1.00  0.00    -0.287 OA
BRANCH  19  21
HETATM   21  C   UNL     1      42.462 -16.733   4.397  1.00  0.00     0.037 A 
HETATM   22  C   UNL     1      41.998 -16.922   3.091  1.00  0.00     0.049 A 
HETATM   23 CL   UNL     1      40.825 -15.885   2.367  1.00  0.00    -0.083 Cl
HETATM   24  C   UNL     1      42.516 -17.965   2.317  1.00  0.00     0.048 A 
HETATM   25  C   UNL     1      43.488 -18.810   2.853  1.00  0.00     0.035 A 
HETATM   26 CL   UNL     1      44.120 -20.094   1.900  1.00  0.00    -0.084 Cl
HETATM   27  C   UNL     1      43.952 -18.626   4.156  1.00  0.00     0.025 A 
HETATM   28  C   UNL     1      43.436 -17.589   4.934  1.00  0.00     0.019 A 
ENDBRANCH  19  21
ENDBRANCH   5  19
TORSDOF 5
ENDMDL
MODEL 2
REMARK VINA RESULT:      -8.5      1.097      1.464
REMARK  5 active torsions:
REMARK  status: ('A' for Active; 'I' for Inactive)
REMARK    1  A    between atoms: C_4  and  N_5 
REMARK    2  A    between atoms: N_5  and  N_6 
REMARK       I    between atoms: N_6  and  C_7 
REMARK    3  A    between atoms: C_7  and  C_8 
REMARK    4  A    between atoms: C_12  and  C_13 
REMARK    5  A    between atoms: C_13  and  C_14 
ROOT
HETATM    1  C   UNL     1      43.767 -12.680   6.337  1.00  0.00     0.102 A 
HETATM    2  N   UNL     1      43.498 -12.368   5.023  1.00  0.00    -0.360 N 
HETATM    3  H   UNL     1      43.837 -11.529   4.566  1.00  0.00     0.165 HD
HETATM    4  C   UNL     1      42.735 -13.350   4.446  1.00  0.00     0.104 A 
HETATM    5  C   UNL     1      42.478 -14.320   5.398  1.00  0.00     0.033 A 
HETATM    6  C   UNL     1      43.115 -13.874   6.595  1.00  0.00     0.052 A 
ENDROOT
BRANCH   1   7
HETATM    7  C   UNL     1      44.588 -11.826   7.168  1.00  0.00     0.282 C 
HETATM    8  N   UNL     1      43.999 -11.416   8.352  1.00  0.00    -0.281 N 
HETATM    9  H   UNL     1      43.163 -11.863   8.711  1.00  0.00     0.184 HD
HETATM   10  O   UNL     1      45.733 -11.502   6.856  1.00  0.00    -0.265 OA
BRANCH   8  11
HETATM   11  N   UNL     1      44.823 -10.816   9.327  1.00  0.00    -0.203 NA
HETATM   12  H   UNL     1      45.454 -10.138   8.873  1.00  0.00     0.153 HD
BRANCH  11  13
HETATM   13  C   UNL     1      44.093 -10.140  10.340  1.00  0.00     0.027 A 
HETATM   14  C   UNL     1      43.633 -10.894  11.428  1.00  0.00     0.025 A 
HETATM   15  C   UNL     1      42.953 -10.288  12.486  1.00  0.00     0.002 A 
HETATM   16  C   UNL     1      42.749  -8.911  12.483  1.00  0.00     0.000 A 
HETATM   17  C   UNL     1      43.233  -8.141  11.427  1.00  0.00     0.002 A 
HETATM   18  C   UNL     1      43.910  -8.750  10.367  1.00  0.00     0.025 A 
ENDBRANCH  11  13
ENDBRANCH   8  11
ENDBRANCH   1   7
BRANCH   5  19
HETATM   19  C   UNL     1      41.712 -15.555   5.249  1.00  0.00     0.195 C 
HETATM   20  O   UNL     1      40.627 -15.725   5.794  1.00  0.00    -0.287 OA
BRANCH  19  21
HETATM   21  C   UNL     1      42.298 -16.670   4.483  1.00  0.00     0.037 A 
HETATM   22  C   UNL     1      43.224 -17.543   5.064  1.00  0.00     0.049 A 
HETATM   23 CL   UNL     1      43.658 -17.455   6.731  1.00  0.00    -0.083 Cl
HETATM   24  C   UNL     1      43.806 -18.551   4.289  1.00  0.00     0.048 A 
HETATM   25  C   UNL     1      43.461 -18.677   2.944  1.00  0.00     0.035 A 
HETATM   26 CL   UNL     1      44.181 -19.916   1.991  1.00  0.00    -0.084 Cl
HETATM   27  C   UNL     1      42.539 -17.807   2.360  1.00  0.00     0.025 A 
HETATM   28  C   UNL     1      41.959 -16.798   3.128  1.00  0.00     0.019 A 
ENDBRANCH  19  21
ENDBRANCH   5  19
TORSDOF 5
ENDMDL
MODEL 3
REMARK VINA RESULT:      -8.5      1.295      1.730
REMARK  5 active torsions:
REMARK  status: ('A' for Active; 'I' for Inactive)
REMARK    1  A    between atoms: C_4  and  N_5 
REMARK    2  A    between atoms: N_5  and  N_6 
REMARK       I    between atoms: N_6  and  C_7 
REMARK    3  A    between atoms: C_7  and  C_8 
REMARK    4  A    between atoms: C_12  and  C_13 
REMARK    5  A    between atoms: C_13  and  C_14 
ROOT
HETATM    1  C   UNL     1      43.265 -12.620   6.566  1.00  0.00     0.102 A 
HETATM    2  N   UNL     1      41.931 -12.279   6.532  1.00  0.00    -0.360 N 
HETATM    3  H   UNL     1      41.543 -11.488   7.034  1.00  0.00     0.165 HD
HETATM    4  C   UNL     1      41.238 -13.143   5.725  1.00  0.00     0.104 A 
HETATM    5  C   UNL     1      42.123 -14.084   5.230  1.00  0.00     0.033 A 
HETATM    6  C   UNL     1      43.396 -13.758   5.788  1.00  0.00     0.052 A 
ENDROOT
BRANCH   1   7
HETATM    7  C   UNL     1      44.229 -11.845   7.318  1.00  0.00     0.282 C 
HETATM    8  N   UNL     1      43.746 -11.279   8.485  1.00  0.00    -0.281 N 
HETATM    9  H   UNL     1      42.866 -11.574   8.893  1.00  0.00     0.184 HD
HETATM   10  O   UNL     1      45.398 -11.714   6.957  1.00  0.00    -0.265 OA
BRANCH   8  11
HETATM   11  N   UNL     1      44.681 -10.746   9.396  1.00  0.00    -0.203 NA
HETATM   12  H   UNL     1      45.245 -10.023   8.926  1.00  0.00     0.153 HD
BRANCH  11  13
HETATM   13  C   UNL     1      44.079 -10.169  10.545  1.00  0.00     0.027 A 
HETATM   14  C   UNL     1      43.918  -8.777  10.570  1.00  0.00     0.025 A 
HETATM   15  C   UNL     1      43.287  -8.145  11.644  1.00  0.00     0.002 A 
HETATM   16  C   UNL     1      42.783  -8.903  12.697  1.00  0.00     0.000 A 
HETATM   17  C   UNL     1      42.902 -10.291  12.671  1.00  0.00     0.002 A 
HETATM   18  C   UNL     1      43.536 -10.921  11.597  1.00  0.00     0.025 A 
ENDBRANCH  11  13
ENDBRANCH   8  11
ENDBRANCH   1   7
BRANCH   5  19
HETATM   19  C   UNL     1      41.848 -15.200   4.328  1.00  0.00     0.195 C 
HETATM   20  O   UNL     1      40.968 -15.154   3.475  1.00  0.00    -0.287 OA
BRANCH  19  21
HETATM   21  C   UNL     1      42.598 -16.457   4.499  1.00  0.00     0.037 A 
HETATM   22  C   UNL     1      43.247 -17.069   3.422  1.00  0.00     0.049 A 
HETATM   23 CL   UNL     1      43.316 -16.351   1.855  1.00  0.00    -0.083 Cl
HETATM   24  C   UNL     1      43.896 -18.293   3.609  1.00  0.00     0.048 A 
HETATM   25  C   UNL     1      43.889 -18.896   4.867  1.00  0.00     0.035 A 
HETATM   26 CL   UNL     1      44.685 -20.404   5.094  1.00  0.00    -0.084 Cl
HETATM   27  C   UNL     1      43.242 -18.290   5.944  1.00  0.00     0.025 A 
HETATM   28  C   UNL     1      42.590 -17.070   5.762  1.00  0.00     0.019 A 
ENDBRANCH  19  21
ENDBRANCH   5  19
TORSDOF 5
ENDMDL
MODEL 4
REMARK VINA RESULT:      -8.2      2.469      3.050
REMARK  5 active torsions:
REMARK  status: ('A' for Active; 'I' for Inactive)
REMARK    1  A    between atoms: C_4  and  N_5 
REMARK    2  A    between atoms: N_5  and  N_6 
REMARK       I    between atoms: N_6  and  C_7 
REMARK    3  A    between atoms: C_7  and  C_8 
REMARK    4  A    between atoms: C_12  and  C_13 
REMARK    5  A    between atoms: C_13  and  C_14 
ROOT
HETATM    1  C   UNL     1      41.559 -12.788   5.046  1.00  0.00     0.102 A 
HETATM    2  N   UNL     1      40.624 -13.799   5.023  1.00  0.00    -0.360 N 
HETATM    3  H   UNL     1      39.740 -13.754   5.517  1.00  0.00     0.165 HD
HETATM    4  C   UNL     1      41.060 -14.835   4.239  1.00  0.00     0.104 A 
HETATM    5  C   UNL     1      42.313 -14.514   3.748  1.00  0.00     0.033 A 
HETATM    6  C   UNL     1      42.628 -13.229   4.285  1.00  0.00     0.052 A 
ENDROOT
BRANCH   1   7
HETATM    7  C   UNL     1      41.331 -11.557   5.773  1.00  0.00     0.282 C 
HETATM    8  N   UNL     1      42.020 -11.444   6.968  1.00  0.00    -0.281 N 
HETATM    9  H   UNL     1      42.791 -12.062   7.196  1.00  0.00     0.184 HD
HETATM   10  O   UNL     1      40.594 -10.667   5.351  1.00  0.00    -0.265 OA
BRANCH   8  11
HETATM   11  N   UNL     1      42.061 -10.179   7.590  1.00  0.00    -0.203 NA
HETATM   12  H   UNL     1      41.190 -10.028   8.118  1.00  0.00     0.153 HD
BRANCH  11  13
HETATM   13  C   UNL     1      43.157 -10.026   8.480  1.00  0.00     0.027 A 
HETATM   14  C   UNL     1      44.415 -10.470   8.050  1.00  0.00     0.025 A 
HETATM   15  C   UNL     1      45.548 -10.305   8.851  1.00  0.00     0.002 A 
HETATM   16  C   UNL     1      45.440  -9.667  10.083  1.00  0.00     0.000 A 
HETATM   17  C   UNL     1      44.203  -9.186  10.509  1.00  0.00     0.002 A 
HETATM   18  C   UNL     1      43.071  -9.355   9.707  1.00  0.00     0.025 A 
ENDBRANCH  11  13
ENDBRANCH   8  11
ENDBRANCH   1   7
BRANCH   5  19
HETATM   19  C   UNL     1      43.170 -15.304   2.868  1.00  0.00     0.195 C 
HETATM   20  O   UNL     1      43.711 -14.827   1.875  1.00  0.00    -0.287 OA
BRANCH  19  21
HETATM   21  C   UNL     1      43.329 -16.746   3.132  1.00  0.00     0.037 A 
HETATM   22  C   UNL     1      43.861 -17.209   4.340  1.00  0.00     0.049 A 
HETATM   23 CL   UNL     1      44.261 -16.150   5.641  1.00  0.00    -0.083 Cl
HETATM   24  C   UNL     1      44.055 -18.581   4.530  1.00  0.00     0.048 A 
HETATM   25  C   UNL     1      43.718 -19.476   3.514  1.00  0.00     0.035 A 
HETATM   26 CL   UNL     1      43.960 -21.163   3.749  1.00  0.00    -0.084 Cl
HETATM   27  C   UNL     1      43.188 -19.018   2.308  1.00  0.00     0.025 A 
HETATM   28  C   UNL     1      42.997 -17.650   2.111  1.00  0.00     0.019 A 
ENDBRANCH  19  21
ENDBRANCH   5  19
TORSDOF 5
ENDMDL
MODEL 5
REMARK VINA RESULT:      -8.2      4.212      9.609
REMARK  5 active torsions:
REMARK  status: ('A' for Active; 'I' for Inactive)
REMARK    1  A    between atoms: C_4  and  N_5 
REMARK    2  A    between atoms: N_5  and  N_6 
REMARK       I    between atoms: N_6  and  C_7 
REMARK    3  A    between atoms: C_7  and  C_8 
REMARK    4  A    between atoms: C_12  and  C_13 
REMARK    5  A    between atoms: C_13  and  C_14 
ROOT
HETATM    1  C   UNL     1      44.648 -11.386   6.130  1.00  0.00     0.102 A 
HETATM    2  N   UNL     1      46.002 -11.145   6.209  1.00  0.00    -0.360 N 
HETATM    3  H   UNL     1      46.642 -11.291   5.436  1.00  0.00     0.165 HD
HETATM    4  C   UNL     1      46.332 -10.678   7.455  1.00  0.00     0.104 A 
HETATM    5  C   UNL     1      45.181 -10.625   8.220  1.00  0.00     0.033 A 
HETATM    6  C   UNL     1      44.128 -11.098   7.380  1.00  0.00     0.052 A 
ENDROOT
BRANCH   1   7
HETATM    7  C   UNL     1      44.029 -11.852   4.908  1.00  0.00     0.282 C 
HETATM    8  N   UNL     1      43.238 -12.980   5.043  1.00  0.00    -0.281 N 
HETATM    9  H   UNL     1      42.934 -13.309   5.952  1.00  0.00     0.184 HD
HETATM   10  O   UNL     1      44.178 -11.278   3.830  1.00  0.00    -0.265 OA
BRANCH   8  11
HETATM   11  N   UNL     1      42.396 -13.329   3.966  1.00  0.00    -0.203 NA
HETATM   12  H   UNL     1      42.508 -12.643   3.206  1.00  0.00     0.153 HD
BRANCH  11  13
HETATM   13  C   UNL     1      42.658 -14.623   3.445  1.00  0.00     0.027 A 
HETATM   14  C   UNL     1      43.041 -14.721   2.100  1.00  0.00     0.025 A 
HETATM   15  C   UNL     1      43.365 -15.955   1.533  1.00  0.00     0.002 A 
HETATM   16  C   UNL     1      43.338 -17.107   2.314  1.00  0.00     0.000 A 
HETATM   17  C   UNL     1      42.996 -17.022   3.662  1.00  0.00     0.002 A 
HETATM   18  C   UNL     1      42.669 -15.786   4.226  1.00  0.00     0.025 A 
ENDBRANCH  11  13
ENDBRANCH   8  11
ENDBRANCH   1   7
BRANCH   5  19
HETATM   19  C   UNL     1      45.035 -10.190   9.607  1.00  0.00     0.195 C 
HETATM   20  O   UNL     1      45.502 -10.823  10.548  1.00  0.00    -0.287 OA
BRANCH  19  21
HETATM   21  C   UNL     1      44.228  -8.990   9.897  1.00  0.00     0.037 A 
HETATM   22  C   UNL     1      43.314  -8.967  10.955  1.00  0.00     0.049 A 
HETATM   23 CL   UNL     1      43.144 -10.282  12.059  1.00  0.00    -0.083 Cl
HETATM   24  C   UNL     1      42.521  -7.834  11.160  1.00  0.00     0.048 A 
HETATM   25  C   UNL     1      42.646  -6.737  10.308  1.00  0.00     0.035 A 
HETATM   26 CL   UNL     1      41.668  -5.345  10.562  1.00  0.00    -0.084 Cl
HETATM   27  C   UNL     1      43.556  -6.756   9.251  1.00  0.00     0.025 A 
HETATM   28  C   UNL     1      44.347  -7.885   9.039  1.00  0.00     0.019 A 
ENDBRANCH  19  21
ENDBRANCH   5  19
TORSDOF 5
ENDMDL
MODEL 6
REMARK VINA RESULT:      -8.1      4.014      9.582
REMARK  5 active torsions:
REMARK  status: ('A' for Active; 'I' for Inactive)
REMARK    1  A    between atoms: C_4  and  N_5 
REMARK    2  A    between atoms: N_5  and  N_6 
REMARK       I    between atoms: N_6  and  C_7 
REMARK    3  A    between atoms: C_7  and  C_8 
REMARK    4  A    between atoms: C_12  and  C_13 
REMARK    5  A    between atoms: C_13  and  C_14 
ROOT
HETATM    1  C   UNL     1      43.444 -11.767   6.576  1.00  0.00     0.102 A 
HETATM    2  N   UNL     1      44.751 -12.161   6.763  1.00  0.00    -0.360 N 
HETATM    3  H   UNL     1      45.126 -13.036   6.415  1.00  0.00     0.165 HD
HETATM    4  C   UNL     1      45.443 -11.204   7.457  1.00  0.00     0.104 A 
HETATM    5  C   UNL     1      44.578 -10.166   7.753  1.00  0.00     0.033 A 
HETATM    6  C   UNL     1      43.311 -10.545   7.213  1.00  0.00     0.052 A 
ENDROOT
BRANCH   1   7
HETATM    7  C   UNL     1      42.502 -12.581   5.838  1.00  0.00     0.282 C 
HETATM    8  N   UNL     1      43.059 -13.644   5.147  1.00  0.00    -0.281 N 
HETATM    9  H   UNL     1      44.005 -13.959   5.331  1.00  0.00     0.184 HD
HETATM   10  O   UNL     1      41.293 -12.358   5.839  1.00  0.00    -0.265 OA
BRANCH   8  11
HETATM   11  N   UNL     1      42.188 -14.627   4.634  1.00  0.00    -0.203 NA
HETATM   12  H   UNL     1      41.713 -14.262   3.796  1.00  0.00     0.153 HD
BRANCH  11  13
HETATM   13  C   UNL     1      42.849 -15.835   4.285  1.00  0.00     0.027 A 
HETATM   14  C   UNL     1      43.637 -16.456   5.262  1.00  0.00     0.025 A 
HETATM   15  C   UNL     1      44.274 -17.672   5.007  1.00  0.00     0.002 A 
HETATM   16  C   UNL     1      44.107 -18.298   3.774  1.00  0.00     0.000 A 
HETATM   17  C   UNL     1      43.296 -17.713   2.804  1.00  0.00     0.002 A 
HETATM   18  C   UNL     1      42.662 -16.494   3.062  1.00  0.00     0.025 A 
ENDBRANCH  11  13
ENDBRANCH   8  11
ENDBRANCH   1   7
BRANCH   5  19
HETATM   19  C   UNL     1      44.861  -8.928   8.474  1.00  0.00     0.195 C 
HETATM   20  O   UNL     1      45.802  -8.197   8.181  1.00  0.00    -0.287 OA
BRANCH  19  21
HETATM   21  C   UNL     1      44.039  -8.581   9.647  1.00  0.00     0.037 A 
HETATM   22  C   UNL     1      43.052  -7.593   9.576  1.00  0.00     0.049 A 
HETATM   23 CL   UNL     1      42.646  -6.795   8.101  1.00  0.00    -0.083 Cl
HETATM   24  C   UNL     1      42.334  -7.247  10.725  1.00  0.00     0.048 A 
HETATM   25  C   UNL     1      42.610  -7.888  11.933  1.00  0.00     0.035 A 
HETATM   26 CL   UNL     1      41.728  -7.459  13.347  1.00  0.00    -0.084 Cl
HETATM   27  C   UNL     1      43.594  -8.873  12.009  1.00  0.00     0.025 A 
HETATM   28  C   UNL     1      44.315  -9.219  10.866  1.00  0.00     0.019 A 
ENDBRANCH  19  21
ENDBRANCH   5  19
TORSDOF 5
ENDMDL
MODEL 7
REMARK VINA RESULT:      -7.9      2.163      2.913
REMARK  5 active torsions:
REMARK  status: ('A' for Active; 'I' for Inactive)
REMARK    1  A    between atoms: C_4  and  N_5 
REMARK    2  A    between atoms: N_5  and  N_6 
REMARK       I    between atoms: N_6  and  C_7 
REMARK    3  A    between atoms: C_7  and  C_8 
REMARK    4  A    between atoms: C_12  and  C_13 
REMARK    5  A    between atoms: C_13  and  C_14 
ROOT
HETATM    1  C   UNL     1      43.430 -12.691   6.667  1.00  0.00     0.102 A 
HETATM    2  N   UNL     1      42.087 -12.403   6.561  1.00  0.00    -0.360 N 
HETATM    3  H   UNL     1      41.653 -11.595   6.993  1.00  0.00     0.165 HD
HETATM    4  C   UNL     1      41.456 -13.344   5.790  1.00  0.00     0.104 A 
HETATM    5  C   UNL     1      42.392 -14.282   5.392  1.00  0.00     0.033 A 
HETATM    6  C   UNL     1      43.630 -13.872   5.973  1.00  0.00     0.052 A 
ENDROOT
BRANCH   1   7
HETATM    7  C   UNL     1      44.336 -11.832   7.399  1.00  0.00     0.282 C 
HETATM    8  N   UNL     1      43.825 -11.299   8.569  1.00  0.00    -0.281 N 
HETATM    9  H   UNL     1      42.978 -11.663   8.992  1.00  0.00     0.184 HD
HETATM   10  O   UNL     1      45.485 -11.607   7.020  1.00  0.00    -0.265 OA
BRANCH   8  11
HETATM   11  N   UNL     1      44.725 -10.682   9.463  1.00  0.00    -0.203 NA
HETATM   12  H   UNL     1      45.224  -9.923   8.977  1.00  0.00     0.153 HD
BRANCH  11  13
HETATM   13  C   UNL     1      44.091 -10.139  10.612  1.00  0.00     0.027 A 
HETATM   14  C   UNL     1      43.930  -8.749  10.674  1.00  0.00     0.025 A 
HETATM   15  C   UNL     1      43.271  -8.149  11.749  1.00  0.00     0.002 A 
HETATM   16  C   UNL     1      42.738  -8.938  12.765  1.00  0.00     0.000 A 
HETATM   17  C   UNL     1      42.856 -10.325  12.700  1.00  0.00     0.002 A 
HETATM   18  C   UNL     1      43.520 -10.922  11.624  1.00  0.00     0.025 A 
ENDBRANCH  11  13
ENDBRANCH   8  11
ENDBRANCH   1   7
BRANCH   5  19
HETATM   19  C   UNL     1      42.191 -15.465   4.559  1.00  0.00     0.195 C 
HETATM   20  O   UNL     1      42.572 -16.580   4.897  1.00  0.00    -0.287 OA
BRANCH  19  21
HETATM   21  C   UNL     1      41.583 -15.303   3.226  1.00  0.00     0.037 A 
HETATM   22  C   UNL     1      42.143 -14.449   2.270  1.00  0.00     0.049 A 
HETATM   23 CL   UNL     1      43.633 -13.620   2.531  1.00  0.00    -0.083 Cl
HETATM   24  C   UNL     1      41.504 -14.274   1.039  1.00  0.00     0.048 A 
HETATM   25  C   UNL     1      40.312 -14.948   0.774  1.00  0.00     0.035 A 
HETATM   26 CL   UNL     1      39.526 -14.727  -0.740  1.00  0.00    -0.084 Cl
HETATM   27  C   UNL     1      39.749 -15.799   1.725  1.00  0.00     0.025 A 
HETATM   28  C   UNL     1      40.381 -15.975   2.956  1.00  0.00     0.019 A 
ENDBRANCH  19  21
ENDBRANCH   5  19
TORSDOF 5
ENDMDL
MODEL 8
REMARK VINA RESULT:      -7.8      6.725      9.529
REMARK  5 active torsions:
REMARK  status: ('A' for Active; 'I' for Inactive)
REMARK    1  A    between atoms: C_4  and  N_5 
REMARK    2  A    between atoms: N_5  and  N_6 
REMARK       I    between atoms: N_6  and  C_7 
REMARK    3  A    between atoms: C_7  and  C_8 
REMARK    4  A    between atoms: C_12  and  C_13 
REMARK    5  A    between atoms: C_13  and  C_14 
ROOT
HETATM    1  C   UNL     1      40.761 -14.767   2.053  1.00  0.00     0.102 A 
HETATM    2  N   UNL     1      40.084 -13.590   2.288  1.00  0.00    -0.360 N 
HETATM    3  H   UNL     1      40.002 -13.167   3.206  1.00  0.00     0.165 HD
HETATM    4  C   UNL     1      39.572 -13.092   1.119  1.00  0.00     0.104 A 
HETATM    5  C   UNL     1      39.897 -13.962   0.094  1.00  0.00     0.033 A 
HETATM    6  C   UNL     1      40.627 -15.029   0.700  1.00  0.00     0.052 A 
ENDROOT
BRANCH   1   7
HETATM    7  C   UNL     1      41.432 -15.484   3.116  1.00  0.00     0.282 C 
HETATM    8  N   UNL     1      42.543 -16.210   2.724  1.00  0.00    -0.281 N 
HETATM    9  H   UNL     1      42.981 -16.064   1.822  1.00  0.00     0.184 HD
HETATM   10  O   UNL     1      41.055 -15.437   4.286  1.00  0.00    -0.265 OA
BRANCH   8  11
HETATM   11  N   UNL     1      43.396 -16.707   3.732  1.00  0.00    -0.203 NA
HETATM   12  H   UNL     1      43.032 -16.433   4.656  1.00  0.00     0.153 HD
BRANCH  11  13
HETATM   13  C   UNL     1      43.534 -18.120   3.704  1.00  0.00     0.027 A 
HETATM   14  C   UNL     1      43.286 -18.778   2.492  1.00  0.00     0.025 A 
HETATM   15  C   UNL     1      43.452 -20.160   2.377  1.00  0.00     0.002 A 
HETATM   16  C   UNL     1      43.895 -20.899   3.470  1.00  0.00     0.000 A 
HETATM   17  C   UNL     1      44.182 -20.256   4.672  1.00  0.00     0.002 A 
HETATM   18  C   UNL     1      44.012 -18.873   4.786  1.00  0.00     0.025 A 
ENDBRANCH  11  13
ENDBRANCH   8  11
ENDBRANCH   1   7
BRANCH   5  19
HETATM   19  C   UNL     1      39.572 -13.850  -1.326  1.00  0.00     0.195 C 
HETATM   20  O   UNL     1      39.240 -14.818  -2.003  1.00  0.00    -0.287 OA
BRANCH  19  21
HETATM   21  C   UNL     1      39.727 -12.545  -1.993  1.00  0.00     0.037 A 
HETATM   22  C   UNL     1      38.638 -11.899  -2.589  1.00  0.00     0.049 A 
HETATM   23 CL   UNL     1      37.030 -12.517  -2.492  1.00  0.00    -0.083 Cl
HETATM   24  C   UNL     1      38.835 -10.692  -3.266  1.00  0.00     0.048 A 
HETATM   25  C   UNL     1      40.115 -10.142  -3.345  1.00  0.00     0.035 A 
HETATM   26 CL   UNL     1      40.355  -8.659  -4.182  1.00  0.00    -0.084 Cl
HETATM   27  C   UNL     1      41.203 -10.783  -2.753  1.00  0.00     0.025 A 
HETATM   28  C   UNL     1      41.013 -11.989  -2.079  1.00  0.00     0.019 A 
ENDBRANCH  19  21
ENDBRANCH   5  19
TORSDOF 5
ENDMDL
MODEL 9
REMARK VINA RESULT:      -7.5      2.829      4.010
REMARK  5 active torsions:
REMARK  status: ('A' for Active; 'I' for Inactive)
REMARK    1  A    between atoms: C_4  and  N_5 
REMARK    2  A    between atoms: N_5  and  N_6 
REMARK       I    between atoms: N_6  and  C_7 
REMARK    3  A    between atoms: C_7  and  C_8 
REMARK    4  A    between atoms: C_12  and  C_13 
REMARK    5  A    between atoms: C_13  and  C_14 
ROOT
HETATM    1  C   UNL     1      44.452 -10.679   8.485  1.00  0.00     0.102 A 
HETATM    2  N   UNL     1      45.623 -10.914   7.799  1.00  0.00    -0.360 N 
HETATM    3  H   UNL     1      46.539 -10.892   8.233  1.00  0.00     0.165 HD
HETATM    4  C   UNL     1      45.358 -11.190   6.483  1.00  0.00     0.104 A 
HETATM    5  C   UNL     1      43.991 -11.118   6.287  1.00  0.00     0.033 A 
HETATM    6  C   UNL     1      43.430 -10.770   7.554  1.00  0.00     0.052 A 
ENDROOT
BRANCH   1   7
HETATM    7  C   UNL     1      44.445 -10.399   9.905  1.00  0.00     0.282 C 
HETATM    8  N   UNL     1      43.305 -10.805  10.578  1.00  0.00    -0.281 N 
HETATM    9  H   UNL     1      42.641 -11.446  10.159  1.00  0.00     0.184 HD
HETATM   10  O   UNL     1      45.390  -9.859  10.477  1.00  0.00    -0.265 OA
BRANCH   8  11
HETATM   11  N   UNL     1      43.339 -10.813  11.988  1.00  0.00    -0.203 NA
HETATM   12  H   UNL     1      44.318 -10.782  12.308  1.00  0.00     0.153 HD
BRANCH  11  13
HETATM   13  C   UNL     1      42.641  -9.724  12.572  1.00  0.00     0.027 A 
HETATM   14  C   UNL     1      41.321  -9.940  12.989  1.00  0.00     0.025 A 
HETATM   15  C   UNL     1      40.590  -8.930  13.619  1.00  0.00     0.002 A 
HETATM   16  C   UNL     1      41.184  -7.695  13.866  1.00  0.00     0.000 A 
HETATM   17  C   UNL     1      42.508  -7.475  13.492  1.00  0.00     0.002 A 
HETATM   18  C   UNL     1      43.235  -8.487  12.859  1.00  0.00     0.025 A 
ENDBRANCH  11  13
ENDBRANCH   8  11
ENDBRANCH   1   7
BRANCH   5  19
HETATM   19  C   UNL     1      43.239 -11.337   5.054  1.00  0.00     0.195 C 
HETATM   20  O   UNL     1      43.170 -10.493   4.167  1.00  0.00    -0.287 OA
BRANCH  19  21
HETATM   21  C   UNL     1      42.466 -12.583   4.902  1.00  0.00     0.037 A 
HETATM   22  C   UNL     1      41.131 -12.666   5.311  1.00  0.00     0.049 A 
HETATM   23 CL   UNL     1      40.263 -11.301   5.911  1.00  0.00    -0.083 Cl
HETATM   24  C   UNL     1      40.450 -13.882   5.209  1.00  0.00     0.048 A 
HETATM   25  C   UNL     1      41.106 -15.004   4.702  1.00  0.00     0.035 A 
HETATM   26 CL   UNL     1      40.265 -16.500   4.580  1.00  0.00    -0.084 Cl
HETATM   27  C   UNL     1      42.437 -14.926   4.293  1.00  0.00     0.025 A 
HETATM   28  C   UNL     1      43.123 -13.716   4.397  1.00  0.00     0.019 A 
ENDBRANCH  19  21
ENDBRANCH   5  19
TORSDOF 5
ENDMDL
MODEL 10
REMARK VINA RESULT:      -7.4      7.829     10.629
REMARK  5 active torsions:
REMARK  status: ('A' for Active; 'I' for Inactive)
REMARK    1  A    between atoms: C_4  and  N_5 
REMARK    2  A    between atoms: N_5  and  N_6 
REMARK       I    between atoms: N_6  and  C_7 
REMARK    3  A    between atoms: C_7  and  C_8 
REMARK    4  A    between atoms: C_12  and  C_13 
REMARK    5  A    between atoms: C_13  and  C_14 
ROOT
HETATM    1  C   UNL     1      42.009  -7.214  15.456  1.00  0.00     0.102 A 
HETATM    2  N   UNL     1      43.168  -6.713  14.907  1.00  0.00    -0.360 N 
HETATM    3  H   UNL     1      43.725  -5.987  15.344  1.00  0.00     0.165 HD
HETATM    4  C   UNL     1      43.449  -7.345  13.724  1.00  0.00     0.104 A 
HETATM    5  C   UNL     1      42.449  -8.267  13.473  1.00  0.00     0.033 A 
HETATM    6  C   UNL     1      41.532  -8.158  14.563  1.00  0.00     0.052 A 
ENDROOT
BRANCH   1   7
HETATM    7  C   UNL     1      41.504  -6.745  16.729  1.00  0.00     0.282 C 
HETATM    8  N   UNL     1      40.613  -7.597  17.358  1.00  0.00    -0.281 N 
HETATM    9  H   UNL     1      40.506  -8.562  17.067  1.00  0.00     0.184 HD
HETATM   10  O   UNL     1      41.856  -5.675  17.225  1.00  0.00    -0.265 OA
BRANCH   8  11
HETATM   11  N   UNL     1      40.294  -7.339  18.708  1.00  0.00    -0.203 NA
HETATM   12  H   UNL     1      39.270  -7.304  18.817  1.00  0.00     0.153 HD
BRANCH  11  13
HETATM   13  C   UNL     1      40.809  -8.313  19.603  1.00  0.00     0.027 A 
HETATM   14  C   UNL     1      39.908  -9.232  20.157  1.00  0.00     0.025 A 
HETATM   15  C   UNL     1      40.350 -10.251  21.005  1.00  0.00     0.002 A 
HETATM   16  C   UNL     1      41.707 -10.379  21.287  1.00  0.00     0.000 A 
HETATM   17  C   UNL     1      42.621  -9.496  20.714  1.00  0.00     0.002 A 
HETATM   18  C   UNL     1      42.175  -8.476  19.869  1.00  0.00     0.025 A 
ENDBRANCH  11  13
ENDBRANCH   8  11
ENDBRANCH   1   7
BRANCH   5  19
HETATM   19  C   UNL     1      42.319  -9.177  12.338  1.00  0.00     0.195 C 
HETATM   20  O   UNL     1      41.446 -10.037  12.280  1.00  0.00    -0.287 OA
BRANCH  19  21
HETATM   21  C   UNL     1      43.320  -9.116  11.257  1.00  0.00     0.037 A 
HETATM   22  C   UNL     1      43.230  -8.167  10.234  1.00  0.00     0.049 A 
HETATM   23 CL   UNL     1      42.020  -6.936  10.219  1.00  0.00    -0.083 Cl
HETATM   24  C   UNL     1      44.162  -8.180   9.193  1.00  0.00     0.048 A 
HETATM   25  C   UNL     1      45.174  -9.140   9.181  1.00  0.00     0.035 A 
HETATM   26 CL   UNL     1      46.319  -9.155   7.896  1.00  0.00    -0.084 Cl
HETATM   27  C   UNL     1      45.268 -10.089  10.198  1.00  0.00     0.025 A 
HETATM   28  C   UNL     1      44.338 -10.083  11.238  1.00  0.00     0.019 A 
ENDBRANCH  19  21
ENDBRANCH   5  19
TORSDOF 5
ENDMDL
