MODEL 1
REMARK VINA RESULT:      -9.2      0.000      0.000
REMARK  5 active torsions:
REMARK  status: ('A' for Active; 'I' for Inactive)
REMARK    1  A    between atoms: C_4  and  C_5 
REMARK    2  A    between atoms: C_5  and  O_6 
REMARK    3  A    between atoms: O_6  and  C_7 
REMARK    4  A    between atoms: C_10  and  N_11 
REMARK       I    between atoms: N_11  and  C_12 
REMARK    5  A    between atoms: C_12  and  C_13 
ROOT
HETATM    1  N   UNL     1      43.133 -12.111   7.407  1.00  0.00    -0.322 N 
HETATM    2  C   UNL     1      44.246 -11.338   7.659  1.00  0.00     0.277 C 
HETATM    3  O   UNL     1      45.291 -11.278   7.033  1.00  0.00    -0.266 OA
HETATM    4  H   UNL     1      42.319 -11.879   7.970  1.00  0.00     0.169 HD
ENDROOT
BRANCH   1   5
HETATM    5  C   UNL     1      43.003 -13.149   6.469  1.00  0.00     0.035 A 
HETATM    6  C   UNL     1      43.168 -14.497   6.781  1.00  0.00     0.032 A 
HETATM    7  C   UNL     1      42.934 -15.478   5.811  1.00  0.00     0.039 A 
HETATM    8  C   UNL     1      42.526 -15.124   4.525  1.00  0.00     0.069 A 
HETATM    9  C   UNL     1      42.413 -13.776   4.192  1.00  0.00     0.039 A 
HETATM   10  C   UNL     1      42.642 -12.794   5.164  1.00  0.00     0.032 A 
BRANCH   8  11
HETATM   11  O   UNL     1      42.277 -16.173   3.686  1.00  0.00    -0.347 OA
BRANCH  11  12
HETATM   12  C   UNL     1      43.388 -16.645   2.919  1.00  0.00     0.214 C 
BRANCH  12  13
HETATM   13  C   UNL     1      43.556 -18.135   3.123  1.00  0.00    -0.034 A 
HETATM   14  C   UNL     1      44.016 -18.625   4.356  1.00  0.00     0.009 A 
HETATM   15  C   UNL     1      44.166 -19.997   4.564  1.00  0.00     0.001 A 
HETATM   16  C   UNL     1      43.848 -20.896   3.547  1.00  0.00     0.000 A 
HETATM   17  C   UNL     1      43.374 -20.423   2.326  1.00  0.00     0.001 A 
HETATM   18  C   UNL     1      43.222 -19.052   2.116  1.00  0.00     0.009 A 
ENDBRANCH  12  13
ENDBRANCH  11  12
ENDBRANCH   8  11
ENDBRANCH   1   5
BRANCH   2  19
HETATM   19  C   UNL     1      44.058 -10.472   8.904  1.00  0.00     0.156 A 
HETATM   20  N   UNL     1      44.526 -10.970  10.017  1.00  0.00    -0.166 NA
HETATM   21  N   UNL     1      44.400 -10.226  11.151  1.00  0.00    -0.242 N 
HETATM   22  C   UNL     1      43.824  -8.982  11.243  1.00  0.00     0.272 A 
HETATM   23  H   UNL     1      44.743 -10.641  12.013  1.00  0.00     0.192 HD
HETATM   24  O   UNL     1      43.742  -8.376  12.305  1.00  0.00    -0.266 OA
HETATM   25  C   UNL     1      43.323  -8.403   9.985  1.00  0.00     0.046 A 
HETATM   26  C   UNL     1      43.436  -9.135   8.804  1.00  0.00     0.016 A 
HETATM   27  C   UNL     1      42.754  -7.123   9.980  1.00  0.00     0.018 A 
HETATM   28  C   UNL     1      42.990  -8.570   7.603  1.00  0.00     0.015 A 
HETATM   29  C   UNL     1      42.422  -7.292   7.597  1.00  0.00     0.001 A 
HETATM   30  C   UNL     1      42.303  -6.569   8.783  1.00  0.00     0.001 A 
ENDBRANCH   2  19
TORSDOF 5
ENDMDL
MODEL 2
REMARK VINA RESULT:      -9.2      1.571      2.449
REMARK  5 active torsions:
REMARK  status: ('A' for Active; 'I' for Inactive)
REMARK    1  A    between atoms: C_4  and  C_5 
REMARK    2  A    between atoms: C_5  and  O_6 
REMARK    3  A    between atoms: O_6  and  C_7 
REMARK    4  A    between atoms: C_10  and  N_11 
REMARK       I    between atoms: N_11  and  C_12 
REMARK    5  A    between atoms: C_12  and  C_13 
ROOT
HETATM    1  N   UNL     1      43.222 -11.042   7.218  1.00  0.00    -0.322 N 
HETATM    2  C   UNL     1      44.280 -10.349   7.765  1.00  0.00     0.277 C 
HETATM    3  O   UNL     1      45.475 -10.562   7.646  1.00  0.00    -0.266 OA
HETATM    4  H   UNL     1      42.318 -10.589   7.323  1.00  0.00     0.169 HD
ENDROOT
BRANCH   1   5
HETATM    5  C   UNL     1      43.261 -12.269   6.534  1.00  0.00     0.035 A 
HETATM    6  C   UNL     1      43.652 -13.470   7.124  1.00  0.00     0.032 A 
HETATM    7  C   UNL     1      43.579 -14.665   6.402  1.00  0.00     0.039 A 
HETATM    8  C   UNL     1      43.108 -14.676   5.089  1.00  0.00     0.069 A 
HETATM    9  C   UNL     1      42.769 -13.472   4.476  1.00  0.00     0.039 A 
HETATM   10  C   UNL     1      42.837 -12.276   5.200  1.00  0.00     0.032 A 
BRANCH   8  11
HETATM   11  O   UNL     1      43.033 -15.911   4.510  1.00  0.00    -0.347 OA
BRANCH  11  12
HETATM   12  C   UNL     1      43.964 -16.888   4.982  1.00  0.00     0.214 C 
BRANCH  12  13
HETATM   13  C   UNL     1      43.811 -18.168   4.190  1.00  0.00    -0.034 A 
HETATM   14  C   UNL     1      43.357 -18.120   2.863  1.00  0.00     0.009 A 
HETATM   15  C   UNL     1      43.221 -19.291   2.115  1.00  0.00     0.001 A 
HETATM   16  C   UNL     1      43.548 -20.522   2.681  1.00  0.00     0.000 A 
HETATM   17  C   UNL     1      44.017 -20.581   3.992  1.00  0.00     0.001 A 
HETATM   18  C   UNL     1      44.155 -19.411   4.740  1.00  0.00     0.009 A 
ENDBRANCH  12  13
ENDBRANCH  11  12
ENDBRANCH   8  11
ENDBRANCH   1   5
BRANCH   2  19
HETATM   19  C   UNL     1      43.801  -9.175   8.618  1.00  0.00     0.156 A 
HETATM   20  N   UNL     1      43.628  -8.047   7.983  1.00  0.00    -0.166 NA
HETATM   21  N   UNL     1      43.183  -6.976   8.697  1.00  0.00    -0.242 N 
HETATM   22  C   UNL     1      42.889  -6.963  10.039  1.00  0.00     0.272 A 
HETATM   23  H   UNL     1      43.081  -6.099   8.194  1.00  0.00     0.192 HD
HETATM   24  O   UNL     1      42.498  -5.953  10.613  1.00  0.00    -0.266 OA
HETATM   25  C   UNL     1      43.054  -8.240  10.753  1.00  0.00     0.046 A 
HETATM   26  C   UNL     1      43.507  -9.358  10.055  1.00  0.00     0.016 A 
HETATM   27  C   UNL     1      42.742  -8.327  12.116  1.00  0.00     0.018 A 
HETATM   28  C   UNL     1      43.630 -10.581  10.726  1.00  0.00     0.015 A 
HETATM   29  C   UNL     1      43.319 -10.669  12.087  1.00  0.00     0.001 A 
HETATM   30  C   UNL     1      42.877  -9.544  12.782  1.00  0.00     0.001 A 
ENDBRANCH   2  19
TORSDOF 5
ENDMDL
MODEL 3
REMARK VINA RESULT:      -9.1      2.639      9.818
REMARK  5 active torsions:
REMARK  status: ('A' for Active; 'I' for Inactive)
REMARK    1  A    between atoms: C_4  and  C_5 
REMARK    2  A    between atoms: C_5  and  O_6 
REMARK    3  A    between atoms: O_6  and  C_7 
REMARK    4  A    between atoms: C_10  and  N_11 
REMARK       I    between atoms: N_11  and  C_12 
REMARK    5  A    between atoms: C_12  and  C_13 
ROOT
HETATM    1  N   UNL     1      42.115 -12.679   5.332  1.00  0.00    -0.322 N 
HETATM    2  C   UNL     1      41.407 -13.830   5.605  1.00  0.00     0.277 C 
HETATM    3  O   UNL     1      41.111 -14.307   6.688  1.00  0.00    -0.266 OA
HETATM    4  H   UNL     1      42.102 -12.393   4.357  1.00  0.00     0.169 HD
ENDROOT
BRANCH   1   5
HETATM    5  C   UNL     1      42.822 -11.872   6.239  1.00  0.00     0.035 A 
HETATM    6  C   UNL     1      44.104 -12.167   6.699  1.00  0.00     0.032 A 
HETATM    7  C   UNL     1      44.778 -11.267   7.532  1.00  0.00     0.039 A 
HETATM    8  C   UNL     1      44.182 -10.063   7.908  1.00  0.00     0.069 A 
HETATM    9  C   UNL     1      42.880  -9.788   7.497  1.00  0.00     0.039 A 
HETATM   10  C   UNL     1      42.208 -10.685   6.658  1.00  0.00     0.032 A 
BRANCH   8  11
HETATM   11  O   UNL     1      44.962  -9.246   8.677  1.00  0.00    -0.347 OA
BRANCH  11  12
HETATM   12  C   UNL     1      45.431  -9.800   9.910  1.00  0.00     0.214 C 
BRANCH  12  13
HETATM   13  C   UNL     1      44.359  -9.674  10.970  1.00  0.00    -0.034 A 
HETATM   14  C   UNL     1      43.891  -8.405  11.344  1.00  0.00     0.009 A 
HETATM   15  C   UNL     1      42.894  -8.272  12.313  1.00  0.00     0.001 A 
HETATM   16  C   UNL     1      42.347  -9.406  12.911  1.00  0.00     0.000 A 
HETATM   17  C   UNL     1      42.791 -10.672  12.535  1.00  0.00     0.001 A 
HETATM   18  C   UNL     1      43.786 -10.806  11.566  1.00  0.00     0.009 A 
ENDBRANCH  12  13
ENDBRANCH  11  12
ENDBRANCH   8  11
ENDBRANCH   1   5
BRANCH   2  19
HETATM   19  C   UNL     1      40.971 -14.537   4.322  1.00  0.00     0.156 A 
HETATM   20  N   UNL     1      39.941 -14.018   3.710  1.00  0.00    -0.166 NA
HETATM   21  N   UNL     1      39.527 -14.602   2.551  1.00  0.00    -0.242 N 
HETATM   22  C   UNL     1      40.096 -15.699   1.949  1.00  0.00     0.272 A 
HETATM   23  H   UNL     1      38.707 -14.203   2.102  1.00  0.00     0.192 HD
HETATM   24  O   UNL     1      39.660 -16.172   0.905  1.00  0.00    -0.266 OA
HETATM   25  C   UNL     1      41.276 -16.270   2.620  1.00  0.00     0.046 A 
HETATM   26  C   UNL     1      41.729 -15.698   3.807  1.00  0.00     0.016 A 
HETATM   27  C   UNL     1      41.941 -17.366   2.055  1.00  0.00     0.018 A 
HETATM   28  C   UNL     1      42.872 -16.219   4.426  1.00  0.00     0.015 A 
HETATM   29  C   UNL     1      43.537 -17.313   3.864  1.00  0.00     0.001 A 
HETATM   30  C   UNL     1      43.072 -17.887   2.682  1.00  0.00     0.001 A 
ENDBRANCH   2  19
TORSDOF 5
ENDMDL
MODEL 4
REMARK VINA RESULT:      -9.0      2.199     10.039
REMARK  5 active torsions:
REMARK  status: ('A' for Active; 'I' for Inactive)
REMARK    1  A    between atoms: C_4  and  C_5 
REMARK    2  A    between atoms: C_5  and  O_6 
REMARK    3  A    between atoms: O_6  and  C_7 
REMARK    4  A    between atoms: C_10  and  N_11 
REMARK       I    between atoms: N_11  and  C_12 
REMARK    5  A    between atoms: C_12  and  C_13 
ROOT
HETATM    1  N   UNL     1      43.987 -13.285   6.622  1.00  0.00    -0.322 N 
HETATM    2  C   UNL     1      42.857 -13.932   6.170  1.00  0.00     0.277 C 
HETATM    3  O   UNL     1      41.778 -13.456   5.859  1.00  0.00    -0.266 OA
HETATM    4  H   UNL     1      44.820 -13.866   6.666  1.00  0.00     0.169 HD
ENDROOT
BRANCH   1   5
HETATM    5  C   UNL     1      44.111 -11.939   7.003  1.00  0.00     0.035 A 
HETATM    6  C   UNL     1      43.029 -11.069   7.129  1.00  0.00     0.032 A 
HETATM    7  C   UNL     1      43.224  -9.766   7.600  1.00  0.00     0.039 A 
HETATM    8  C   UNL     1      44.497  -9.322   7.957  1.00  0.00     0.069 A 
HETATM    9  C   UNL     1      45.589 -10.168   7.781  1.00  0.00     0.039 A 
HETATM   10  C   UNL     1      45.394 -11.473   7.315  1.00  0.00     0.032 A 
BRANCH   8  11
HETATM   11  O   UNL     1      44.549  -8.050   8.454  1.00  0.00    -0.347 OA
BRANCH  11  12
HETATM   12  C   UNL     1      43.292  -7.439   8.758  1.00  0.00     0.214 C 
BRANCH  12  13
HETATM   13  C   UNL     1      43.113  -7.351  10.257  1.00  0.00    -0.034 A 
HETATM   14  C   UNL     1      42.442  -6.254  10.819  1.00  0.00     0.009 A 
HETATM   15  C   UNL     1      42.259  -6.163  12.200  1.00  0.00     0.001 A 
HETATM   16  C   UNL     1      42.735  -7.172  13.035  1.00  0.00     0.000 A 
HETATM   17  C   UNL     1      43.387  -8.276  12.488  1.00  0.00     0.001 A 
HETATM   18  C   UNL     1      43.569  -8.369  11.108  1.00  0.00     0.009 A 
ENDBRANCH  12  13
ENDBRANCH  11  12
ENDBRANCH   8  11
ENDBRANCH   1   5
BRANCH   2  19
HETATM   19  C   UNL     1      43.075 -15.441   6.073  1.00  0.00     0.156 A 
HETATM   20  N   UNL     1      43.081 -16.087   7.208  1.00  0.00    -0.166 NA
HETATM   21  N   UNL     1      43.252 -17.438   7.172  1.00  0.00    -0.242 N 
HETATM   22  C   UNL     1      43.417 -18.203   6.043  1.00  0.00     0.272 A 
HETATM   23  H   UNL     1      43.283 -17.921   8.066  1.00  0.00     0.192 HD
HETATM   24  O   UNL     1      43.572 -19.418   6.094  1.00  0.00    -0.266 OA
HETATM   25  C   UNL     1      43.380 -17.484   4.759  1.00  0.00     0.046 A 
HETATM   26  C   UNL     1      43.206 -16.101   4.756  1.00  0.00     0.016 A 
HETATM   27  C   UNL     1      43.503 -18.190   3.556  1.00  0.00     0.018 A 
HETATM   28  C   UNL     1      43.136 -15.422   3.534  1.00  0.00     0.015 A 
HETATM   29  C   UNL     1      43.259 -16.126   2.332  1.00  0.00     0.001 A 
HETATM   30  C   UNL     1      43.443 -17.508   2.342  1.00  0.00     0.001 A 
ENDBRANCH   2  19
TORSDOF 5
ENDMDL
MODEL 5
REMARK VINA RESULT:      -9.0      5.822      8.741
REMARK  5 active torsions:
REMARK  status: ('A' for Active; 'I' for Inactive)
REMARK    1  A    between atoms: C_4  and  C_5 
REMARK    2  A    between atoms: C_5  and  O_6 
REMARK    3  A    between atoms: O_6  and  C_7 
REMARK    4  A    between atoms: C_10  and  N_11 
REMARK       I    between atoms: N_11  and  C_12 
REMARK    5  A    between atoms: C_12  and  C_13 
ROOT
HETATM    1  N   UNL     1      40.054 -14.123   2.147  1.00  0.00    -0.322 N 
HETATM    2  C   UNL     1      40.557 -13.380   1.102  1.00  0.00     0.277 C 
HETATM    3  O   UNL     1      41.718 -13.238   0.754  1.00  0.00    -0.266 OA
HETATM    4  H   UNL     1      39.043 -14.223   2.150  1.00  0.00     0.169 HD
ENDROOT
BRANCH   1   5
HETATM    5  C   UNL     1      40.774 -14.757   3.174  1.00  0.00     0.035 A 
HETATM    6  C   UNL     1      40.481 -16.035   3.648  1.00  0.00     0.032 A 
HETATM    7  C   UNL     1      41.299 -16.633   4.612  1.00  0.00     0.039 A 
HETATM    8  C   UNL     1      42.421 -15.966   5.107  1.00  0.00     0.069 A 
HETATM    9  C   UNL     1      42.686 -14.668   4.678  1.00  0.00     0.039 A 
HETATM   10  C   UNL     1      41.871 -14.071   3.710  1.00  0.00     0.032 A 
BRANCH   8  11
HETATM   11  O   UNL     1      43.169 -16.677   6.002  1.00  0.00    -0.347 OA
BRANCH  11  12
HETATM   12  C   UNL     1      44.412 -17.192   5.518  1.00  0.00     0.214 C 
BRANCH  12  13
HETATM   13  C   UNL     1      44.174 -18.484   4.768  1.00  0.00    -0.034 A 
HETATM   14  C   UNL     1      44.152 -18.485   3.365  1.00  0.00     0.009 A 
HETATM   15  C   UNL     1      43.944 -19.672   2.658  1.00  0.00     0.001 A 
HETATM   16  C   UNL     1      43.767 -20.871   3.344  1.00  0.00     0.000 A 
HETATM   17  C   UNL     1      43.805 -20.886   4.737  1.00  0.00     0.001 A 
HETATM   18  C   UNL     1      44.014 -19.702   5.445  1.00  0.00     0.009 A 
ENDBRANCH  12  13
ENDBRANCH  11  12
ENDBRANCH   8  11
ENDBRANCH   1   5
BRANCH   2  19
HETATM   19  C   UNL     1      39.444 -12.674   0.329  1.00  0.00     0.156 A 
HETATM   20  N   UNL     1      39.059 -11.524   0.812  1.00  0.00    -0.166 NA
HETATM   21  N   UNL     1      38.083 -10.847   0.146  1.00  0.00    -0.242 N 
HETATM   22  C   UNL     1      37.454 -11.257  -1.005  1.00  0.00     0.272 A 
HETATM   23  H   UNL     1      37.775  -9.967   0.550  1.00  0.00     0.192 HD
HETATM   24  O   UNL     1      36.576 -10.593  -1.544  1.00  0.00    -0.266 OA
HETATM   25  C   UNL     1      37.906 -12.540  -1.571  1.00  0.00     0.046 A 
HETATM   26  C   UNL     1      38.904 -13.260  -0.917  1.00  0.00     0.016 A 
HETATM   27  C   UNL     1      37.345 -13.017  -2.763  1.00  0.00     0.018 A 
HETATM   28  C   UNL     1      39.358 -14.462  -1.474  1.00  0.00     0.015 A 
HETATM   29  C   UNL     1      38.798 -14.940  -2.663  1.00  0.00     0.001 A 
HETATM   30  C   UNL     1      37.793 -14.220  -3.306  1.00  0.00     0.001 A 
ENDBRANCH   2  19
TORSDOF 5
ENDMDL
MODEL 6
REMARK VINA RESULT:      -8.9      1.888      2.409
REMARK  5 active torsions:
REMARK  status: ('A' for Active; 'I' for Inactive)
REMARK    1  A    between atoms: C_4  and  C_5 
REMARK    2  A    between atoms: C_5  and  O_6 
REMARK    3  A    between atoms: O_6  and  C_7 
REMARK    4  A    between atoms: C_10  and  N_11 
REMARK       I    between atoms: N_11  and  C_12 
REMARK    5  A    between atoms: C_12  and  C_13 
ROOT
HETATM    1  N   UNL     1      41.658 -12.022   6.392  1.00  0.00    -0.322 N 
HETATM    2  C   UNL     1      42.053 -10.711   6.235  1.00  0.00     0.277 C 
HETATM    3  O   UNL     1      42.403 -10.136   5.218  1.00  0.00    -0.266 OA
HETATM    4  H   UNL     1      41.258 -12.239   7.300  1.00  0.00     0.169 HD
ENDROOT
BRANCH   1   5
HETATM    5  C   UNL     1      41.733 -13.060   5.448  1.00  0.00     0.035 A 
HETATM    6  C   UNL     1      42.911 -13.432   4.802  1.00  0.00     0.032 A 
HETATM    7  C   UNL     1      42.923 -14.535   3.941  1.00  0.00     0.039 A 
HETATM    8  C   UNL     1      41.764 -15.280   3.723  1.00  0.00     0.069 A 
HETATM    9  C   UNL     1      40.572 -14.880   4.322  1.00  0.00     0.039 A 
HETATM   10  C   UNL     1      40.561 -13.780   5.188  1.00  0.00     0.032 A 
BRANCH   8  11
HETATM   11  O   UNL     1      41.917 -16.364   2.905  1.00  0.00    -0.347 OA
BRANCH  11  12
HETATM   12  C   UNL     1      43.263 -16.730   2.587  1.00  0.00     0.214 C 
BRANCH  12  13
HETATM   13  C   UNL     1      43.515 -18.165   2.995  1.00  0.00    -0.034 A 
HETATM   14  C   UNL     1      43.996 -18.452   4.282  1.00  0.00     0.009 A 
HETATM   15  C   UNL     1      44.223 -19.771   4.678  1.00  0.00     0.001 A 
HETATM   16  C   UNL     1      43.962 -20.819   3.797  1.00  0.00     0.000 A 
HETATM   17  C   UNL     1      43.467 -20.548   2.523  1.00  0.00     0.001 A 
HETATM   18  C   UNL     1      43.238 -19.230   2.126  1.00  0.00     0.009 A 
ENDBRANCH  12  13
ENDBRANCH  11  12
ENDBRANCH   8  11
ENDBRANCH   1   5
BRANCH   2  19
HETATM   19  C   UNL     1      42.017  -9.951   7.560  1.00  0.00     0.156 A 
HETATM   20  N   UNL     1      40.865  -9.428   7.882  1.00  0.00    -0.166 NA
HETATM   21  N   UNL     1      40.778  -8.758   9.065  1.00  0.00    -0.242 N 
HETATM   22  C   UNL     1      41.796  -8.577   9.970  1.00  0.00     0.272 A 
HETATM   23  H   UNL     1      39.882  -8.333   9.287  1.00  0.00     0.192 HD
HETATM   24  O   UNL     1      41.640  -7.953  11.014  1.00  0.00    -0.266 OA
HETATM   25  C   UNL     1      43.089  -9.191   9.625  1.00  0.00     0.046 A 
HETATM   26  C   UNL     1      43.216  -9.886   8.424  1.00  0.00     0.016 A 
HETATM   27  C   UNL     1      44.172  -9.087  10.508  1.00  0.00     0.018 A 
HETATM   28  C   UNL     1      44.435 -10.499   8.112  1.00  0.00     0.015 A 
HETATM   29  C   UNL     1      45.517 -10.396   8.992  1.00  0.00     0.001 A 
HETATM   30  C   UNL     1      45.387  -9.691  10.188  1.00  0.00     0.001 A 
ENDBRANCH   2  19
TORSDOF 5
ENDMDL
MODEL 7
REMARK VINA RESULT:      -8.5      6.384     10.410
REMARK  5 active torsions:
REMARK  status: ('A' for Active; 'I' for Inactive)
REMARK    1  A    between atoms: C_4  and  C_5 
REMARK    2  A    between atoms: C_5  and  O_6 
REMARK    3  A    between atoms: O_6  and  C_7 
REMARK    4  A    between atoms: C_10  and  N_11 
REMARK       I    between atoms: N_11  and  C_12 
REMARK    5  A    between atoms: C_12  and  C_13 
ROOT
HETATM    1  N   UNL     1      41.912  -7.639  15.682  1.00  0.00    -0.322 N 
HETATM    2  C   UNL     1      40.905  -6.794  16.095  1.00  0.00     0.277 C 
HETATM    3  O   UNL     1      39.891  -6.467  15.501  1.00  0.00    -0.266 OA
HETATM    4  H   UNL     1      42.580  -7.890  16.406  1.00  0.00     0.169 HD
ENDROOT
BRANCH   1   5
HETATM    5  C   UNL     1      42.101  -8.188  14.403  1.00  0.00     0.035 A 
HETATM    6  C   UNL     1      43.128  -7.804  13.541  1.00  0.00     0.032 A 
HETATM    7  C   UNL     1      43.304  -8.461  12.318  1.00  0.00     0.039 A 
HETATM    8  C   UNL     1      42.464  -9.511  11.948  1.00  0.00     0.069 A 
HETATM    9  C   UNL     1      41.403  -9.863  12.779  1.00  0.00     0.039 A 
HETATM   10  C   UNL     1      41.230  -9.209  14.005  1.00  0.00     0.032 A 
BRANCH   8  11
HETATM   11  O   UNL     1      42.772 -10.107  10.757  1.00  0.00    -0.347 OA
BRANCH  11  12
HETATM   12  C   UNL     1      42.984  -9.229   9.649  1.00  0.00     0.214 C 
BRANCH  12  13
HETATM   13  C   UNL     1      44.183  -9.692   8.850  1.00  0.00    -0.034 A 
HETATM   14  C   UNL     1      44.141 -10.922   8.175  1.00  0.00     0.009 A 
HETATM   15  C   UNL     1      45.235 -11.359   7.424  1.00  0.00     0.001 A 
HETATM   16  C   UNL     1      46.377 -10.568   7.331  1.00  0.00     0.000 A 
HETATM   17  C   UNL     1      46.425  -9.336   7.982  1.00  0.00     0.001 A 
HETATM   18  C   UNL     1      45.332  -8.898   8.731  1.00  0.00     0.009 A 
ENDBRANCH  12  13
ENDBRANCH  11  12
ENDBRANCH   8  11
ENDBRANCH   1   5
BRANCH   2  19
HETATM   19  C   UNL     1      41.175  -6.241  17.494  1.00  0.00     0.156 A 
HETATM   20  N   UNL     1      41.889  -5.149  17.544  1.00  0.00    -0.166 NA
HETATM   21  N   UNL     1      42.139  -4.606  18.768  1.00  0.00    -0.242 N 
HETATM   22  C   UNL     1      41.705  -5.098  19.975  1.00  0.00     0.272 A 
HETATM   23  H   UNL     1      42.720  -3.773  18.791  1.00  0.00     0.192 HD
HETATM   24  O   UNL     1      41.979  -4.554  21.040  1.00  0.00    -0.266 OA
HETATM   25  C   UNL     1      40.874  -6.313  19.922  1.00  0.00     0.046 A 
HETATM   26  C   UNL     1      40.596  -6.895  18.687  1.00  0.00     0.016 A 
HETATM   27  C   UNL     1      40.358  -6.861  21.103  1.00  0.00     0.018 A 
HETATM   28  C   UNL     1      39.777  -8.030  18.634  1.00  0.00     0.015 A 
HETATM   29  C   UNL     1      39.262  -8.579  19.812  1.00  0.00     0.001 A 
HETATM   30  C   UNL     1      39.552  -7.997  21.045  1.00  0.00     0.001 A 
ENDBRANCH   2  19
TORSDOF 5
ENDMDL
MODEL 8
REMARK VINA RESULT:      -8.5      6.799     10.520
REMARK  5 active torsions:
REMARK  status: ('A' for Active; 'I' for Inactive)
REMARK    1  A    between atoms: C_4  and  C_5 
REMARK    2  A    between atoms: C_5  and  O_6 
REMARK    3  A    between atoms: O_6  and  C_7 
REMARK    4  A    between atoms: C_10  and  N_11 
REMARK       I    between atoms: N_11  and  C_12 
REMARK    5  A    between atoms: C_12  and  C_13 
ROOT
HETATM    1  N   UNL     1      40.797 -14.372   1.273  1.00  0.00    -0.322 N 
HETATM    2  C   UNL     1      40.397 -15.246   2.261  1.00  0.00     0.277 C 
HETATM    3  O   UNL     1      39.355 -15.873   2.350  1.00  0.00    -0.266 OA
HETATM    4  H   UNL     1      41.772 -14.089   1.325  1.00  0.00     0.169 HD
ENDROOT
BRANCH   1   5
HETATM    5  C   UNL     1      40.024 -13.857   0.219  1.00  0.00     0.035 A 
HETATM    6  C   UNL     1      39.731 -14.570  -0.943  1.00  0.00     0.032 A 
HETATM    7  C   UNL     1      38.881 -14.021  -1.909  1.00  0.00     0.039 A 
HETATM    8  C   UNL     1      38.310 -12.762  -1.723  1.00  0.00     0.069 A 
HETATM    9  C   UNL     1      38.644 -12.023  -0.590  1.00  0.00     0.039 A 
HETATM   10  C   UNL     1      39.490 -12.573   0.379  1.00  0.00     0.032 A 
BRANCH   8  11
HETATM   11  O   UNL     1      37.455 -12.361  -2.710  1.00  0.00    -0.347 OA
BRANCH  11  12
HETATM   12  C   UNL     1      37.102 -10.975  -2.714  1.00  0.00     0.214 C 
BRANCH  12  13
HETATM   13  C   UNL     1      35.612 -10.826  -2.929  1.00  0.00    -0.034 A 
HETATM   14  C   UNL     1      34.932 -11.725  -3.766  1.00  0.00     0.009 A 
HETATM   15  C   UNL     1      33.555 -11.608  -3.967  1.00  0.00     0.001 A 
HETATM   16  C   UNL     1      32.840 -10.599  -3.325  1.00  0.00     0.000 A 
HETATM   17  C   UNL     1      33.500  -9.712  -2.477  1.00  0.00     0.001 A 
HETATM   18  C   UNL     1      34.876  -9.828  -2.275  1.00  0.00     0.009 A 
ENDBRANCH  12  13
ENDBRANCH  11  12
ENDBRANCH   8  11
ENDBRANCH   1   5
BRANCH   2  19
HETATM   19  C   UNL     1      41.462 -15.389   3.348  1.00  0.00     0.156 A 
HETATM   20  N   UNL     1      41.453 -14.470   4.276  1.00  0.00    -0.166 NA
HETATM   21  N   UNL     1      42.370 -14.566   5.278  1.00  0.00    -0.242 N 
HETATM   22  C   UNL     1      43.319 -15.551   5.415  1.00  0.00     0.272 A 
HETATM   23  H   UNL     1      42.368 -13.828   5.976  1.00  0.00     0.192 HD
HETATM   24  O   UNL     1      44.118 -15.565   6.345  1.00  0.00    -0.266 OA
HETATM   25  C   UNL     1      43.314 -16.606   4.388  1.00  0.00     0.046 A 
HETATM   26  C   UNL     1      42.388 -16.542   3.348  1.00  0.00     0.016 A 
HETATM   27  C   UNL     1      44.222 -17.670   4.471  1.00  0.00     0.018 A 
HETATM   28  C   UNL     1      42.360 -17.564   2.391  1.00  0.00     0.015 A 
HETATM   29  C   UNL     1      43.267 -18.626   2.472  1.00  0.00     0.001 A 
HETATM   30  C   UNL     1      44.197 -18.679   3.509  1.00  0.00     0.001 A 
ENDBRANCH   2  19
TORSDOF 5
ENDMDL
MODEL 9
REMARK VINA RESULT:      -8.5      5.793      9.634
REMARK  5 active torsions:
REMARK  status: ('A' for Active; 'I' for Inactive)
REMARK    1  A    between atoms: C_4  and  C_5 
REMARK    2  A    between atoms: C_5  and  O_6 
REMARK    3  A    between atoms: O_6  and  C_7 
REMARK    4  A    between atoms: C_10  and  N_11 
REMARK       I    between atoms: N_11  and  C_12 
REMARK    5  A    between atoms: C_12  and  C_13 
ROOT
HETATM    1  N   UNL     1      41.351 -14.601   2.507  1.00  0.00    -0.322 N 
HETATM    2  C   UNL     1      42.715 -14.731   2.646  1.00  0.00     0.277 C 
HETATM    3  O   UNL     1      43.600 -14.330   1.908  1.00  0.00    -0.266 OA
HETATM    4  H   UNL     1      40.812 -14.873   3.325  1.00  0.00     0.169 HD
ENDROOT
BRANCH   1   5
HETATM    5  C   UNL     1      40.643 -14.129   1.388  1.00  0.00     0.035 A 
HETATM    6  C   UNL     1      40.378 -14.903   0.260  1.00  0.00     0.032 A 
HETATM    7  C   UNL     1      39.590 -14.389  -0.776  1.00  0.00     0.039 A 
HETATM    8  C   UNL     1      39.054 -13.104  -0.693  1.00  0.00     0.069 A 
HETATM    9  C   UNL     1      39.362 -12.307   0.407  1.00  0.00     0.039 A 
HETATM   10  C   UNL     1      40.145 -12.821   1.446  1.00  0.00     0.032 A 
BRANCH   8  11
HETATM   11  O   UNL     1      38.258 -12.739  -1.742  1.00  0.00    -0.347 OA
BRANCH  11  12
HETATM   12  C   UNL     1      38.914 -12.559  -3.000  1.00  0.00     0.214 C 
BRANCH  12  13
HETATM   13  C   UNL     1      39.317 -11.111  -3.165  1.00  0.00    -0.034 A 
HETATM   14  C   UNL     1      38.332 -10.123  -3.318  1.00  0.00     0.009 A 
HETATM   15  C   UNL     1      38.687  -8.780  -3.462  1.00  0.00     0.001 A 
HETATM   16  C   UNL     1      40.030  -8.408  -3.442  1.00  0.00     0.000 A 
HETATM   17  C   UNL     1      41.017  -9.377  -3.273  1.00  0.00     0.001 A 
HETATM   18  C   UNL     1      40.663 -10.719  -3.128  1.00  0.00     0.009 A 
ENDBRANCH  12  13
ENDBRANCH  11  12
ENDBRANCH   8  11
ENDBRANCH   1   5
BRANCH   2  19
HETATM   19  C   UNL     1      43.080 -15.489   3.922  1.00  0.00     0.156 A 
HETATM   20  N   UNL     1      43.027 -14.796   5.028  1.00  0.00    -0.166 NA
HETATM   21  N   UNL     1      43.324 -15.434   6.194  1.00  0.00    -0.242 N 
HETATM   22  C   UNL     1      43.675 -16.756   6.328  1.00  0.00     0.272 A 
HETATM   23  H   UNL     1      43.306 -14.874   7.042  1.00  0.00     0.192 HD
HETATM   24  O   UNL     1      43.935 -17.257   7.416  1.00  0.00    -0.266 OA
HETATM   25  C   UNL     1      43.706 -17.549   5.087  1.00  0.00     0.046 A 
HETATM   26  C   UNL     1      43.407 -16.930   3.874  1.00  0.00     0.016 A 
HETATM   27  C   UNL     1      44.017 -18.914   5.135  1.00  0.00     0.018 A 
HETATM   28  C   UNL     1      43.402 -17.692   2.700  1.00  0.00     0.015 A 
HETATM   29  C   UNL     1      43.713 -19.055   2.746  1.00  0.00     0.001 A 
HETATM   30  C   UNL     1      44.022 -19.665   3.961  1.00  0.00     0.001 A 
ENDBRANCH   2  19
TORSDOF 5
ENDMDL
MODEL 10
REMARK VINA RESULT:      -8.4      3.078     10.262
REMARK  5 active torsions:
REMARK  status: ('A' for Active; 'I' for Inactive)
REMARK    1  A    between atoms: C_4  and  C_5 
REMARK    2  A    between atoms: C_5  and  O_6 
REMARK    3  A    between atoms: O_6  and  C_7 
REMARK    4  A    between atoms: C_10  and  N_11 
REMARK       I    between atoms: N_11  and  C_12 
REMARK    5  A    between atoms: C_12  and  C_13 
ROOT
HETATM    1  N   UNL     1      42.664 -11.437   5.321  1.00  0.00    -0.322 N 
HETATM    2  C   UNL     1      43.489 -11.527   4.222  1.00  0.00     0.277 C 
HETATM    3  O   UNL     1      44.684 -11.294   4.142  1.00  0.00    -0.266 OA
HETATM    4  H   UNL     1      41.737 -11.834   5.191  1.00  0.00     0.169 HD
ENDROOT
BRANCH   1   5
HETATM    5  C   UNL     1      42.964 -10.882   6.577  1.00  0.00     0.035 A 
HETATM    6  C   UNL     1      42.240  -9.839   7.153  1.00  0.00     0.032 A 
HETATM    7  C   UNL     1      42.546  -9.401   8.446  1.00  0.00     0.039 A 
HETATM    8  C   UNL     1      43.570 -10.002   9.178  1.00  0.00     0.069 A 
HETATM    9  C   UNL     1      44.333 -11.006   8.587  1.00  0.00     0.039 A 
HETATM   10  C   UNL     1      44.024 -11.449   7.295  1.00  0.00     0.032 A 
BRANCH   8  11
HETATM   11  O   UNL     1      43.735  -9.522  10.447  1.00  0.00    -0.347 OA
BRANCH  11  12
HETATM   12  C   UNL     1      42.967 -10.163  11.469  1.00  0.00     0.214 C 
BRANCH  12  13
HETATM   13  C   UNL     1      42.780  -9.220  12.637  1.00  0.00    -0.034 A 
HETATM   14  C   UNL     1      43.506  -8.020  12.691  1.00  0.00     0.009 A 
HETATM   15  C   UNL     1      43.337  -7.134  13.757  1.00  0.00     0.001 A 
HETATM   16  C   UNL     1      42.433  -7.431  14.775  1.00  0.00     0.000 A 
HETATM   17  C   UNL     1      41.693  -8.610  14.723  1.00  0.00     0.001 A 
HETATM   18  C   UNL     1      41.859  -9.497  13.658  1.00  0.00     0.009 A 
ENDBRANCH  12  13
ENDBRANCH  11  12
ENDBRANCH   8  11
ENDBRANCH   1   5
BRANCH   2  19
HETATM   19  C   UNL     1      42.724 -11.990   2.982  1.00  0.00     0.156 A 
HETATM   20  N   UNL     1      42.296 -11.042   2.194  1.00  0.00    -0.166 NA
HETATM   21  N   UNL     1      41.626 -11.406   1.065  1.00  0.00    -0.242 N 
HETATM   22  C   UNL     1      41.354 -12.692   0.664  1.00  0.00     0.272 A 
HETATM   23  H   UNL     1      41.274 -10.655   0.477  1.00  0.00     0.192 HD
HETATM   24  O   UNL     1      40.736 -12.939  -0.366  1.00  0.00    -0.266 OA
HETATM   25  C   UNL     1      41.861 -13.765   1.535  1.00  0.00     0.046 A 
HETATM   26  C   UNL     1      42.553 -13.431   2.698  1.00  0.00     0.016 A 
HETATM   27  C   UNL     1      41.661 -15.107   1.183  1.00  0.00     0.018 A 
HETATM   28  C   UNL     1      43.065 -14.452   3.507  1.00  0.00     0.015 A 
HETATM   29  C   UNL     1      42.866 -15.791   3.158  1.00  0.00     0.001 A 
HETATM   30  C   UNL     1      42.164 -16.119   1.999  1.00  0.00     0.001 A 
ENDBRANCH   2  19
TORSDOF 5
ENDMDL
