MODEL 1
REMARK VINA RESULT:      -8.5      0.000      0.000
REMARK  5 active torsions:
REMARK  status: ('A' for Active; 'I' for Inactive)
REMARK    1  A    between atoms: O_2  and  C_3 
REMARK    2  A    between atoms: C_4  and  O_5 
REMARK    3  A    between atoms: C_10  and  C_11 
REMARK    4  A    between atoms: C_13  and  O_14 
REMARK    5  A    between atoms: O_14  and  C_15 
ROOT
HETATM    1  C   UNL     1      43.247 -12.439   6.300  1.00  0.00     0.102 A 
HETATM    2  C   UNL     1      42.918 -11.091   6.519  1.00  0.00     0.103 A 
HETATM    3  C   UNL     1      42.522 -10.287   5.446  1.00  0.00     0.069 A 
HETATM    4  C   UNL     1      42.380 -10.842   4.172  1.00  0.00     0.044 A 
HETATM    5  C   UNL     1      42.635 -12.198   3.946  1.00  0.00    -0.020 A 
HETATM    6  C   UNL     1      42.517 -12.748   2.530  1.00  0.00     0.063 C 
HETATM    7  C   UNL     1      41.532 -11.936   1.688  1.00  0.00     0.117 C 
HETATM    8  C   UNL     1      41.736 -10.452   1.847  1.00  0.00     0.223 C 
HETATM    9  O   UNL     1      41.535  -9.657   0.932  1.00  0.00    -0.273 OA
HETATM   10  N   UNL     1      42.028 -10.011   3.107  1.00  0.00    -0.327 N 
HETATM   11  C   UNL     1      43.108 -12.979   5.017  1.00  0.00     0.049 A 
HETATM   12  H   UNL     1      42.013  -9.006   3.230  1.00  0.00     0.169 HD
ENDROOT
BRANCH   6  13
HETATM   13  C   UNL     1      42.136 -14.224   2.462  1.00  0.00    -0.046 A 
HETATM   14  C   UNL     1      43.117 -15.221   2.305  1.00  0.00     0.045 A 
HETATM   15  C   UNL     1      42.747 -16.559   2.149  1.00  0.00     0.076 A 
HETATM   16  C   UNL     1      41.408 -16.930   2.239  1.00  0.00     0.037 A 
HETATM   17  C   UNL     1      40.429 -15.957   2.430  1.00  0.00     0.003 A 
HETATM   18  C   UNL     1      40.788 -14.610   2.530  1.00  0.00     0.008 A 
BRANCH  15  19
HETATM   19  O   UNL     1      43.669 -17.561   1.960  1.00  0.00    -0.311 OA
BRANCH  19  20
HETATM   20  C   UNL     1      43.773 -18.550   2.916  1.00  0.00     0.076 A 
HETATM   21  C   UNL     1      44.015 -18.313   4.272  1.00  0.00     0.037 A 
HETATM   22  C   UNL     1      44.117 -19.384   5.163  1.00  0.00     0.003 A 
HETATM   23  C   UNL     1      44.010 -20.694   4.694  1.00  0.00     0.000 A 
HETATM   24  C   UNL     1      43.804 -20.933   3.336  1.00  0.00     0.003 A 
HETATM   25  C   UNL     1      43.687 -19.862   2.448  1.00  0.00     0.037 A 
ENDBRANCH  19  20
ENDBRANCH  15  19
ENDBRANCH   6  13
BRANCH   1  26
HETATM   26  O   UNL     1      43.663 -13.150   7.398  1.00  0.00    -0.353 OA
HETATM   27  C   UNL     1      43.253 -14.508   7.487  1.00  0.00     0.210 C 
ENDBRANCH   1  26
BRANCH   2  28
HETATM   28  O   UNL     1      43.073 -10.616   7.799  1.00  0.00    -0.353 OA
HETATM   29  C   UNL     1      43.857  -9.437   7.932  1.00  0.00     0.210 C 
ENDBRANCH   2  28
TORSDOF 5
ENDMDL
MODEL 2
REMARK VINA RESULT:      -8.5      2.957      4.876
REMARK  5 active torsions:
REMARK  status: ('A' for Active; 'I' for Inactive)
REMARK    1  A    between atoms: O_2  and  C_3 
REMARK    2  A    between atoms: C_4  and  O_5 
REMARK    3  A    between atoms: C_10  and  C_11 
REMARK    4  A    between atoms: C_13  and  O_14 
REMARK    5  A    between atoms: O_14  and  C_15 
ROOT
HETATM    1  C   UNL     1      40.767 -10.733   0.930  1.00  0.00     0.102 A 
HETATM    2  C   UNL     1      39.882 -10.144   0.012  1.00  0.00     0.103 A 
HETATM    3  C   UNL     1      39.284 -10.927  -0.981  1.00  0.00     0.069 A 
HETATM    4  C   UNL     1      39.508 -12.305  -1.012  1.00  0.00     0.044 A 
HETATM    5  C   UNL     1      40.331 -12.923  -0.066  1.00  0.00    -0.020 A 
HETATM    6  C   UNL     1      40.588 -14.420  -0.171  1.00  0.00     0.063 C 
HETATM    7  C   UNL     1      39.434 -15.145  -0.868  1.00  0.00     0.117 C 
HETATM    8  C   UNL     1      38.977 -14.425  -2.110  1.00  0.00     0.223 C 
HETATM    9  O   UNL     1      38.546 -15.018  -3.095  1.00  0.00    -0.273 OA
HETATM   10  N   UNL     1      38.938 -13.060  -2.040  1.00  0.00    -0.327 N 
HETATM   11  C   UNL     1      40.988 -12.114   0.880  1.00  0.00     0.049 A 
HETATM   12  H   UNL     1      38.490 -12.598  -2.822  1.00  0.00     0.169 HD
ENDROOT
BRANCH   6  13
HETATM   13  C   UNL     1      40.872 -15.102   1.165  1.00  0.00    -0.046 A 
HETATM   14  C   UNL     1      42.154 -15.597   1.468  1.00  0.00     0.045 A 
HETATM   15  C   UNL     1      42.378 -16.302   2.654  1.00  0.00     0.076 A 
HETATM   16  C   UNL     1      41.355 -16.443   3.588  1.00  0.00     0.037 A 
HETATM   17  C   UNL     1      40.089 -15.927   3.315  1.00  0.00     0.003 A 
HETATM   18  C   UNL     1      39.845 -15.270   2.107  1.00  0.00     0.008 A 
BRANCH  15  19
HETATM   19  O   UNL     1      43.605 -16.831   2.976  1.00  0.00    -0.311 OA
BRANCH  19  20
HETATM   20  C   UNL     1      43.688 -18.179   3.255  1.00  0.00     0.076 A 
HETATM   21  C   UNL     1      44.127 -18.708   4.473  1.00  0.00     0.037 A 
HETATM   22  C   UNL     1      44.187 -20.091   4.655  1.00  0.00     0.003 A 
HETATM   23  C   UNL     1      43.841 -20.948   3.610  1.00  0.00     0.000 A 
HETATM   24  C   UNL     1      43.437 -20.423   2.383  1.00  0.00     0.003 A 
HETATM   25  C   UNL     1      43.362 -19.041   2.206  1.00  0.00     0.037 A 
ENDBRANCH  19  20
ENDBRANCH  15  19
ENDBRANCH   6  13
BRANCH   1  26
HETATM   26  O   UNL     1      41.341  -9.890   1.849  1.00  0.00    -0.353 OA
HETATM   27  C   UNL     1      41.922 -10.484   3.002  1.00  0.00     0.210 C 
ENDBRANCH   1  26
BRANCH   2  28
HETATM   28  O   UNL     1      39.703  -8.785   0.109  1.00  0.00    -0.353 OA
HETATM   29  C   UNL     1      40.326  -8.004  -0.902  1.00  0.00     0.210 C 
ENDBRANCH   2  28
TORSDOF 5
ENDMDL
MODEL 3
REMARK VINA RESULT:      -8.4      2.225      2.832
REMARK  5 active torsions:
REMARK  status: ('A' for Active; 'I' for Inactive)
REMARK    1  A    between atoms: O_2  and  C_3 
REMARK    2  A    between atoms: C_4  and  O_5 
REMARK    3  A    between atoms: C_10  and  C_11 
REMARK    4  A    between atoms: C_13  and  O_14 
REMARK    5  A    between atoms: O_14  and  C_15 
ROOT
HETATM    1  C   UNL     1      43.859 -10.884   7.540  1.00  0.00     0.102 A 
HETATM    2  C   UNL     1      43.131  -9.684   7.606  1.00  0.00     0.103 A 
HETATM    3  C   UNL     1      42.004  -9.507   6.798  1.00  0.00     0.069 A 
HETATM    4  C   UNL     1      41.557 -10.551   5.983  1.00  0.00     0.044 A 
HETATM    5  C   UNL     1      42.227 -11.777   5.954  1.00  0.00    -0.020 A 
HETATM    6  C   UNL     1      41.735 -12.868   5.011  1.00  0.00     0.063 C 
HETATM    7  C   UNL     1      40.239 -12.730   4.717  1.00  0.00     0.117 C 
HETATM    8  C   UNL     1      39.850 -11.308   4.406  1.00  0.00     0.223 C 
HETATM    9  O   UNL     1      38.952 -11.028   3.616  1.00  0.00    -0.273 OA
HETATM   10  N   UNL     1      40.457 -10.336   5.151  1.00  0.00    -0.327 N 
HETATM   11  C   UNL     1      43.404 -11.917   6.712  1.00  0.00     0.049 A 
HETATM   12  H   UNL     1      40.078  -9.403   5.039  1.00  0.00     0.169 HD
ENDROOT
BRANCH   6  13
HETATM   13  C   UNL     1      42.020 -14.288   5.493  1.00  0.00    -0.046 A 
HETATM   14  C   UNL     1      43.116 -15.016   4.994  1.00  0.00     0.045 A 
HETATM   15  C   UNL     1      43.312 -16.347   5.372  1.00  0.00     0.076 A 
HETATM   16  C   UNL     1      42.475 -16.937   6.317  1.00  0.00     0.037 A 
HETATM   17  C   UNL     1      41.407 -16.214   6.845  1.00  0.00     0.003 A 
HETATM   18  C   UNL     1      41.173 -14.901   6.429  1.00  0.00     0.008 A 
BRANCH  15  19
HETATM   19  O   UNL     1      44.349 -17.107   4.884  1.00  0.00    -0.311 OA
BRANCH  19  20
HETATM   20  C   UNL     1      44.049 -18.255   4.181  1.00  0.00     0.076 A 
HETATM   21  C   UNL     1      44.293 -19.551   4.646  1.00  0.00     0.037 A 
HETATM   22  C   UNL     1      43.965 -20.653   3.852  1.00  0.00     0.003 A 
HETATM   23  C   UNL     1      43.425 -20.461   2.581  1.00  0.00     0.000 A 
HETATM   24  C   UNL     1      43.214 -19.169   2.101  1.00  0.00     0.003 A 
HETATM   25  C   UNL     1      43.527 -18.068   2.901  1.00  0.00     0.037 A 
ENDBRANCH  19  20
ENDBRANCH  15  19
ENDBRANCH   6  13
BRANCH   1  26
HETATM   26  O   UNL     1      44.974 -10.965   8.336  1.00  0.00    -0.353 OA
HETATM   27  C   UNL     1      46.234 -10.752   7.714  1.00  0.00     0.210 C 
ENDBRANCH   1  26
BRANCH   2  28
HETATM   28  O   UNL     1      43.624  -8.706   8.436  1.00  0.00    -0.353 OA
HETATM   29  C   UNL     1      42.652  -7.947   9.144  1.00  0.00     0.210 C 
ENDBRANCH   2  28
TORSDOF 5
ENDMDL
MODEL 4
REMARK VINA RESULT:      -8.3      2.142      4.599
REMARK  5 active torsions:
REMARK  status: ('A' for Active; 'I' for Inactive)
REMARK    1  A    between atoms: O_2  and  C_3 
REMARK    2  A    between atoms: C_4  and  O_5 
REMARK    3  A    between atoms: C_10  and  C_11 
REMARK    4  A    between atoms: C_13  and  O_14 
REMARK    5  A    between atoms: O_14  and  C_15 
ROOT
HETATM    1  C   UNL     1      40.449 -13.669   0.992  1.00  0.00     0.102 A 
HETATM    2  C   UNL     1      40.850 -12.514   0.300  1.00  0.00     0.103 A 
HETATM    3  C   UNL     1      41.364 -11.422   1.006  1.00  0.00     0.069 A 
HETATM    4  C   UNL     1      41.550 -11.508   2.388  1.00  0.00     0.044 A 
HETATM    5  C   UNL     1      41.222 -12.674   3.086  1.00  0.00    -0.020 A 
HETATM    6  C   UNL     1      41.393 -12.703   4.600  1.00  0.00     0.063 C 
HETATM    7  C   UNL     1      42.480 -11.733   5.066  1.00  0.00     0.117 C 
HETATM    8  C   UNL     1      42.363 -10.386   4.402  1.00  0.00     0.223 C 
HETATM    9  O   UNL     1      42.671  -9.341   4.970  1.00  0.00    -0.273 OA
HETATM   10  N   UNL     1      42.021 -10.390   3.078  1.00  0.00    -0.327 N 
HETATM   11  C   UNL     1      40.633 -13.737   2.377  1.00  0.00     0.049 A 
HETATM   12  H   UNL     1      42.094  -9.495   2.608  1.00  0.00     0.169 HD
ENDROOT
BRANCH   6  13
HETATM   13  C   UNL     1      41.681 -14.089   5.170  1.00  0.00    -0.046 A 
HETATM   14  C   UNL     1      42.835 -14.802   4.796  1.00  0.00     0.045 A 
HETATM   15  C   UNL     1      43.040 -16.107   5.252  1.00  0.00     0.076 A 
HETATM   16  C   UNL     1      42.149 -16.681   6.155  1.00  0.00     0.037 A 
HETATM   17  C   UNL     1      41.020 -15.971   6.562  1.00  0.00     0.003 A 
HETATM   18  C   UNL     1      40.781 -14.688   6.065  1.00  0.00     0.008 A 
BRANCH  15  19
HETATM   19  O   UNL     1      44.136 -16.853   4.886  1.00  0.00    -0.311 OA
BRANCH  19  20
HETATM   20  C   UNL     1      43.929 -18.046   4.226  1.00  0.00     0.076 A 
HETATM   21  C   UNL     1      44.212 -19.305   4.765  1.00  0.00     0.037 A 
HETATM   22  C   UNL     1      43.979 -20.458   4.012  1.00  0.00     0.003 A 
HETATM   23  C   UNL     1      43.494 -20.353   2.708  1.00  0.00     0.000 A 
HETATM   24  C   UNL     1      43.244 -19.097   2.156  1.00  0.00     0.003 A 
HETATM   25  C   UNL     1      43.462 -17.946   2.914  1.00  0.00     0.037 A 
ENDBRANCH  19  20
ENDBRANCH  15  19
ENDBRANCH   6  13
BRANCH   1  26
HETATM   26  O   UNL     1      39.920 -14.682   0.231  1.00  0.00    -0.353 OA
HETATM   27  C   UNL     1      39.835 -15.968   0.828  1.00  0.00     0.210 C 
ENDBRANCH   1  26
BRANCH   2  28
HETATM   28  O   UNL     1      40.646 -12.504  -1.059  1.00  0.00    -0.353 OA
HETATM   29  C   UNL     1      39.674 -11.582  -1.533  1.00  0.00     0.210 C 
ENDBRANCH   2  28
TORSDOF 5
ENDMDL
MODEL 5
REMARK VINA RESULT:      -8.2      2.936      7.472
REMARK  5 active torsions:
REMARK  status: ('A' for Active; 'I' for Inactive)
REMARK    1  A    between atoms: O_2  and  C_3 
REMARK    2  A    between atoms: C_4  and  O_5 
REMARK    3  A    between atoms: C_10  and  C_11 
REMARK    4  A    between atoms: C_13  and  O_14 
REMARK    5  A    between atoms: O_14  and  C_15 
ROOT
HETATM    1  C   UNL     1      43.970 -18.493   3.200  1.00  0.00     0.102 A 
HETATM    2  C   UNL     1      44.275 -18.702   4.556  1.00  0.00     0.103 A 
HETATM    3  C   UNL     1      44.112 -17.661   5.475  1.00  0.00     0.069 A 
HETATM    4  C   UNL     1      43.573 -16.441   5.060  1.00  0.00     0.044 A 
HETATM    5  C   UNL     1      43.198 -16.235   3.729  1.00  0.00    -0.020 A 
HETATM    6  C   UNL     1      42.665 -14.871   3.312  1.00  0.00     0.063 C 
HETATM    7  C   UNL     1      42.008 -14.137   4.484  1.00  0.00     0.117 C 
HETATM    8  C   UNL     1      42.839 -14.210   5.738  1.00  0.00     0.223 C 
HETATM    9  O   UNL     1      42.869 -13.300   6.562  1.00  0.00    -0.273 OA
HETATM   10  N   UNL     1      43.461 -15.401   5.985  1.00  0.00    -0.327 N 
HETATM   11  C   UNL     1      43.440 -17.262   2.798  1.00  0.00     0.049 A 
HETATM   12  H   UNL     1      43.889 -15.486   6.900  1.00  0.00     0.169 HD
ENDROOT
BRANCH   6  13
HETATM   13  C   UNL     1      41.690 -14.912   2.138  1.00  0.00    -0.046 A 
HETATM   14  C   UNL     1      41.701 -13.910   1.150  1.00  0.00     0.045 A 
HETATM   15  C   UNL     1      40.743 -13.908   0.133  1.00  0.00     0.076 A 
HETATM   16  C   UNL     1      39.823 -14.949   0.036  1.00  0.00     0.037 A 
HETATM   17  C   UNL     1      39.824 -15.967   0.989  1.00  0.00     0.003 A 
HETATM   18  C   UNL     1      40.744 -15.944   2.040  1.00  0.00     0.008 A 
BRANCH  15  19
HETATM   19  O   UNL     1      40.695 -12.931  -0.833  1.00  0.00    -0.311 OA
BRANCH  19  20
HETATM   20  C   UNL     1      39.513 -12.246  -1.019  1.00  0.00     0.076 A 
HETATM   21  C   UNL     1      38.790 -11.627   0.005  1.00  0.00     0.037 A 
HETATM   22  C   UNL     1      37.593 -10.967  -0.282  1.00  0.00     0.003 A 
HETATM   23  C   UNL     1      37.100 -10.952  -1.587  1.00  0.00     0.000 A 
HETATM   24  C   UNL     1      37.802 -11.599  -2.604  1.00  0.00     0.003 A 
HETATM   25  C   UNL     1      39.006 -12.246  -2.319  1.00  0.00     0.037 A 
ENDBRANCH  19  20
ENDBRANCH  15  19
ENDBRANCH   6  13
BRANCH   1  26
HETATM   26  O   UNL     1      44.194 -19.552   2.356  1.00  0.00    -0.353 OA
HETATM   27  C   UNL     1      43.057 -20.270   1.896  1.00  0.00     0.210 C 
ENDBRANCH   1  26
BRANCH   2  28
HETATM   28  O   UNL     1      44.792 -19.930   4.892  1.00  0.00    -0.353 OA
HETATM   29  C   UNL     1      43.934 -20.778   5.646  1.00  0.00     0.210 C 
ENDBRANCH   2  28
TORSDOF 5
ENDMDL
MODEL 6
REMARK VINA RESULT:      -8.2      2.370      8.129
REMARK  5 active torsions:
REMARK  status: ('A' for Active; 'I' for Inactive)
REMARK    1  A    between atoms: O_2  and  C_3 
REMARK    2  A    between atoms: C_4  and  O_5 
REMARK    3  A    between atoms: C_10  and  C_11 
REMARK    4  A    between atoms: C_13  and  O_14 
REMARK    5  A    between atoms: O_14  and  C_15 
ROOT
HETATM    1  C   UNL     1      43.469 -15.934   5.308  1.00  0.00     0.102 A 
HETATM    2  C   UNL     1      43.274 -16.305   3.967  1.00  0.00     0.103 A 
HETATM    3  C   UNL     1      42.963 -15.332   3.013  1.00  0.00     0.069 A 
HETATM    4  C   UNL     1      42.924 -13.984   3.377  1.00  0.00     0.044 A 
HETATM    5  C   UNL     1      43.184 -13.586   4.692  1.00  0.00    -0.020 A 
HETATM    6  C   UNL     1      43.077 -12.110   5.054  1.00  0.00     0.063 C 
HETATM    7  C   UNL     1      43.343 -11.210   3.845  1.00  0.00     0.117 C 
HETATM    8  C   UNL     1      42.614 -11.682   2.614  1.00  0.00     0.223 C 
HETATM    9  O   UNL     1      42.187 -10.906   1.763  1.00  0.00    -0.273 OA
HETATM   10  N   UNL     1      42.567 -13.034   2.418  1.00  0.00    -0.327 N 
HETATM   11  C   UNL     1      43.418 -14.581   5.660  1.00  0.00     0.049 A 
HETATM   12  H   UNL     1      42.211 -13.330   1.517  1.00  0.00     0.169 HD
ENDROOT
BRANCH   6  13
HETATM   13  C   UNL     1      43.983 -11.681   6.205  1.00  0.00    -0.046 A 
HETATM   14  C   UNL     1      43.496 -11.608   7.523  1.00  0.00     0.045 A 
HETATM   15  C   UNL     1      44.309 -11.124   8.552  1.00  0.00     0.076 A 
HETATM   16  C   UNL     1      45.638 -10.795   8.298  1.00  0.00     0.037 A 
HETATM   17  C   UNL     1      46.143 -10.897   7.003  1.00  0.00     0.003 A 
HETATM   18  C   UNL     1      45.319 -11.327   5.960  1.00  0.00     0.008 A 
BRANCH  15  19
HETATM   19  O   UNL     1      43.865 -11.003   9.847  1.00  0.00    -0.311 OA
BRANCH  19  20
HETATM   20  C   UNL     1      43.452  -9.763  10.289  1.00  0.00     0.076 A 
HETATM   21  C   UNL     1      42.868  -8.789   9.474  1.00  0.00     0.037 A 
HETATM   22  C   UNL     1      42.495  -7.556  10.014  1.00  0.00     0.003 A 
HETATM   23  C   UNL     1      42.735  -7.282  11.360  1.00  0.00     0.000 A 
HETATM   24  C   UNL     1      43.350  -8.239  12.167  1.00  0.00     0.003 A 
HETATM   25  C   UNL     1      43.709  -9.477  11.631  1.00  0.00     0.037 A 
ENDBRANCH  19  20
ENDBRANCH  15  19
ENDBRANCH   6  13
BRANCH   1  26
HETATM   26  O   UNL     1      43.732 -16.953   6.190  1.00  0.00    -0.353 OA
HETATM   27  C   UNL     1      43.722 -16.634   7.575  1.00  0.00     0.210 C 
ENDBRANCH   1  26
BRANCH   2  28
HETATM   28  O   UNL     1      43.337 -17.648   3.681  1.00  0.00    -0.353 OA
HETATM   29  C   UNL     1      42.900 -18.026   2.382  1.00  0.00     0.210 C 
ENDBRANCH   2  28
TORSDOF 5
ENDMDL
MODEL 7
REMARK VINA RESULT:      -7.8      2.107      3.927
REMARK  5 active torsions:
REMARK  status: ('A' for Active; 'I' for Inactive)
REMARK    1  A    between atoms: O_2  and  C_3 
REMARK    2  A    between atoms: C_4  and  O_5 
REMARK    3  A    between atoms: C_10  and  C_11 
REMARK    4  A    between atoms: C_13  and  O_14 
REMARK    5  A    between atoms: O_14  and  C_15 
ROOT
HETATM    1  C   UNL     1      40.290 -10.618   4.202  1.00  0.00     0.102 A 
HETATM    2  C   UNL     1      41.046  -9.438   4.301  1.00  0.00     0.103 A 
HETATM    3  C   UNL     1      42.158  -9.391   5.148  1.00  0.00     0.069 A 
HETATM    4  C   UNL     1      42.561 -10.539   5.835  1.00  0.00     0.044 A 
HETATM    5  C   UNL     1      41.864 -11.743   5.697  1.00  0.00    -0.020 A 
HETATM    6  C   UNL     1      42.309 -12.954   6.505  1.00  0.00     0.063 C 
HETATM    7  C   UNL     1      43.800 -12.892   6.845  1.00  0.00     0.117 C 
HETATM    8  C   UNL     1      44.213 -11.530   7.339  1.00  0.00     0.223 C 
HETATM    9  O   UNL     1      45.099 -11.374   8.176  1.00  0.00    -0.273 OA
HETATM   10  N   UNL     1      43.646 -10.458   6.710  1.00  0.00    -0.327 N 
HETATM   11  C   UNL     1      40.701 -11.757   4.903  1.00  0.00     0.049 A 
HETATM   12  H   UNL     1      44.043  -9.556   6.945  1.00  0.00     0.169 HD
ENDROOT
BRANCH   6  13
HETATM   13  C   UNL     1      42.003 -14.296   5.844  1.00  0.00    -0.046 A 
HETATM   14  C   UNL     1      42.923 -14.899   4.968  1.00  0.00     0.045 A 
HETATM   15  C   UNL     1      42.592 -16.079   4.297  1.00  0.00     0.076 A 
HETATM   16  C   UNL     1      41.382 -16.718   4.559  1.00  0.00     0.037 A 
HETATM   17  C   UNL     1      40.476 -16.148   5.453  1.00  0.00     0.003 A 
HETATM   18  C   UNL     1      40.779 -14.939   6.084  1.00  0.00     0.008 A 
BRANCH  15  19
HETATM   19  O   UNL     1      43.446 -16.686   3.406  1.00  0.00    -0.311 OA
BRANCH  19  20
HETATM   20  C   UNL     1      43.575 -18.058   3.448  1.00  0.00     0.076 A 
HETATM   21  C   UNL     1      44.085 -18.770   4.538  1.00  0.00     0.037 A 
HETATM   22  C   UNL     1      44.189 -20.161   4.480  1.00  0.00     0.003 A 
HETATM   23  C   UNL     1      43.814 -20.841   3.321  1.00  0.00     0.000 A 
HETATM   24  C   UNL     1      43.338 -20.130   2.219  1.00  0.00     0.003 A 
HETATM   25  C   UNL     1      43.220 -18.741   2.283  1.00  0.00     0.037 A 
ENDBRANCH  19  20
ENDBRANCH  15  19
ENDBRANCH   6  13
BRANCH   1  26
HETATM   26  O   UNL     1      39.192 -10.570   3.379  1.00  0.00    -0.353 OA
HETATM   27  C   UNL     1      39.329 -11.128   2.079  1.00  0.00     0.210 C 
ENDBRANCH   1  26
BRANCH   2  28
HETATM   28  O   UNL     1      40.595  -8.352   3.590  1.00  0.00    -0.353 OA
HETATM   29  C   UNL     1      40.435  -7.149   4.330  1.00  0.00     0.210 C 
ENDBRANCH   2  28
TORSDOF 5
ENDMDL
MODEL 8
REMARK VINA RESULT:      -7.8      2.473      4.355
REMARK  5 active torsions:
REMARK  status: ('A' for Active; 'I' for Inactive)
REMARK    1  A    between atoms: O_2  and  C_3 
REMARK    2  A    between atoms: C_4  and  O_5 
REMARK    3  A    between atoms: C_10  and  C_11 
REMARK    4  A    between atoms: C_13  and  O_14 
REMARK    5  A    between atoms: O_14  and  C_15 
ROOT
HETATM    1  C   UNL     1      40.767  -9.571   7.141  1.00  0.00     0.102 A 
HETATM    2  C   UNL     1      41.370  -8.475   7.781  1.00  0.00     0.103 A 
HETATM    3  C   UNL     1      42.743  -8.492   8.047  1.00  0.00     0.069 A 
HETATM    4  C   UNL     1      43.526  -9.563   7.609  1.00  0.00     0.044 A 
HETATM    5  C   UNL     1      42.958 -10.632   6.910  1.00  0.00    -0.020 A 
HETATM    6  C   UNL     1      43.841 -11.802   6.498  1.00  0.00     0.063 C 
HETATM    7  C   UNL     1      45.300 -11.375   6.321  1.00  0.00     0.117 C 
HETATM    8  C   UNL     1      45.778 -10.502   7.452  1.00  0.00     0.223 C 
HETATM    9  O   UNL     1      46.939 -10.520   7.854  1.00  0.00    -0.273 OA
HETATM   10  N   UNL     1      44.886  -9.581   7.926  1.00  0.00    -0.327 N 
HETATM   11  C   UNL     1      41.563 -10.641   6.717  1.00  0.00     0.049 A 
HETATM   12  H   UNL     1      45.265  -8.904   8.576  1.00  0.00     0.169 HD
ENDROOT
BRANCH   6  13
HETATM   13  C   UNL     1      43.376 -12.525   5.237  1.00  0.00    -0.046 A 
HETATM   14  C   UNL     1      42.734 -13.775   5.313  1.00  0.00     0.045 A 
HETATM   15  C   UNL     1      42.397 -14.470   4.148  1.00  0.00     0.076 A 
HETATM   16  C   UNL     1      42.612 -13.889   2.900  1.00  0.00     0.037 A 
HETATM   17  C   UNL     1      43.216 -12.636   2.813  1.00  0.00     0.003 A 
HETATM   18  C   UNL     1      43.605 -11.961   3.973  1.00  0.00     0.008 A 
BRANCH  15  19
HETATM   19  O   UNL     1      41.800 -15.708   4.174  1.00  0.00    -0.311 OA
BRANCH  19  20
HETATM   20  C   UNL     1      42.528 -16.799   3.748  1.00  0.00     0.076 A 
HETATM   21  C   UNL     1      42.300 -17.479   2.548  1.00  0.00     0.037 A 
HETATM   22  C   UNL     1      43.085 -18.584   2.210  1.00  0.00     0.003 A 
HETATM   23  C   UNL     1      44.076 -19.031   3.084  1.00  0.00     0.000 A 
HETATM   24  C   UNL     1      44.281 -18.375   4.297  1.00  0.00     0.003 A 
HETATM   25  C   UNL     1      43.507 -17.261   4.629  1.00  0.00     0.037 A 
ENDBRANCH  19  20
ENDBRANCH  15  19
ENDBRANCH   6  13
BRANCH   1  26
HETATM   26  O   UNL     1      39.410  -9.494   6.951  1.00  0.00    -0.353 OA
HETATM   27  C   UNL     1      38.893 -10.019   5.736  1.00  0.00     0.210 C 
ENDBRANCH   1  26
BRANCH   2  28
HETATM   28  O   UNL     1      40.540  -7.454   8.174  1.00  0.00    -0.353 OA
HETATM   29  C   UNL     1      40.650  -7.054   9.534  1.00  0.00     0.210 C 
ENDBRANCH   2  28
TORSDOF 5
ENDMDL
MODEL 9
REMARK VINA RESULT:      -7.8      2.952      7.034
REMARK  5 active torsions:
REMARK  status: ('A' for Active; 'I' for Inactive)
REMARK    1  A    between atoms: O_2  and  C_3 
REMARK    2  A    between atoms: C_4  and  O_5 
REMARK    3  A    between atoms: C_10  and  C_11 
REMARK    4  A    between atoms: C_13  and  O_14 
REMARK    5  A    between atoms: O_14  and  C_15 
ROOT
HETATM    1  C   UNL     1      43.636 -17.691   3.254  1.00  0.00     0.102 A 
HETATM    2  C   UNL     1      44.127 -18.192   4.472  1.00  0.00     0.103 A 
HETATM    3  C   UNL     1      44.246 -17.343   5.577  1.00  0.00     0.069 A 
HETATM    4  C   UNL     1      43.805 -16.020   5.492  1.00  0.00     0.044 A 
HETATM    5  C   UNL     1      43.250 -15.521   4.310  1.00  0.00    -0.020 A 
HETATM    6  C   UNL     1      42.832 -14.058   4.248  1.00  0.00     0.063 C 
HETATM    7  C   UNL     1      42.470 -13.513   5.631  1.00  0.00     0.117 C 
HETATM    8  C   UNL     1      43.477 -13.908   6.680  1.00  0.00     0.223 C 
HETATM    9  O   UNL     1      43.753 -13.186   7.634  1.00  0.00    -0.273 OA
HETATM   10  N   UNL     1      43.976 -15.178   6.593  1.00  0.00    -0.327 N 
HETATM   11  C   UNL     1      43.207 -16.361   3.182  1.00  0.00     0.049 A 
HETATM   12  H   UNL     1      44.531 -15.481   7.384  1.00  0.00     0.169 HD
ENDROOT
BRANCH   6  13
HETATM   13  C   UNL     1      41.683 -13.775   3.283  1.00  0.00    -0.046 A 
HETATM   14  C   UNL     1      41.928 -13.495   1.926  1.00  0.00     0.045 A 
HETATM   15  C   UNL     1      40.876 -13.146   1.075  1.00  0.00     0.076 A 
HETATM   16  C   UNL     1      39.564 -13.160   1.541  1.00  0.00     0.037 A 
HETATM   17  C   UNL     1      39.304 -13.471   2.875  1.00  0.00     0.003 A 
HETATM   18  C   UNL     1      40.357 -13.766   3.745  1.00  0.00     0.008 A 
BRANCH  15  19
HETATM   19  O   UNL     1      41.072 -12.831  -0.249  1.00  0.00    -0.311 OA
BRANCH  19  20
HETATM   20  C   UNL     1      40.116 -13.216  -1.166  1.00  0.00     0.076 A 
HETATM   21  C   UNL     1      39.874 -14.540  -1.545  1.00  0.00     0.037 A 
HETATM   22  C   UNL     1      38.891 -14.828  -2.494  1.00  0.00     0.003 A 
HETATM   23  C   UNL     1      38.170 -13.792  -3.089  1.00  0.00     0.000 A 
HETATM   24  C   UNL     1      38.434 -12.469  -2.738  1.00  0.00     0.003 A 
HETATM   25  C   UNL     1      39.407 -12.182  -1.779  1.00  0.00     0.037 A 
ENDBRANCH  19  20
ENDBRANCH  15  19
ENDBRANCH   6  13
BRANCH   1  26
HETATM   26  O   UNL     1      43.587 -18.578   2.208  1.00  0.00    -0.353 OA
HETATM   27  C   UNL     1      42.493 -19.485   2.175  1.00  0.00     0.210 C 
ENDBRANCH   1  26
BRANCH   2  28
HETATM   28  O   UNL     1      44.533 -19.504   4.484  1.00  0.00    -0.353 OA
HETATM   29  C   UNL     1      43.973 -20.317   5.508  1.00  0.00     0.210 C 
ENDBRANCH   2  28
TORSDOF 5
ENDMDL
MODEL 10
REMARK VINA RESULT:      -7.7      2.804      5.276
REMARK  5 active torsions:
REMARK  status: ('A' for Active; 'I' for Inactive)
REMARK    1  A    between atoms: O_2  and  C_3 
REMARK    2  A    between atoms: C_4  and  O_5 
REMARK    3  A    between atoms: C_10  and  C_11 
REMARK    4  A    between atoms: C_13  and  O_14 
REMARK    5  A    between atoms: O_14  and  C_15 
ROOT
HETATM    1  C   UNL     1      39.823 -12.926   1.235  1.00  0.00     0.102 A 
HETATM    2  C   UNL     1      39.164 -11.778   0.764  1.00  0.00     0.103 A 
HETATM    3  C   UNL     1      38.655 -10.845   1.672  1.00  0.00     0.069 A 
HETATM    4  C   UNL     1      38.870 -11.014   3.042  1.00  0.00     0.044 A 
HETATM    5  C   UNL     1      39.584 -12.113   3.528  1.00  0.00    -0.020 A 
HETATM    6  C   UNL     1      39.748 -12.284   5.033  1.00  0.00     0.063 C 
HETATM    7  C   UNL     1      39.690 -10.941   5.764  1.00  0.00     0.117 C 
HETATM    8  C   UNL     1      38.556 -10.077   5.278  1.00  0.00     0.223 C 
HETATM    9  O   UNL     1      37.952  -9.304   6.018  1.00  0.00    -0.273 OA
HETATM   10  N   UNL     1      38.314 -10.094   3.933  1.00  0.00    -0.327 N 
HETATM   11  C   UNL     1      40.023 -13.086   2.611  1.00  0.00     0.049 A 
HETATM   12  H   UNL     1      37.655  -9.400   3.602  1.00  0.00     0.169 HD
ENDROOT
BRANCH   6  13
HETATM   13  C   UNL     1      41.019 -13.023   5.444  1.00  0.00    -0.046 A 
HETATM   14  C   UNL     1      41.044 -14.427   5.535  1.00  0.00     0.045 A 
HETATM   15  C   UNL     1      42.185 -15.085   6.003  1.00  0.00     0.076 A 
HETATM   16  C   UNL     1      43.338 -14.362   6.298  1.00  0.00     0.037 A 
HETATM   17  C   UNL     1      43.337 -12.973   6.178  1.00  0.00     0.003 A 
HETATM   18  C   UNL     1      42.182 -12.305   5.764  1.00  0.00     0.008 A 
BRANCH  15  19
HETATM   19  O   UNL     1      42.243 -16.451   6.141  1.00  0.00    -0.311 OA
BRANCH  19  20
HETATM   20  C   UNL     1      42.838 -17.189   5.139  1.00  0.00     0.076 A 
HETATM   21  C   UNL     1      43.782 -18.197   5.356  1.00  0.00     0.037 A 
HETATM   22  C   UNL     1      44.339 -18.880   4.272  1.00  0.00     0.003 A 
HETATM   23  C   UNL     1      43.977 -18.536   2.970  1.00  0.00     0.000 A 
HETATM   24  C   UNL     1      43.061 -17.507   2.750  1.00  0.00     0.003 A 
HETATM   25  C   UNL     1      42.494 -16.834   3.834  1.00  0.00     0.037 A 
ENDBRANCH  19  20
ENDBRANCH  15  19
ENDBRANCH   6  13
BRANCH   1  26
HETATM   26  O   UNL     1      40.259 -13.812   0.282  1.00  0.00    -0.353 OA
HETATM   27  C   UNL     1      40.194 -15.196   0.601  1.00  0.00     0.210 C 
ENDBRANCH   1  26
BRANCH   2  28
HETATM   28  O   UNL     1      38.997 -11.674  -0.596  1.00  0.00    -0.353 OA
HETATM   29  C   UNL     1      37.653 -11.581  -1.051  1.00  0.00     0.210 C 
ENDBRANCH   2  28
TORSDOF 5
ENDMDL
