MODEL 1
REMARK VINA RESULT:      -8.6      0.000      0.000
REMARK  6 active torsions:
REMARK  status: ('A' for Active; 'I' for Inactive)
REMARK    1  A    between atoms: C_3  and  N_4 
REMARK       I    between atoms: N_4  and  C_5 
REMARK       I    between atoms: C_5  and  N_6 
REMARK    2  A    between atoms: N_6  and  C_7 
REMARK    3  A    between atoms: C_7  and  C_8 
REMARK    4  A    between atoms: C_10  and  C_11 
REMARK       I    between atoms: C_11  and  N_12 
REMARK    5  A    between atoms: N_12  and  C_13 
REMARK    6  A    between atoms: C_13  and  C_14 
ROOT
HETATM    1  C   UNL     1      41.897 -13.377   2.569  1.00  0.00    -0.040 A 
HETATM    2  C   UNL     1      43.098 -12.888   3.108  1.00  0.00     0.026 A 
HETATM    3  C   UNL     1      43.098 -12.121   4.278  1.00  0.00     0.032 A 
HETATM    4  C   UNL     1      41.885 -11.801   4.893  1.00  0.00     0.017 A 
HETATM    5  C   UNL     1      40.685 -12.281   4.365  1.00  0.00     0.002 A 
HETATM    6  C   UNL     1      40.692 -13.075   3.217  1.00  0.00     0.009 A 
ENDROOT
BRANCH   1   7
HETATM    7  C   UNL     1      41.927 -14.243   1.335  1.00  0.00     0.162 C 
BRANCH   7   8
HETATM    8  N   UNL     1      42.850 -15.353   1.461  1.00  0.00    -0.339 N 
HETATM    9  C   UNL     1      42.539 -16.439   2.261  1.00  0.00     0.321 C 
HETATM   10  N   UNL     1      43.589 -17.328   2.274  1.00  0.00    -0.307 N 
HETATM   11  O   UNL     1      41.462 -16.563   2.823  1.00  0.00    -0.247 OA
HETATM   12  H   UNL     1      44.146 -17.271   1.433  1.00  0.00     0.170 HD
HETATM   13  H   UNL     1      43.828 -15.108   1.458  1.00  0.00     0.164 HD
BRANCH  10  14
HETATM   14  C   UNL     1      43.736 -18.519   3.025  1.00  0.00     0.059 A 
HETATM   15  C   UNL     1      44.024 -18.635   4.393  1.00  0.00    -0.032 A 
HETATM   16  C   UNL     1      44.283 -17.491   5.329  1.00  0.00     0.050 C 
HETATM   17  C   UNL     1      44.097 -19.929   4.949  1.00  0.00     0.028 A 
HETATM   18  C   UNL     1      43.945 -21.040   4.138  1.00  0.00     0.117 A 
HETATM   19  N   UNL     1      43.726 -20.965   2.814  1.00  0.00    -0.271 NA
HETATM   20  C   UNL     1      43.627 -19.716   2.302  1.00  0.00     0.146 A 
ENDBRANCH  10  14
ENDBRANCH   7   8
ENDBRANCH   1   7
BRANCH   3  21
HETATM   21  C   UNL     1      44.364 -11.620   4.880  1.00  0.00     0.252 C 
HETATM   22  N   UNL     1      44.429 -11.624   6.252  1.00  0.00    -0.351 N 
HETATM   23  H   UNL     1      43.643 -11.927   6.817  1.00  0.00     0.163 HD
HETATM   24  O   UNL     1      45.273 -11.215   4.163  1.00  0.00    -0.268 OA
BRANCH  22  25
HETATM   25  C   UNL     1      45.639 -11.260   6.948  1.00  0.00     0.187 C 
BRANCH  25  26
HETATM   26  C   UNL     1      45.291 -10.607   8.235  1.00  0.00     0.070 A 
HETATM   27  O   UNL     1      44.314 -11.196   8.989  1.00  0.00    -0.325 OA
HETATM   28  C   UNL     1      44.153 -10.434  10.100  1.00  0.00     0.142 A 
HETATM   29  C   UNL     1      45.021  -9.368  10.083  1.00  0.00     0.027 A 
HETATM   30  C   UNL     1      45.758  -9.479   8.879  1.00  0.00     0.036 A 
ENDBRANCH  25  26
ENDBRANCH  22  25
ENDBRANCH   3  21
TORSDOF 6
ENDMDL
MODEL 2
REMARK VINA RESULT:      -8.4      2.305      8.402
REMARK  6 active torsions:
REMARK  status: ('A' for Active; 'I' for Inactive)
REMARK    1  A    between atoms: C_3  and  N_4 
REMARK       I    between atoms: N_4  and  C_5 
REMARK       I    between atoms: C_5  and  N_6 
REMARK    2  A    between atoms: N_6  and  C_7 
REMARK    3  A    between atoms: C_7  and  C_8 
REMARK    4  A    between atoms: C_10  and  C_11 
REMARK       I    between atoms: C_11  and  N_12 
REMARK    5  A    between atoms: N_12  and  C_13 
REMARK    6  A    between atoms: C_13  and  C_14 
ROOT
HETATM    1  C   UNL     1      39.882 -13.017   4.418  1.00  0.00    -0.040 A 
HETATM    2  C   UNL     1      40.686 -14.036   4.955  1.00  0.00     0.026 A 
HETATM    3  C   UNL     1      41.048 -15.145   4.183  1.00  0.00     0.032 A 
HETATM    4  C   UNL     1      40.568 -15.261   2.875  1.00  0.00     0.017 A 
HETATM    5  C   UNL     1      39.768 -14.254   2.332  1.00  0.00     0.002 A 
HETATM    6  C   UNL     1      39.437 -13.133   3.095  1.00  0.00     0.009 A 
ENDROOT
BRANCH   1   7
HETATM    7  C   UNL     1      39.546 -11.808   5.254  1.00  0.00     0.162 C 
BRANCH   7   8
HETATM    8  N   UNL     1      40.454 -11.639   6.371  1.00  0.00    -0.339 N 
HETATM    9  C   UNL     1      41.595 -10.867   6.239  1.00  0.00     0.321 C 
HETATM   10  N   UNL     1      42.328 -10.908   7.402  1.00  0.00    -0.307 N 
HETATM   11  O   UNL     1      41.853 -10.230   5.229  1.00  0.00    -0.247 OA
HETATM   12  H   UNL     1      41.748 -11.088   8.210  1.00  0.00     0.170 HD
HETATM   13  H   UNL     1      40.567 -12.445   6.967  1.00  0.00     0.164 HD
BRANCH  10  14
HETATM   14  C   UNL     1      43.597 -10.343   7.674  1.00  0.00     0.059 A 
HETATM   15  C   UNL     1      44.853 -10.851   7.310  1.00  0.00    -0.032 A 
HETATM   16  C   UNL     1      45.094 -12.144   6.589  1.00  0.00     0.050 C 
HETATM   17  C   UNL     1      45.998 -10.105   7.659  1.00  0.00     0.028 A 
HETATM   18  C   UNL     1      45.866  -8.938   8.393  1.00  0.00     0.117 A 
HETATM   19  N   UNL     1      44.683  -8.454   8.806  1.00  0.00    -0.271 NA
HETATM   20  C   UNL     1      43.592  -9.165   8.436  1.00  0.00     0.146 A 
ENDBRANCH  10  14
ENDBRANCH   7   8
ENDBRANCH   1   7
BRANCH   3  21
HETATM   21  C   UNL     1      41.924 -16.219   4.726  1.00  0.00     0.252 C 
HETATM   22  N   UNL     1      43.076 -16.478   4.023  1.00  0.00    -0.351 N 
HETATM   23  H   UNL     1      43.296 -15.979   3.168  1.00  0.00     0.163 HD
HETATM   24  O   UNL     1      41.597 -16.833   5.736  1.00  0.00    -0.268 OA
BRANCH  22  25
HETATM   25  C   UNL     1      44.053 -17.422   4.506  1.00  0.00     0.187 C 
BRANCH  25  26
HETATM   26  C   UNL     1      43.891 -18.712   3.787  1.00  0.00     0.070 A 
HETATM   27  O   UNL     1      44.061 -19.856   4.514  1.00  0.00    -0.325 OA
HETATM   28  C   UNL     1      43.882 -20.899   3.665  1.00  0.00     0.142 A 
HETATM   29  C   UNL     1      43.585 -20.446   2.401  1.00  0.00     0.027 A 
HETATM   30  C   UNL     1      43.589 -19.032   2.478  1.00  0.00     0.036 A 
ENDBRANCH  25  26
ENDBRANCH  22  25
ENDBRANCH   3  21
TORSDOF 6
ENDMDL
MODEL 3
REMARK VINA RESULT:      -8.2      2.760      4.533
REMARK  6 active torsions:
REMARK  status: ('A' for Active; 'I' for Inactive)
REMARK    1  A    between atoms: C_3  and  N_4 
REMARK       I    between atoms: N_4  and  C_5 
REMARK       I    between atoms: C_5  and  N_6 
REMARK    2  A    between atoms: N_6  and  C_7 
REMARK    3  A    between atoms: C_7  and  C_8 
REMARK    4  A    between atoms: C_10  and  C_11 
REMARK       I    between atoms: C_11  and  N_12 
REMARK    5  A    between atoms: N_12  and  C_13 
REMARK    6  A    between atoms: C_13  and  C_14 
ROOT
HETATM    1  C   UNL     1      43.519 -11.400   6.576  1.00  0.00    -0.040 A 
HETATM    2  C   UNL     1      43.298 -10.279   7.392  1.00  0.00     0.026 A 
HETATM    3  C   UNL     1      44.371  -9.595   7.975  1.00  0.00     0.032 A 
HETATM    4  C   UNL     1      45.675 -10.059   7.776  1.00  0.00     0.017 A 
HETATM    5  C   UNL     1      45.904 -11.173   6.966  1.00  0.00     0.002 A 
HETATM    6  C   UNL     1      44.834 -11.832   6.360  1.00  0.00     0.009 A 
ENDROOT
BRANCH   1   7
HETATM    7  C   UNL     1      42.350 -12.090   5.920  1.00  0.00     0.162 C 
BRANCH   7   8
HETATM    8  N   UNL     1      42.453 -13.534   5.986  1.00  0.00    -0.339 N 
HETATM    9  C   UNL     1      42.875 -14.261   4.886  1.00  0.00     0.321 C 
HETATM   10  N   UNL     1      42.830 -15.607   5.166  1.00  0.00    -0.307 N 
HETATM   11  O   UNL     1      43.258 -13.736   3.851  1.00  0.00    -0.247 OA
HETATM   12  H   UNL     1      42.934 -15.793   6.154  1.00  0.00     0.170 HD
HETATM   13  H   UNL     1      41.750 -13.996   6.542  1.00  0.00     0.164 HD
BRANCH  10  14
HETATM   14  C   UNL     1      43.085 -16.702   4.307  1.00  0.00     0.059 A 
HETATM   15  C   UNL     1      42.394 -17.047   3.135  1.00  0.00    -0.032 A 
HETATM   16  C   UNL     1      41.197 -16.328   2.587  1.00  0.00     0.050 C 
HETATM   17  C   UNL     1      42.838 -18.171   2.409  1.00  0.00     0.028 A 
HETATM   18  C   UNL     1      43.889 -18.934   2.889  1.00  0.00     0.117 A 
HETATM   19  N   UNL     1      44.535 -18.665   4.036  1.00  0.00    -0.271 NA
HETATM   20  C   UNL     1      44.117 -17.565   4.705  1.00  0.00     0.146 A 
ENDBRANCH  10  14
ENDBRANCH   7   8
ENDBRANCH   1   7
BRANCH   3  21
HETATM   21  C   UNL     1      44.159  -8.387   8.818  1.00  0.00     0.252 C 
HETATM   22  N   UNL     1      43.143  -8.460   9.740  1.00  0.00    -0.351 N 
HETATM   23  H   UNL     1      42.557  -9.285   9.817  1.00  0.00     0.163 HD
HETATM   24  O   UNL     1      44.857  -7.391   8.662  1.00  0.00    -0.268 OA
BRANCH  22  25
HETATM   25  C   UNL     1      42.907  -7.395  10.684  1.00  0.00     0.187 C 
BRANCH  25  26
HETATM   26  C   UNL     1      42.585  -7.975  12.013  1.00  0.00     0.070 A 
HETATM   27  O   UNL     1      41.597  -8.919  12.058  1.00  0.00    -0.325 OA
HETATM   28  C   UNL     1      41.463  -9.295  13.354  1.00  0.00     0.142 A 
HETATM   29  C   UNL     1      42.360  -8.618  14.147  1.00  0.00     0.027 A 
HETATM   30  C   UNL     1      43.086  -7.765  13.282  1.00  0.00     0.036 A 
ENDBRANCH  25  26
ENDBRANCH  22  25
ENDBRANCH   3  21
TORSDOF 6
ENDMDL
MODEL 4
REMARK VINA RESULT:      -8.2      2.651      5.967
REMARK  6 active torsions:
REMARK  status: ('A' for Active; 'I' for Inactive)
REMARK    1  A    between atoms: C_3  and  N_4 
REMARK       I    between atoms: N_4  and  C_5 
REMARK       I    between atoms: C_5  and  N_6 
REMARK    2  A    between atoms: N_6  and  C_7 
REMARK    3  A    between atoms: C_7  and  C_8 
REMARK    4  A    between atoms: C_10  and  C_11 
REMARK       I    between atoms: C_11  and  N_12 
REMARK    5  A    between atoms: N_12  and  C_13 
REMARK    6  A    between atoms: C_13  and  C_14 
ROOT
HETATM    1  C   UNL     1      43.267 -16.790   3.214  1.00  0.00    -0.040 A 
HETATM    2  C   UNL     1      43.052 -15.643   3.994  1.00  0.00     0.026 A 
HETATM    3  C   UNL     1      43.413 -15.618   5.346  1.00  0.00     0.032 A 
HETATM    4  C   UNL     1      43.954 -16.765   5.936  1.00  0.00     0.017 A 
HETATM    5  C   UNL     1      44.170 -17.911   5.169  1.00  0.00     0.002 A 
HETATM    6  C   UNL     1      43.840 -17.920   3.812  1.00  0.00     0.009 A 
ENDROOT
BRANCH   1   7
HETATM    7  C   UNL     1      42.915 -16.775   1.747  1.00  0.00     0.162 C 
BRANCH   7   8
HETATM    8  N   UNL     1      42.559 -15.451   1.278  1.00  0.00    -0.339 N 
HETATM    9  C   UNL     1      41.238 -15.130   1.013  1.00  0.00     0.321 C 
HETATM   10  N   UNL     1      41.156 -13.849   0.520  1.00  0.00    -0.307 N 
HETATM   11  O   UNL     1      40.312 -15.894   1.236  1.00  0.00    -0.247 OA
HETATM   12  H   UNL     1      41.921 -13.270   0.838  1.00  0.00     0.170 HD
HETATM   13  H   UNL     1      43.223 -15.017   0.656  1.00  0.00     0.164 HD
BRANCH  10  14
HETATM   14  C   UNL     1      40.022 -13.154   0.037  1.00  0.00     0.059 A 
HETATM   15  C   UNL     1      39.452 -13.234  -1.243  1.00  0.00    -0.032 A 
HETATM   16  C   UNL     1      39.980 -14.058  -2.381  1.00  0.00     0.050 C 
HETATM   17  C   UNL     1      38.296 -12.471  -1.505  1.00  0.00     0.028 A 
HETATM   18  C   UNL     1      37.789 -11.627  -0.532  1.00  0.00     0.117 A 
HETATM   19  N   UNL     1      38.344 -11.482   0.684  1.00  0.00    -0.271 NA
HETATM   20  C   UNL     1      39.434 -12.245   0.930  1.00  0.00     0.146 A 
ENDBRANCH  10  14
ENDBRANCH   7   8
ENDBRANCH   1   7
BRANCH   3  21
HETATM   21  C   UNL     1      43.222 -14.402   6.181  1.00  0.00     0.252 C 
HETATM   22  N   UNL     1      43.252 -13.198   5.519  1.00  0.00    -0.351 N 
HETATM   23  H   UNL     1      43.424 -13.149   4.521  1.00  0.00     0.163 HD
HETATM   24  O   UNL     1      43.066 -14.500   7.394  1.00  0.00    -0.268 OA
BRANCH  22  25
HETATM   25  C   UNL     1      42.976 -11.958   6.202  1.00  0.00     0.187 C 
BRANCH  25  26
HETATM   26  C   UNL     1      44.223 -11.453   6.831  1.00  0.00     0.070 A 
HETATM   27  O   UNL     1      44.126 -10.967   8.104  1.00  0.00    -0.325 OA
HETATM   28  C   UNL     1      45.365 -10.553   8.470  1.00  0.00     0.142 A 
HETATM   29  C   UNL     1      46.266 -10.778   7.456  1.00  0.00     0.027 A 
HETATM   30  C   UNL     1      45.530 -11.360   6.395  1.00  0.00     0.036 A 
ENDBRANCH  25  26
ENDBRANCH  22  25
ENDBRANCH   3  21
TORSDOF 6
ENDMDL
MODEL 5
REMARK VINA RESULT:      -8.2      7.118     11.641
REMARK  6 active torsions:
REMARK  status: ('A' for Active; 'I' for Inactive)
REMARK    1  A    between atoms: C_3  and  N_4 
REMARK       I    between atoms: N_4  and  C_5 
REMARK       I    between atoms: C_5  and  N_6 
REMARK    2  A    between atoms: N_6  and  C_7 
REMARK    3  A    between atoms: C_7  and  C_8 
REMARK    4  A    between atoms: C_10  and  C_11 
REMARK       I    between atoms: C_11  and  N_12 
REMARK    5  A    between atoms: N_12  and  C_13 
REMARK    6  A    between atoms: C_13  and  C_14 
ROOT
HETATM    1  C   UNL     1      41.969  -9.106  13.561  1.00  0.00    -0.040 A 
HETATM    2  C   UNL     1      41.184  -8.844  14.695  1.00  0.00     0.026 A 
HETATM    3  C   UNL     1      41.429  -7.720  15.492  1.00  0.00     0.032 A 
HETATM    4  C   UNL     1      42.495  -6.873  15.180  1.00  0.00     0.017 A 
HETATM    5  C   UNL     1      43.283  -7.125  14.055  1.00  0.00     0.002 A 
HETATM    6  C   UNL     1      43.014  -8.228  13.243  1.00  0.00     0.009 A 
ENDROOT
BRANCH   1   7
HETATM    7  C   UNL     1      41.654 -10.295  12.690  1.00  0.00     0.162 C 
BRANCH   7   8
HETATM    8  N   UNL     1      41.994 -10.067  11.299  1.00  0.00    -0.339 N 
HETATM    9  C   UNL     1      43.216 -10.480  10.797  1.00  0.00     0.321 C 
HETATM   10  N   UNL     1      43.336 -10.098   9.481  1.00  0.00    -0.307 N 
HETATM   11  O   UNL     1      44.022 -11.119  11.455  1.00  0.00    -0.247 OA
HETATM   12  H   UNL     1      42.438 -10.009   9.028  1.00  0.00     0.170 HD
HETATM   13  H   UNL     1      41.654  -9.204  10.904  1.00  0.00     0.164 HD
BRANCH  10  14
HETATM   14  C   UNL     1      44.447 -10.232   8.615  1.00  0.00     0.059 A 
HETATM   15  C   UNL     1      44.677 -11.243   7.670  1.00  0.00    -0.032 A 
HETATM   16  C   UNL     1      43.788 -12.427   7.429  1.00  0.00     0.050 C 
HETATM   17  C   UNL     1      45.845 -11.166   6.884  1.00  0.00     0.028 A 
HETATM   18  C   UNL     1      46.756 -10.146   7.098  1.00  0.00     0.117 A 
HETATM   19  N   UNL     1      46.595  -9.194   8.032  1.00  0.00    -0.271 NA
HETATM   20  C   UNL     1      45.454  -9.264   8.756  1.00  0.00     0.146 A 
ENDBRANCH  10  14
ENDBRANCH   7   8
ENDBRANCH   1   7
BRANCH   3  21
HETATM   21  C   UNL     1      40.588  -7.411  16.681  1.00  0.00     0.252 C 
HETATM   22  N   UNL     1      40.641  -8.313  17.716  1.00  0.00    -0.351 N 
HETATM   23  H   UNL     1      41.204  -9.154  17.654  1.00  0.00     0.163 HD
HETATM   24  O   UNL     1      39.882  -6.407  16.696  1.00  0.00    -0.268 OA
BRANCH  22  25
HETATM   25  C   UNL     1      39.953  -8.069  18.959  1.00  0.00     0.187 C 
BRANCH  25  26
HETATM   26  C   UNL     1      40.557  -8.903  20.030  1.00  0.00     0.070 A 
HETATM   27  O   UNL     1      39.701  -9.509  20.906  1.00  0.00    -0.325 OA
HETATM   28  C   UNL     1      40.460 -10.198  21.794  1.00  0.00     0.142 A 
HETATM   29  C   UNL     1      41.795 -10.060  21.496  1.00  0.00     0.027 A 
HETATM   30  C   UNL     1      41.860  -9.223  20.356  1.00  0.00     0.036 A 
ENDBRANCH  25  26
ENDBRANCH  22  25
ENDBRANCH   3  21
TORSDOF 6
ENDMDL
MODEL 6
REMARK VINA RESULT:      -8.1      3.090     10.069
REMARK  6 active torsions:
REMARK  status: ('A' for Active; 'I' for Inactive)
REMARK    1  A    between atoms: C_3  and  N_4 
REMARK       I    between atoms: N_4  and  C_5 
REMARK       I    between atoms: C_5  and  N_6 
REMARK    2  A    between atoms: N_6  and  C_7 
REMARK    3  A    between atoms: C_7  and  C_8 
REMARK    4  A    between atoms: C_10  and  C_11 
REMARK       I    between atoms: C_11  and  N_12 
REMARK    5  A    between atoms: N_12  and  C_13 
REMARK    6  A    between atoms: C_13  and  C_14 
ROOT
HETATM    1  C   UNL     1      43.908 -12.424   6.468  1.00  0.00    -0.040 A 
HETATM    2  C   UNL     1      43.748 -13.801   6.687  1.00  0.00     0.026 A 
HETATM    3  C   UNL     1      43.265 -14.636   5.673  1.00  0.00     0.032 A 
HETATM    4  C   UNL     1      42.896 -14.085   4.443  1.00  0.00     0.017 A 
HETATM    5  C   UNL     1      43.050 -12.716   4.216  1.00  0.00     0.002 A 
HETATM    6  C   UNL     1      43.564 -11.892   5.218  1.00  0.00     0.009 A 
ENDROOT
BRANCH   1   7
HETATM    7  C   UNL     1      44.477 -11.552   7.559  1.00  0.00     0.162 C 
BRANCH   7   8
HETATM    8  N   UNL     1      43.446 -10.966   8.392  1.00  0.00    -0.339 N 
HETATM    9  C   UNL     1      43.784 -10.217   9.506  1.00  0.00     0.321 C 
HETATM   10  N   UNL     1      42.645  -9.824  10.171  1.00  0.00    -0.307 N 
HETATM   11  O   UNL     1      44.937  -9.941   9.796  1.00  0.00    -0.247 OA
HETATM   12  H   UNL     1      41.849  -9.757   9.553  1.00  0.00     0.170 HD
HETATM   13  H   UNL     1      42.609 -11.518   8.503  1.00  0.00     0.164 HD
BRANCH  10  14
HETATM   14  C   UNL     1      42.527  -9.127  11.397  1.00  0.00     0.059 A 
HETATM   15  C   UNL     1      42.598  -7.741  11.603  1.00  0.00    -0.032 A 
HETATM   16  C   UNL     1      42.865  -6.716  10.540  1.00  0.00     0.050 C 
HETATM   17  C   UNL     1      42.422  -7.254  12.914  1.00  0.00     0.028 A 
HETATM   18  C   UNL     1      42.247  -8.140  13.963  1.00  0.00     0.117 A 
HETATM   19  N   UNL     1      42.232  -9.475  13.810  1.00  0.00    -0.271 NA
HETATM   20  C   UNL     1      42.370  -9.925  12.541  1.00  0.00     0.146 A 
ENDBRANCH  10  14
ENDBRANCH   7   8
ENDBRANCH   1   7
BRANCH   3  21
HETATM   21  C   UNL     1      43.118 -16.103   5.877  1.00  0.00     0.252 C 
HETATM   22  N   UNL     1      44.048 -16.900   5.255  1.00  0.00    -0.351 N 
HETATM   23  H   UNL     1      44.775 -16.505   4.669  1.00  0.00     0.163 HD
HETATM   24  O   UNL     1      42.196 -16.545   6.554  1.00  0.00    -0.268 OA
BRANCH  22  25
HETATM   25  C   UNL     1      44.072 -18.328   5.462  1.00  0.00     0.187 C 
BRANCH  25  26
HETATM   26  C   UNL     1      43.857 -19.018   4.164  1.00  0.00     0.070 A 
HETATM   27  O   UNL     1      44.018 -20.375   4.146  1.00  0.00    -0.325 OA
HETATM   28  C   UNL     1      43.789 -20.788   2.874  1.00  0.00     0.142 A 
HETATM   29  C   UNL     1      43.468 -19.719   2.072  1.00  0.00     0.027 A 
HETATM   30  C   UNL     1      43.511 -18.574   2.904  1.00  0.00     0.036 A 
ENDBRANCH  25  26
ENDBRANCH  22  25
ENDBRANCH   3  21
TORSDOF 6
ENDMDL
MODEL 7
REMARK VINA RESULT:      -7.8      2.747      9.654
REMARK  6 active torsions:
REMARK  status: ('A' for Active; 'I' for Inactive)
REMARK    1  A    between atoms: C_3  and  N_4 
REMARK       I    between atoms: N_4  and  C_5 
REMARK       I    between atoms: C_5  and  N_6 
REMARK    2  A    between atoms: N_6  and  C_7 
REMARK    3  A    between atoms: C_7  and  C_8 
REMARK    4  A    between atoms: C_10  and  C_11 
REMARK       I    between atoms: C_11  and  N_12 
REMARK    5  A    between atoms: N_12  and  C_13 
REMARK    6  A    between atoms: C_13  and  C_14 
ROOT
HETATM    1  C   UNL     1      41.921 -12.373   5.549  1.00  0.00    -0.040 A 
HETATM    2  C   UNL     1      42.626 -13.118   4.591  1.00  0.00     0.026 A 
HETATM    3  C   UNL     1      42.143 -14.354   4.145  1.00  0.00     0.032 A 
HETATM    4  C   UNL     1      40.965 -14.871   4.692  1.00  0.00     0.017 A 
HETATM    5  C   UNL     1      40.256 -14.139   5.646  1.00  0.00     0.002 A 
HETATM    6  C   UNL     1      40.725 -12.891   6.063  1.00  0.00     0.009 A 
ENDROOT
BRANCH   1   7
HETATM    7  C   UNL     1      42.436 -11.023   5.977  1.00  0.00     0.162 C 
BRANCH   7   8
HETATM    8  N   UNL     1      41.850 -10.578   7.225  1.00  0.00    -0.339 N 
HETATM    9  C   UNL     1      42.570  -9.774   8.093  1.00  0.00     0.321 C 
HETATM   10  N   UNL     1      41.835  -9.537   9.232  1.00  0.00    -0.307 N 
HETATM   11  O   UNL     1      43.677  -9.334   7.826  1.00  0.00    -0.247 OA
HETATM   12  H   UNL     1      40.841  -9.592   9.061  1.00  0.00     0.170 HD
HETATM   13  H   UNL     1      41.244 -11.241   7.682  1.00  0.00     0.164 HD
BRANCH  10  14
HETATM   14  C   UNL     1      42.217  -8.849  10.408  1.00  0.00     0.059 A 
HETATM   15  C   UNL     1      43.111  -9.281  11.398  1.00  0.00    -0.032 A 
HETATM   16  C   UNL     1      43.813 -10.607  11.419  1.00  0.00     0.050 C 
HETATM   17  C   UNL     1      43.373  -8.416  12.481  1.00  0.00     0.028 A 
HETATM   18  C   UNL     1      42.708  -7.206  12.575  1.00  0.00     0.117 A 
HETATM   19  N   UNL     1      41.803  -6.786  11.675  1.00  0.00    -0.271 NA
HETATM   20  C   UNL     1      41.587  -7.614  10.626  1.00  0.00     0.146 A 
ENDBRANCH  10  14
ENDBRANCH   7   8
ENDBRANCH   1   7
BRANCH   3  21
HETATM   21  C   UNL     1      42.862 -15.143   3.108  1.00  0.00     0.252 C 
HETATM   22  N   UNL     1      42.719 -16.508   3.175  1.00  0.00    -0.351 N 
HETATM   23  H   UNL     1      42.175 -16.946   3.909  1.00  0.00     0.163 HD
HETATM   24  O   UNL     1      43.550 -14.577   2.266  1.00  0.00    -0.268 OA
BRANCH  22  25
HETATM   25  C   UNL     1      43.282 -17.372   2.166  1.00  0.00     0.187 C 
BRANCH  25  26
HETATM   26  C   UNL     1      43.542 -18.711   2.752  1.00  0.00     0.070 A 
HETATM   27  O   UNL     1      43.970 -18.752   4.049  1.00  0.00    -0.325 OA
HETATM   28  C   UNL     1      44.154 -20.057   4.369  1.00  0.00     0.142 A 
HETATM   29  C   UNL     1      43.837 -20.863   3.301  1.00  0.00     0.027 A 
HETATM   30  C   UNL     1      43.440 -19.995   2.255  1.00  0.00     0.036 A 
ENDBRANCH  25  26
ENDBRANCH  22  25
ENDBRANCH   3  21
TORSDOF 6
ENDMDL
MODEL 8
REMARK VINA RESULT:      -7.7      3.287      7.744
REMARK  6 active torsions:
REMARK  status: ('A' for Active; 'I' for Inactive)
REMARK    1  A    between atoms: C_3  and  N_4 
REMARK       I    between atoms: N_4  and  C_5 
REMARK       I    between atoms: C_5  and  N_6 
REMARK    2  A    between atoms: N_6  and  C_7 
REMARK    3  A    between atoms: C_7  and  C_8 
REMARK    4  A    between atoms: C_10  and  C_11 
REMARK       I    between atoms: C_11  and  N_12 
REMARK    5  A    between atoms: N_12  and  C_13 
REMARK    6  A    between atoms: C_13  and  C_14 
ROOT
HETATM    1  C   UNL     1      39.070 -10.888   5.137  1.00  0.00    -0.040 A 
HETATM    2  C   UNL     1      39.520 -12.215   5.057  1.00  0.00     0.026 A 
HETATM    3  C   UNL     1      39.613 -12.867   3.822  1.00  0.00     0.032 A 
HETATM    4  C   UNL     1      39.212 -12.201   2.659  1.00  0.00     0.017 A 
HETATM    5  C   UNL     1      38.762 -10.881   2.729  1.00  0.00     0.002 A 
HETATM    6  C   UNL     1      38.703 -10.224   3.959  1.00  0.00     0.009 A 
ENDROOT
BRANCH   1   7
HETATM    7  C   UNL     1      39.026 -10.191   6.474  1.00  0.00     0.162 C 
BRANCH   7   8
HETATM    8  N   UNL     1      40.198 -10.468   7.281  1.00  0.00    -0.339 N 
HETATM    9  C   UNL     1      41.416  -9.885   6.976  1.00  0.00     0.321 C 
HETATM   10  N   UNL     1      42.385 -10.346   7.835  1.00  0.00    -0.307 N 
HETATM   11  O   UNL     1      41.552  -9.058   6.087  1.00  0.00    -0.247 OA
HETATM   12  H   UNL     1      42.000 -10.633   8.724  1.00  0.00     0.170 HD
HETATM   13  H   UNL     1      40.267 -11.408   7.638  1.00  0.00     0.164 HD
BRANCH  10  14
HETATM   14  C   UNL     1      43.777 -10.087   7.827  1.00  0.00     0.059 A 
HETATM   15  C   UNL     1      44.803 -10.945   7.408  1.00  0.00    -0.032 A 
HETATM   16  C   UNL     1      44.617 -12.352   6.921  1.00  0.00     0.050 C 
HETATM   17  C   UNL     1      46.130 -10.469   7.456  1.00  0.00     0.028 A 
HETATM   18  C   UNL     1      46.394  -9.209   7.964  1.00  0.00     0.117 A 
HETATM   19  N   UNL     1      45.441  -8.383   8.428  1.00  0.00    -0.271 NA
HETATM   20  C   UNL     1      44.171  -8.843   8.345  1.00  0.00     0.146 A 
ENDBRANCH  10  14
ENDBRANCH   7   8
ENDBRANCH   1   7
BRANCH   3  21
HETATM   21  C   UNL     1      40.116 -14.263   3.714  1.00  0.00     0.252 C 
HETATM   22  N   UNL     1      40.564 -14.840   4.878  1.00  0.00    -0.351 N 
HETATM   23  H   UNL     1      40.573 -14.326   5.752  1.00  0.00     0.163 HD
HETATM   24  O   UNL     1      40.133 -14.833   2.628  1.00  0.00    -0.268 OA
BRANCH  22  25
HETATM   25  C   UNL     1      40.978 -16.221   4.920  1.00  0.00     0.187 C 
BRANCH  25  26
HETATM   26  C   UNL     1      42.282 -16.324   5.623  1.00  0.00     0.070 A 
HETATM   27  O   UNL     1      42.250 -16.434   6.985  1.00  0.00    -0.325 OA
HETATM   28  C   UNL     1      43.536 -16.500   7.411  1.00  0.00     0.142 A 
HETATM   29  C   UNL     1      44.400 -16.450   6.343  1.00  0.00     0.027 A 
HETATM   30  C   UNL     1      43.592 -16.336   5.186  1.00  0.00     0.036 A 
ENDBRANCH  25  26
ENDBRANCH  22  25
ENDBRANCH   3  21
TORSDOF 6
ENDMDL
MODEL 9
REMARK VINA RESULT:      -7.7      2.997      8.820
REMARK  6 active torsions:
REMARK  status: ('A' for Active; 'I' for Inactive)
REMARK    1  A    between atoms: C_3  and  N_4 
REMARK       I    between atoms: N_4  and  C_5 
REMARK       I    between atoms: C_5  and  N_6 
REMARK    2  A    between atoms: N_6  and  C_7 
REMARK    3  A    between atoms: C_7  and  C_8 
REMARK    4  A    between atoms: C_10  and  C_11 
REMARK       I    between atoms: C_11  and  N_12 
REMARK    5  A    between atoms: N_12  and  C_13 
REMARK    6  A    between atoms: C_13  and  C_14 
ROOT
HETATM    1  C   UNL     1      41.858 -15.494   4.788  1.00  0.00    -0.040 A 
HETATM    2  C   UNL     1      40.966 -15.294   3.722  1.00  0.00     0.026 A 
HETATM    3  C   UNL     1      41.233 -15.827   2.455  1.00  0.00     0.032 A 
HETATM    4  C   UNL     1      42.422 -16.529   2.239  1.00  0.00     0.017 A 
HETATM    5  C   UNL     1      43.315 -16.733   3.292  1.00  0.00     0.002 A 
HETATM    6  C   UNL     1      43.029 -16.229   4.562  1.00  0.00     0.009 A 
ENDROOT
BRANCH   1   7
HETATM    7  C   UNL     1      41.525 -14.952   6.155  1.00  0.00     0.162 C 
BRANCH   7   8
HETATM    8  N   UNL     1      41.837 -13.543   6.282  1.00  0.00    -0.339 N 
HETATM    9  C   UNL     1      42.996 -13.134   6.918  1.00  0.00     0.321 C 
HETATM   10  N   UNL     1      43.042 -11.760   6.973  1.00  0.00    -0.307 N 
HETATM   11  O   UNL     1      43.843 -13.916   7.322  1.00  0.00    -0.247 OA
HETATM   12  H   UNL     1      42.521 -11.332   6.221  1.00  0.00     0.170 HD
HETATM   13  H   UNL     1      41.047 -12.934   6.429  1.00  0.00     0.164 HD
BRANCH  10  14
HETATM   14  C   UNL     1      43.993 -10.928   7.610  1.00  0.00     0.059 A 
HETATM   15  C   UNL     1      45.325 -10.705   7.228  1.00  0.00    -0.032 A 
HETATM   16  C   UNL     1      46.020 -11.362   6.072  1.00  0.00     0.050 C 
HETATM   17  C   UNL     1      46.094  -9.805   7.993  1.00  0.00     0.028 A 
HETATM   18  C   UNL     1      45.550  -9.216   9.121  1.00  0.00     0.117 A 
HETATM   19  N   UNL     1      44.298  -9.450   9.548  1.00  0.00    -0.271 NA
HETATM   20  C   UNL     1      43.562 -10.292   8.784  1.00  0.00     0.146 A 
ENDBRANCH  10  14
ENDBRANCH   7   8
ENDBRANCH   1   7
BRANCH   3  21
HETATM   21  C   UNL     1      40.285 -15.651   1.321  1.00  0.00     0.252 C 
HETATM   22  N   UNL     1      40.355 -14.454   0.650  1.00  0.00    -0.351 N 
HETATM   23  H   UNL     1      41.001 -13.726   0.934  1.00  0.00     0.163 HD
HETATM   24  O   UNL     1      39.485 -16.536   1.040  1.00  0.00    -0.268 OA
BRANCH  22  25
HETATM   25  C   UNL     1      39.561 -14.207  -0.529  1.00  0.00     0.187 C 
BRANCH  25  26
HETATM   26  C   UNL     1      40.274 -13.250  -1.413  1.00  0.00     0.070 A 
HETATM   27  O   UNL     1      40.790 -12.127  -0.828  1.00  0.00    -0.325 OA
HETATM   28  C   UNL     1      41.378 -11.400  -1.811  1.00  0.00     0.142 A 
HETATM   29  C   UNL     1      41.263 -12.043  -3.021  1.00  0.00     0.027 A 
HETATM   30  C   UNL     1      40.550 -13.239  -2.765  1.00  0.00     0.036 A 
ENDBRANCH  25  26
ENDBRANCH  22  25
ENDBRANCH   3  21
TORSDOF 6
ENDMDL
MODEL 10
REMARK VINA RESULT:      -7.6      3.177      7.515
REMARK  6 active torsions:
REMARK  status: ('A' for Active; 'I' for Inactive)
REMARK    1  A    between atoms: C_3  and  N_4 
REMARK       I    between atoms: N_4  and  C_5 
REMARK       I    between atoms: C_5  and  N_6 
REMARK    2  A    between atoms: N_6  and  C_7 
REMARK    3  A    between atoms: C_7  and  C_8 
REMARK    4  A    between atoms: C_10  and  C_11 
REMARK       I    between atoms: C_11  and  N_12 
REMARK    5  A    between atoms: N_12  and  C_13 
REMARK    6  A    between atoms: C_13  and  C_14 
ROOT
HETATM    1  C   UNL     1      41.711 -12.371   5.550  1.00  0.00    -0.040 A 
HETATM    2  C   UNL     1      41.860 -13.765   5.615  1.00  0.00     0.026 A 
HETATM    3  C   UNL     1      42.955 -14.339   6.272  1.00  0.00     0.032 A 
HETATM    4  C   UNL     1      43.933 -13.513   6.833  1.00  0.00     0.017 A 
HETATM    5  C   UNL     1      43.794 -12.125   6.772  1.00  0.00     0.002 A 
HETATM    6  C   UNL     1      42.684 -11.557   6.146  1.00  0.00     0.009 A 
ENDROOT
BRANCH   1   7
HETATM    7  C   UNL     1      40.498 -11.777   4.880  1.00  0.00     0.162 C 
BRANCH   7   8
HETATM    8  N   UNL     1      40.659 -11.665   3.444  1.00  0.00    -0.339 N 
HETATM    9  C   UNL     1      39.847 -12.386   2.587  1.00  0.00     0.321 C 
HETATM   10  N   UNL     1      40.229 -12.168   1.283  1.00  0.00    -0.307 N 
HETATM   11  O   UNL     1      38.915 -13.073   2.976  1.00  0.00    -0.247 OA
HETATM   12  H   UNL     1      40.675 -11.270   1.163  1.00  0.00     0.170 HD
HETATM   13  H   UNL     1      41.608 -11.554   3.120  1.00  0.00     0.164 HD
BRANCH  10  14
HETATM   14  C   UNL     1      39.736 -12.770   0.100  1.00  0.00     0.059 A 
HETATM   15  C   UNL     1      39.791 -14.126  -0.255  1.00  0.00    -0.032 A 
HETATM   16  C   UNL     1      40.441 -15.211   0.551  1.00  0.00     0.050 C 
HETATM   17  C   UNL     1      39.207 -14.517  -1.477  1.00  0.00     0.028 A 
HETATM   18  C   UNL     1      38.653 -13.564  -2.315  1.00  0.00     0.117 A 
HETATM   19  N   UNL     1      38.635 -12.251  -2.032  1.00  0.00    -0.271 NA
HETATM   20  C   UNL     1      39.171 -11.896  -0.842  1.00  0.00     0.146 A 
ENDBRANCH  10  14
ENDBRANCH   7   8
ENDBRANCH   1   7
BRANCH   3  21
HETATM   21  C   UNL     1      43.113 -15.815   6.377  1.00  0.00     0.252 C 
HETATM   22  N   UNL     1      43.911 -16.410   5.430  1.00  0.00    -0.351 N 
HETATM   23  H   UNL     1      44.342 -15.870   4.688  1.00  0.00     0.163 HD
HETATM   24  O   UNL     1      42.535 -16.439   7.261  1.00  0.00    -0.268 OA
BRANCH  22  25
HETATM   25  C   UNL     1      44.223 -17.817   5.488  1.00  0.00     0.187 C 
BRANCH  25  26
HETATM   26  C   UNL     1      43.862 -18.457   4.198  1.00  0.00     0.070 A 
HETATM   27  O   UNL     1      44.006 -19.814   4.113  1.00  0.00    -0.325 OA
HETATM   28  C   UNL     1      43.636 -20.177   2.860  1.00  0.00     0.142 A 
HETATM   29  C   UNL     1      43.241 -19.077   2.136  1.00  0.00     0.027 A 
HETATM   30  C   UNL     1      43.386 -17.964   2.999  1.00  0.00     0.036 A 
ENDBRANCH  25  26
ENDBRANCH  22  25
ENDBRANCH   3  21
TORSDOF 6
ENDMDL
