MODEL 1
REMARK VINA RESULT:      -8.2      0.000      0.000
REMARK  5 active torsions:
REMARK  status: ('A' for Active; 'I' for Inactive)
REMARK    1  A    between atoms: C_3  and  N_4 
REMARK       I    between atoms: N_4  and  C_5 
REMARK       I    between atoms: C_5  and  N_6 
REMARK    2  A    between atoms: N_6  and  C_7 
REMARK    3  A    between atoms: C_7  and  C_8 
REMARK    4  A    between atoms: C_20  and  C_21 
REMARK       I    between atoms: C_21  and  N_22 
REMARK    5  A    between atoms: N_22  and  C_23 
ROOT
HETATM    1  C   UNL     1      39.039 -12.948   2.659  1.00  0.00     0.052 C 
HETATM    2  C   UNL     1      39.958 -14.144   2.730  1.00  0.00    -0.020 A 
HETATM    3  C   UNL     1      40.276 -14.747   3.974  1.00  0.00     0.043 A 
HETATM    4  C   UNL     1      41.052 -15.914   3.989  1.00  0.00     0.030 A 
HETATM    5  C   UNL     1      41.506 -16.494   2.801  1.00  0.00     0.003 A 
HETATM    6  C   UNL     1      41.245 -15.881   1.583  1.00  0.00     0.018 A 
HETATM    7  C   UNL     1      40.509 -14.692   1.546  1.00  0.00     0.040 A 
ENDROOT
BRANCH   3   8
HETATM    8  N   UNL     1      39.861 -14.092   5.154  1.00  0.00    -0.309 N 
HETATM    9  C   UNL     1      40.264 -12.982   5.821  1.00  0.00     0.321 C 
HETATM   10  N   UNL     1      41.483 -12.455   5.543  1.00  0.00    -0.338 N 
HETATM   11  O   UNL     1      39.519 -12.513   6.679  1.00  0.00    -0.247 OA
HETATM   12  H   UNL     1      42.195 -13.138   5.328  1.00  0.00     0.164 HD
HETATM   13  H   UNL     1      39.008 -14.431   5.579  1.00  0.00     0.170 HD
BRANCH  10  14
HETATM   14  C   UNL     1      41.923 -11.302   6.296  1.00  0.00     0.167 C 
BRANCH  14  15
HETATM   15  C   UNL     1      43.405 -11.206   6.246  1.00  0.00     0.009 A 
HETATM   16  C   UNL     1      44.242 -11.379   5.107  1.00  0.00     0.060 A 
HETATM   17  C   UNL     1      43.839 -11.683   3.711  1.00  0.00     0.073 C 
HETATM   18  N   UNL     1      45.537 -11.250   5.416  1.00  0.00    -0.179 NA
HETATM   19  N   UNL     1      45.539 -11.025   6.736  1.00  0.00    -0.282 N 
HETATM   20  H   UNL     1      46.435 -10.915   7.200  1.00  0.00     0.189 HD
HETATM   21  C   UNL     1      44.291 -10.994   7.290  1.00  0.00     0.034 A 
HETATM   22  C   UNL     1      44.083 -10.779   8.741  1.00  0.00     0.070 C 
ENDBRANCH  14  15
ENDBRANCH  10  14
ENDBRANCH   3   8
BRANCH   7  23
HETATM   23  C   UNL     1      40.390 -14.034   0.214  1.00  0.00     0.252 C 
HETATM   24  N   UNL     1      39.515 -14.654  -0.653  1.00  0.00    -0.349 N 
HETATM   25  H   UNL     1      38.917 -15.368  -0.255  1.00  0.00     0.163 HD
HETATM   26  O   UNL     1      40.997 -12.997  -0.010  1.00  0.00    -0.268 OA
BRANCH  24  27
HETATM   27  C   UNL     1      39.148 -14.159  -1.988  1.00  0.00     0.022 C 
HETATM   28  C   UNL     1      40.379 -13.673  -2.771  1.00  0.00     0.037 C 
HETATM   29  C   UNL     1      38.523 -15.332  -2.767  1.00  0.00     0.037 C 
HETATM   30  C   UNL     1      38.113 -13.032  -1.876  1.00  0.00     0.037 C 
ENDBRANCH  24  27
ENDBRANCH   7  23
TORSDOF 5
ENDMDL
MODEL 2
REMARK VINA RESULT:      -8.1      3.377      5.638
REMARK  5 active torsions:
REMARK  status: ('A' for Active; 'I' for Inactive)
REMARK    1  A    between atoms: C_3  and  N_4 
REMARK       I    between atoms: N_4  and  C_5 
REMARK       I    between atoms: C_5  and  N_6 
REMARK    2  A    between atoms: N_6  and  C_7 
REMARK    3  A    between atoms: C_7  and  C_8 
REMARK    4  A    between atoms: C_20  and  C_21 
REMARK       I    between atoms: C_21  and  N_22 
REMARK    5  A    between atoms: N_22  and  C_23 
ROOT
HETATM    1  C   UNL     1      40.375 -15.119   2.755  1.00  0.00     0.052 C 
HETATM    2  C   UNL     1      41.263 -13.914   2.959  1.00  0.00    -0.020 A 
HETATM    3  C   UNL     1      42.115 -13.819   4.089  1.00  0.00     0.043 A 
HETATM    4  C   UNL     1      42.995 -12.733   4.191  1.00  0.00     0.030 A 
HETATM    5  C   UNL     1      43.051 -11.754   3.196  1.00  0.00     0.003 A 
HETATM    6  C   UNL     1      42.183 -11.810   2.113  1.00  0.00     0.018 A 
HETATM    7  C   UNL     1      41.266 -12.862   2.012  1.00  0.00     0.040 A 
ENDROOT
BRANCH   3   8
HETATM    8  N   UNL     1      41.977 -14.788   5.107  1.00  0.00    -0.309 N 
HETATM    9  C   UNL     1      42.657 -15.908   5.457  1.00  0.00     0.321 C 
HETATM   10  N   UNL     1      43.504 -16.469   4.558  1.00  0.00    -0.338 N 
HETATM   11  O   UNL     1      42.453 -16.392   6.569  1.00  0.00    -0.247 OA
HETATM   12  H   UNL     1      43.198 -16.407   3.598  1.00  0.00     0.164 HD
HETATM   13  H   UNL     1      41.294 -14.588   5.825  1.00  0.00     0.170 HD
BRANCH  10  14
HETATM   14  C   UNL     1      44.184 -17.692   4.924  1.00  0.00     0.167 C 
BRANCH  14  15
HETATM   15  C   UNL     1      43.876 -18.753   3.930  1.00  0.00     0.009 A 
HETATM   16  C   UNL     1      44.007 -20.161   4.102  1.00  0.00     0.060 A 
HETATM   17  C   UNL     1      44.467 -20.898   5.306  1.00  0.00     0.073 C 
HETATM   18  N   UNL     1      43.667 -20.832   2.996  1.00  0.00    -0.179 NA
HETATM   19  N   UNL     1      43.349 -19.875   2.116  1.00  0.00    -0.282 N 
HETATM   20  H   UNL     1      43.074 -20.158   1.180  1.00  0.00     0.189 HD
HETATM   21  C   UNL     1      43.460 -18.609   2.616  1.00  0.00     0.034 A 
HETATM   22  C   UNL     1      43.173 -17.412   1.791  1.00  0.00     0.070 C 
ENDBRANCH  14  15
ENDBRANCH  10  14
ENDBRANCH   3   8
BRANCH   7  23
HETATM   23  C   UNL     1      40.286 -12.772   0.892  1.00  0.00     0.252 C 
HETATM   24  N   UNL     1      40.811 -13.057  -0.351  1.00  0.00    -0.349 N 
HETATM   25  H   UNL     1      41.738 -13.465  -0.365  1.00  0.00     0.163 HD
HETATM   26  O   UNL     1      39.114 -12.522   1.127  1.00  0.00    -0.268 OA
BRANCH  24  27
HETATM   27  C   UNL     1      40.043 -13.130  -1.602  1.00  0.00     0.022 C 
HETATM   28  C   UNL     1      39.153 -11.890  -1.794  1.00  0.00     0.037 C 
HETATM   29  C   UNL     1      41.049 -13.178  -2.768  1.00  0.00     0.037 C 
HETATM   30  C   UNL     1      39.189 -14.404  -1.632  1.00  0.00     0.037 C 
ENDBRANCH  24  27
ENDBRANCH   7  23
TORSDOF 5
ENDMDL
MODEL 3
REMARK VINA RESULT:      -7.9      3.558      8.864
REMARK  5 active torsions:
REMARK  status: ('A' for Active; 'I' for Inactive)
REMARK    1  A    between atoms: C_3  and  N_4 
REMARK       I    between atoms: N_4  and  C_5 
REMARK       I    between atoms: C_5  and  N_6 
REMARK    2  A    between atoms: N_6  and  C_7 
REMARK    3  A    between atoms: C_7  and  C_8 
REMARK    4  A    between atoms: C_20  and  C_21 
REMARK       I    between atoms: C_21  and  N_22 
REMARK    5  A    between atoms: N_22  and  C_23 
ROOT
HETATM    1  C   UNL     1      41.617 -10.282   6.582  1.00  0.00     0.052 C 
HETATM    2  C   UNL     1      43.081 -10.645   6.656  1.00  0.00    -0.020 A 
HETATM    3  C   UNL     1      43.694 -11.417   5.635  1.00  0.00     0.043 A 
HETATM    4  C   UNL     1      45.074 -11.649   5.690  1.00  0.00     0.030 A 
HETATM    5  C   UNL     1      45.854 -11.123   6.724  1.00  0.00     0.003 A 
HETATM    6  C   UNL     1      45.255 -10.412   7.755  1.00  0.00     0.018 A 
HETATM    7  C   UNL     1      43.871 -10.204   7.745  1.00  0.00     0.040 A 
ENDROOT
BRANCH   3   8
HETATM    8  N   UNL     1      42.862 -11.991   4.649  1.00  0.00    -0.309 N 
HETATM    9  C   UNL     1      42.147 -13.139   4.554  1.00  0.00     0.321 C 
HETATM   10  N   UNL     1      42.420 -14.156   5.410  1.00  0.00    -0.338 N 
HETATM   11  O   UNL     1      41.296 -13.226   3.670  1.00  0.00    -0.247 OA
HETATM   12  H   UNL     1      43.396 -14.249   5.650  1.00  0.00     0.164 HD
HETATM   13  H   UNL     1      42.635 -11.403   3.857  1.00  0.00     0.170 HD
BRANCH  10  14
HETATM   14  C   UNL     1      41.686 -15.393   5.265  1.00  0.00     0.167 C 
BRANCH  14  15
HETATM   15  C   UNL     1      42.611 -16.478   4.848  1.00  0.00     0.009 A 
HETATM   16  C   UNL     1      43.457 -17.260   5.685  1.00  0.00     0.060 A 
HETATM   17  C   UNL     1      43.608 -17.187   7.160  1.00  0.00     0.073 C 
HETATM   18  N   UNL     1      44.182 -18.137   4.982  1.00  0.00    -0.179 NA
HETATM   19  N   UNL     1      43.833 -17.907   3.710  1.00  0.00    -0.282 N 
HETATM   20  H   UNL     1      44.284 -18.455   2.984  1.00  0.00     0.189 HD
HETATM   21  C   UNL     1      42.900 -16.920   3.566  1.00  0.00     0.034 A 
HETATM   22  C   UNL     1      42.399 -16.503   2.236  1.00  0.00     0.070 C 
ENDBRANCH  14  15
ENDBRANCH  10  14
ENDBRANCH   3   8
BRANCH   7  23
HETATM   23  C   UNL     1      43.297  -9.549   8.954  1.00  0.00     0.252 C 
HETATM   24  N   UNL     1      43.283 -10.343  10.082  1.00  0.00    -0.349 N 
HETATM   25  H   UNL     1      43.812 -11.204  10.032  1.00  0.00     0.163 HD
HETATM   26  O   UNL     1      42.941  -8.381   8.903  1.00  0.00    -0.268 OA
BRANCH  24  27
HETATM   27  C   UNL     1      42.856  -9.910  11.420  1.00  0.00     0.022 C 
HETATM   28  C   UNL     1      41.335  -9.697  11.490  1.00  0.00     0.037 C 
HETATM   29  C   UNL     1      43.225 -11.028  12.414  1.00  0.00     0.037 C 
HETATM   30  C   UNL     1      43.589  -8.625  11.826  1.00  0.00     0.037 C 
ENDBRANCH  24  27
ENDBRANCH   7  23
TORSDOF 5
ENDMDL
MODEL 4
REMARK VINA RESULT:      -7.7      4.306      7.008
REMARK  5 active torsions:
REMARK  status: ('A' for Active; 'I' for Inactive)
REMARK    1  A    between atoms: C_3  and  N_4 
REMARK       I    between atoms: N_4  and  C_5 
REMARK       I    between atoms: C_5  and  N_6 
REMARK    2  A    between atoms: N_6  and  C_7 
REMARK    3  A    between atoms: C_7  and  C_8 
REMARK    4  A    between atoms: C_20  and  C_21 
REMARK       I    between atoms: C_21  and  N_22 
REMARK    5  A    between atoms: N_22  and  C_23 
ROOT
HETATM    1  C   UNL     1      41.013 -11.794   6.022  1.00  0.00     0.052 C 
HETATM    2  C   UNL     1      42.469 -11.624   6.387  1.00  0.00    -0.020 A 
HETATM    3  C   UNL     1      42.911 -10.486   7.111  1.00  0.00     0.043 A 
HETATM    4  C   UNL     1      44.251 -10.413   7.515  1.00  0.00     0.030 A 
HETATM    5  C   UNL     1      45.149 -11.444   7.227  1.00  0.00     0.003 A 
HETATM    6  C   UNL     1      44.738 -12.535   6.474  1.00  0.00     0.018 A 
HETATM    7  C   UNL     1      43.417 -12.610   6.021  1.00  0.00     0.040 A 
ENDROOT
BRANCH   3   8
HETATM    8  N   UNL     1      41.993  -9.434   7.319  1.00  0.00    -0.309 N 
HETATM    9  C   UNL     1      41.525  -8.776   8.409  1.00  0.00     0.321 C 
HETATM   10  N   UNL     1      41.697  -9.332   9.634  1.00  0.00    -0.338 N 
HETATM   11  O   UNL     1      40.932  -7.712   8.240  1.00  0.00    -0.247 OA
HETATM   12  H   UNL     1      41.631 -10.339   9.650  1.00  0.00     0.164 HD
HETATM   13  H   UNL     1      41.658  -8.961   6.489  1.00  0.00     0.170 HD
BRANCH  10  14
HETATM   14  C   UNL     1      41.150  -8.646  10.784  1.00  0.00     0.167 C 
BRANCH  14  15
HETATM   15  C   UNL     1      40.364  -9.601  11.608  1.00  0.00     0.009 A 
HETATM   16  C   UNL     1      40.569  -9.928  12.979  1.00  0.00     0.060 A 
HETATM   17  C   UNL     1      41.599  -9.394  13.905  1.00  0.00     0.073 C 
HETATM   18  N   UNL     1      39.696 -10.846  13.408  1.00  0.00    -0.179 NA
HETATM   19  N   UNL     1      38.958 -11.127  12.327  1.00  0.00    -0.282 N 
HETATM   20  H   UNL     1      38.229 -11.829  12.415  1.00  0.00     0.189 HD
HETATM   21  C   UNL     1      39.314 -10.417  11.217  1.00  0.00     0.034 A 
HETATM   22  C   UNL     1      38.631 -10.600   9.916  1.00  0.00     0.070 C 
ENDBRANCH  14  15
ENDBRANCH  10  14
ENDBRANCH   3   8
BRANCH   7  23
HETATM   23  C   UNL     1      43.098 -13.745   5.110  1.00  0.00     0.252 C 
HETATM   24  N   UNL     1      42.935 -14.959   5.746  1.00  0.00    -0.349 N 
HETATM   25  H   UNL     1      42.868 -14.932   6.756  1.00  0.00     0.163 HD
HETATM   26  O   UNL     1      42.946 -13.544   3.915  1.00  0.00    -0.268 OA
BRANCH  24  27
HETATM   27  C   UNL     1      42.528 -16.212   5.093  1.00  0.00     0.022 C 
HETATM   28  C   UNL     1      43.368 -16.496   3.837  1.00  0.00     0.037 C 
HETATM   29  C   UNL     1      42.766 -17.359   6.094  1.00  0.00     0.037 C 
HETATM   30  C   UNL     1      41.037 -16.169   4.735  1.00  0.00     0.037 C 
ENDBRANCH  24  27
ENDBRANCH   7  23
TORSDOF 5
ENDMDL
MODEL 5
REMARK VINA RESULT:      -7.7      1.591      2.474
REMARK  5 active torsions:
REMARK  status: ('A' for Active; 'I' for Inactive)
REMARK    1  A    between atoms: C_3  and  N_4 
REMARK       I    between atoms: N_4  and  C_5 
REMARK       I    between atoms: C_5  and  N_6 
REMARK    2  A    between atoms: N_6  and  C_7 
REMARK    3  A    between atoms: C_7  and  C_8 
REMARK    4  A    between atoms: C_20  and  C_21 
REMARK       I    between atoms: C_21  and  N_22 
REMARK    5  A    between atoms: N_22  and  C_23 
ROOT
HETATM    1  C   UNL     1      39.139 -13.063   2.706  1.00  0.00     0.052 C 
HETATM    2  C   UNL     1      40.050 -14.268   2.732  1.00  0.00    -0.020 A 
HETATM    3  C   UNL     1      40.382 -14.905   3.955  1.00  0.00     0.043 A 
HETATM    4  C   UNL     1      41.149 -16.078   3.929  1.00  0.00     0.030 A 
HETATM    5  C   UNL     1      41.579 -16.631   2.719  1.00  0.00     0.003 A 
HETATM    6  C   UNL     1      41.304 -15.985   1.521  1.00  0.00     0.018 A 
HETATM    7  C   UNL     1      40.577 -14.790   1.526  1.00  0.00     0.040 A 
ENDROOT
BRANCH   3   8
HETATM    8  N   UNL     1      39.991 -14.276   5.158  1.00  0.00    -0.309 N 
HETATM    9  C   UNL     1      40.389 -13.166   5.827  1.00  0.00     0.321 C 
HETATM   10  N   UNL     1      41.585 -12.605   5.516  1.00  0.00    -0.338 N 
HETATM   11  O   UNL     1      39.662 -12.727   6.716  1.00  0.00    -0.247 OA
HETATM   12  H   UNL     1      42.306 -13.267   5.268  1.00  0.00     0.164 HD
HETATM   13  H   UNL     1      39.161 -14.642   5.606  1.00  0.00     0.170 HD
BRANCH  10  14
HETATM   14  C   UNL     1      42.021 -11.452   6.271  1.00  0.00     0.167 C 
BRANCH  14  15
HETATM   15  C   UNL     1      41.824 -10.220   5.463  1.00  0.00     0.009 A 
HETATM   16  C   UNL     1      41.321  -8.966   5.912  1.00  0.00     0.060 A 
HETATM   17  C   UNL     1      40.889  -8.588   7.281  1.00  0.00     0.073 C 
HETATM   18  N   UNL     1      41.246  -8.074   4.918  1.00  0.00    -0.179 NA
HETATM   19  N   UNL     1      41.667  -8.748   3.840  1.00  0.00    -0.282 N 
HETATM   20  H   UNL     1      41.675  -8.265   2.947  1.00  0.00     0.189 HD
HETATM   21  C   UNL     1      42.021 -10.041   4.103  1.00  0.00     0.034 A 
HETATM   22  C   UNL     1      42.492 -10.957   3.039  1.00  0.00     0.070 C 
ENDBRANCH  14  15
ENDBRANCH  10  14
ENDBRANCH   3   8
BRANCH   7  23
HETATM   23  C   UNL     1      40.444 -14.098   0.213  1.00  0.00     0.252 C 
HETATM   24  N   UNL     1      39.544 -14.684  -0.653  1.00  0.00    -0.349 N 
HETATM   25  H   UNL     1      38.944 -15.400  -0.261  1.00  0.00     0.163 HD
HETATM   26  O   UNL     1      41.061 -13.065   0.003  1.00  0.00    -0.268 OA
BRANCH  24  27
HETATM   27  C   UNL     1      39.160 -14.152  -1.968  1.00  0.00     0.022 C 
HETATM   28  C   UNL     1      40.379 -13.634  -2.749  1.00  0.00     0.037 C 
HETATM   29  C   UNL     1      38.533 -15.305  -2.775  1.00  0.00     0.037 C 
HETATM   30  C   UNL     1      38.119 -13.036  -1.810  1.00  0.00     0.037 C 
ENDBRANCH  24  27
ENDBRANCH   7  23
TORSDOF 5
ENDMDL
MODEL 6
REMARK VINA RESULT:      -7.7      4.498      6.589
REMARK  5 active torsions:
REMARK  status: ('A' for Active; 'I' for Inactive)
REMARK    1  A    between atoms: C_3  and  N_4 
REMARK       I    between atoms: N_4  and  C_5 
REMARK       I    between atoms: C_5  and  N_6 
REMARK    2  A    between atoms: N_6  and  C_7 
REMARK    3  A    between atoms: C_7  and  C_8 
REMARK    4  A    between atoms: C_20  and  C_21 
REMARK       I    between atoms: C_21  and  N_22 
REMARK    5  A    between atoms: N_22  and  C_23 
ROOT
HETATM    1  C   UNL     1      42.977 -10.845   5.717  1.00  0.00     0.052 C 
HETATM    2  C   UNL     1      41.487 -10.736   5.942  1.00  0.00    -0.020 A 
HETATM    3  C   UNL     1      40.903  -9.524   6.391  1.00  0.00     0.043 A 
HETATM    4  C   UNL     1      39.509  -9.434   6.493  1.00  0.00     0.030 A 
HETATM    5  C   UNL     1      38.689 -10.513   6.150  1.00  0.00     0.003 A 
HETATM    6  C   UNL     1      39.253 -11.720   5.761  1.00  0.00     0.018 A 
HETATM    7  C   UNL     1      40.645 -11.847   5.694  1.00  0.00     0.040 A 
ENDROOT
BRANCH   3   8
HETATM    8  N   UNL     1      41.767  -8.483   6.797  1.00  0.00    -0.309 N 
HETATM    9  C   UNL     1      42.398  -8.163   7.954  1.00  0.00     0.321 C 
HETATM   10  N   UNL     1      41.979  -8.736   9.110  1.00  0.00    -0.338 N 
HETATM   11  O   UNL     1      43.310  -7.338   7.914  1.00  0.00    -0.247 OA
HETATM   12  H   UNL     1      40.983  -8.887   9.165  1.00  0.00     0.164 HD
HETATM   13  H   UNL     1      42.102  -7.868   6.067  1.00  0.00     0.170 HD
BRANCH  10  14
HETATM   14  C   UNL     1      42.627  -8.349  10.344  1.00  0.00     0.167 C 
BRANCH  14  15
HETATM   15  C   UNL     1      43.131  -9.558  11.045  1.00  0.00     0.009 A 
HETATM   16  C   UNL     1      44.289 -10.322  10.723  1.00  0.00     0.060 A 
HETATM   17  C   UNL     1      45.265 -10.090   9.628  1.00  0.00     0.073 C 
HETATM   18  N   UNL     1      44.442 -11.366  11.544  1.00  0.00    -0.179 NA
HETATM   19  N   UNL     1      43.386 -11.295  12.365  1.00  0.00    -0.282 N 
HETATM   20  H   UNL     1      43.283 -12.015  13.073  1.00  0.00     0.189 HD
HETATM   21  C   UNL     1      42.562 -10.236  12.111  1.00  0.00     0.034 A 
HETATM   22  C   UNL     1      41.330  -9.996  12.897  1.00  0.00     0.070 C 
ENDBRANCH  14  15
ENDBRANCH  10  14
ENDBRANCH   3   8
BRANCH   7  23
HETATM   23  C   UNL     1      41.165 -13.212   5.398  1.00  0.00     0.252 C 
HETATM   24  N   UNL     1      41.711 -13.863   6.485  1.00  0.00    -0.349 N 
HETATM   25  H   UNL     1      41.548 -13.441   7.390  1.00  0.00     0.163 HD
HETATM   26  O   UNL     1      41.035 -13.685   4.279  1.00  0.00    -0.268 OA
BRANCH  24  27
HETATM   27  C   UNL     1      42.209 -15.246   6.485  1.00  0.00     0.022 C 
HETATM   28  C   UNL     1      43.266 -15.469   5.390  1.00  0.00     0.037 C 
HETATM   29  C   UNL     1      42.877 -15.503   7.849  1.00  0.00     0.037 C 
HETATM   30  C   UNL     1      41.048 -16.233   6.308  1.00  0.00     0.037 C 
ENDBRANCH  24  27
ENDBRANCH   7  23
TORSDOF 5
ENDMDL
MODEL 7
REMARK VINA RESULT:      -7.6      4.344      7.933
REMARK  5 active torsions:
REMARK  status: ('A' for Active; 'I' for Inactive)
REMARK    1  A    between atoms: C_3  and  N_4 
REMARK       I    between atoms: N_4  and  C_5 
REMARK       I    between atoms: C_5  and  N_6 
REMARK    2  A    between atoms: N_6  and  C_7 
REMARK    3  A    between atoms: C_7  and  C_8 
REMARK    4  A    between atoms: C_20  and  C_21 
REMARK       I    between atoms: C_21  and  N_22 
REMARK    5  A    between atoms: N_22  and  C_23 
ROOT
HETATM    1  C   UNL     1      41.987  -9.419   7.154  1.00  0.00     0.052 C 
HETATM    2  C   UNL     1      43.430  -9.734   7.472  1.00  0.00    -0.020 A 
HETATM    3  C   UNL     1      44.184  -8.901   8.339  1.00  0.00     0.043 A 
HETATM    4  C   UNL     1      45.488  -9.280   8.687  1.00  0.00     0.030 A 
HETATM    5  C   UNL     1      46.047 -10.466   8.203  1.00  0.00     0.003 A 
HETATM    6  C   UNL     1      45.336 -11.260   7.313  1.00  0.00     0.018 A 
HETATM    7  C   UNL     1      44.050 -10.879   6.917  1.00  0.00     0.040 A 
ENDROOT
BRANCH   3   8
HETATM    8  N   UNL     1      43.611  -7.677   8.746  1.00  0.00    -0.309 N 
HETATM    9  C   UNL     1      42.799  -7.294   9.763  1.00  0.00     0.321 C 
HETATM   10  N   UNL     1      42.107  -8.243  10.442  1.00  0.00    -0.338 N 
HETATM   11  O   UNL     1      42.697  -6.094  10.010  1.00  0.00    -0.247 OA
HETATM   12  H   UNL     1      41.790  -9.016   9.875  1.00  0.00     0.164 HD
HETATM   13  H   UNL     1      43.932  -6.848   8.262  1.00  0.00     0.170 HD
BRANCH  10  14
HETATM   14  C   UNL     1      41.206  -7.819  11.491  1.00  0.00     0.167 C 
BRANCH  14  15
HETATM   15  C   UNL     1      40.461  -8.993  12.015  1.00  0.00     0.009 A 
HETATM   16  C   UNL     1      40.489  -9.509  13.342  1.00  0.00     0.060 A 
HETATM   17  C   UNL     1      41.252  -8.999  14.509  1.00  0.00     0.073 C 
HETATM   18  N   UNL     1      39.718 -10.595  13.471  1.00  0.00    -0.179 NA
HETATM   19  N   UNL     1      39.222 -10.793  12.243  1.00  0.00    -0.282 N 
HETATM   20  H   UNL     1      38.613 -11.592  12.097  1.00  0.00     0.189 HD
HETATM   21  C   UNL     1      39.637  -9.869  11.327  1.00  0.00     0.034 A 
HETATM   22  C   UNL     1      39.215  -9.928   9.908  1.00  0.00     0.070 C 
ENDBRANCH  14  15
ENDBRANCH  10  14
ENDBRANCH   3   8
BRANCH   7  23
HETATM   23  C   UNL     1      43.414 -11.715   5.859  1.00  0.00     0.252 C 
HETATM   24  N   UNL     1      42.587 -12.710   6.339  1.00  0.00    -0.349 N 
HETATM   25  H   UNL     1      42.354 -12.666   7.323  1.00  0.00     0.163 HD
HETATM   26  O   UNL     1      43.601 -11.453   4.681  1.00  0.00    -0.268 OA
BRANCH  24  27
HETATM   27  C   UNL     1      41.772 -13.611   5.510  1.00  0.00     0.022 C 
HETATM   28  C   UNL     1      40.853 -12.828   4.557  1.00  0.00     0.037 C 
HETATM   29  C   UNL     1      42.734 -14.458   4.654  1.00  0.00     0.037 C 
HETATM   30  C   UNL     1      40.942 -14.548   6.396  1.00  0.00     0.037 C 
ENDBRANCH  24  27
ENDBRANCH   7  23
TORSDOF 5
ENDMDL
MODEL 8
REMARK VINA RESULT:      -7.5      3.647      6.083
REMARK  5 active torsions:
REMARK  status: ('A' for Active; 'I' for Inactive)
REMARK    1  A    between atoms: C_3  and  N_4 
REMARK       I    between atoms: N_4  and  C_5 
REMARK       I    between atoms: C_5  and  N_6 
REMARK    2  A    between atoms: N_6  and  C_7 
REMARK    3  A    between atoms: C_7  and  C_8 
REMARK    4  A    between atoms: C_20  and  C_21 
REMARK       I    between atoms: C_21  and  N_22 
REMARK    5  A    between atoms: N_22  and  C_23 
ROOT
HETATM    1  C   UNL     1      40.477 -12.458   5.850  1.00  0.00     0.052 C 
HETATM    2  C   UNL     1      41.949 -12.319   6.161  1.00  0.00    -0.020 A 
HETATM    3  C   UNL     1      42.472 -11.108   6.684  1.00  0.00     0.043 A 
HETATM    4  C   UNL     1      43.823 -11.051   7.051  1.00  0.00     0.030 A 
HETATM    5  C   UNL     1      44.655 -12.166   6.919  1.00  0.00     0.003 A 
HETATM    6  C   UNL     1      44.165 -13.338   6.359  1.00  0.00     0.018 A 
HETATM    7  C   UNL     1      42.830 -13.406   5.944  1.00  0.00     0.040 A 
ENDROOT
BRANCH   3   8
HETATM    8  N   UNL     1      41.620  -9.984   6.733  1.00  0.00    -0.309 N 
HETATM    9  C   UNL     1      41.021  -9.282   7.728  1.00  0.00     0.321 C 
HETATM   10  N   UNL     1      40.928  -9.841   8.961  1.00  0.00    -0.338 N 
HETATM   11  O   UNL     1      40.556  -8.175   7.464  1.00  0.00    -0.247 OA
HETATM   12  H   UNL     1      40.779 -10.839   8.958  1.00  0.00     0.164 HD
HETATM   13  H   UNL     1      41.476  -9.492   5.861  1.00  0.00     0.170 HD
BRANCH  10  14
HETATM   14  C   UNL     1      40.243  -9.105  10.000  1.00  0.00     0.167 C 
BRANCH  14  15
HETATM   15  C   UNL     1      41.033  -9.161  11.257  1.00  0.00     0.009 A 
HETATM   16  C   UNL     1      42.321  -8.600  11.493  1.00  0.00     0.060 A 
HETATM   17  C   UNL     1      43.168  -7.824  10.553  1.00  0.00     0.073 C 
HETATM   18  N   UNL     1      42.757  -8.857  12.730  1.00  0.00    -0.179 NA
HETATM   19  N   UNL     1      41.782  -9.594  13.276  1.00  0.00    -0.282 N 
HETATM   20  H   UNL     1      41.910  -9.928  14.227  1.00  0.00     0.189 HD
HETATM   21  C   UNL     1      40.726  -9.815  12.440  1.00  0.00     0.034 A 
HETATM   22  C   UNL     1      39.556 -10.626  12.851  1.00  0.00     0.070 C 
ENDBRANCH  14  15
ENDBRANCH  10  14
ENDBRANCH   3   8
BRANCH   7  23
HETATM   23  C   UNL     1      42.426 -14.651   5.233  1.00  0.00     0.252 C 
HETATM   24  N   UNL     1      42.878 -14.739   3.933  1.00  0.00    -0.349 N 
HETATM   25  H   UNL     1      43.572 -14.058   3.651  1.00  0.00     0.163 HD
HETATM   26  O   UNL     1      41.797 -15.515   5.826  1.00  0.00    -0.268 OA
BRANCH  24  27
HETATM   27  C   UNL     1      42.698 -15.898   3.047  1.00  0.00     0.022 C 
HETATM   28  C   UNL     1      41.211 -16.191   2.791  1.00  0.00     0.037 C 
HETATM   29  C   UNL     1      43.356 -15.561   1.695  1.00  0.00     0.037 C 
HETATM   30  C   UNL     1      43.387 -17.135   3.638  1.00  0.00     0.037 C 
ENDBRANCH  24  27
ENDBRANCH   7  23
TORSDOF 5
ENDMDL
MODEL 9
REMARK VINA RESULT:      -7.5      3.603      8.185
REMARK  5 active torsions:
REMARK  status: ('A' for Active; 'I' for Inactive)
REMARK    1  A    between atoms: C_3  and  N_4 
REMARK       I    between atoms: N_4  and  C_5 
REMARK       I    between atoms: C_5  and  N_6 
REMARK    2  A    between atoms: N_6  and  C_7 
REMARK    3  A    between atoms: C_7  and  C_8 
REMARK    4  A    between atoms: C_20  and  C_21 
REMARK       I    between atoms: C_21  and  N_22 
REMARK    5  A    between atoms: N_22  and  C_23 
ROOT
HETATM    1  C   UNL     1      43.228 -11.556   6.015  1.00  0.00     0.052 C 
HETATM    2  C   UNL     1      41.798 -11.088   6.148  1.00  0.00    -0.020 A 
HETATM    3  C   UNL     1      40.787 -11.578   5.283  1.00  0.00     0.043 A 
HETATM    4  C   UNL     1      39.456 -11.195   5.501  1.00  0.00     0.030 A 
HETATM    5  C   UNL     1      39.113 -10.352   6.561  1.00  0.00     0.003 A 
HETATM    6  C   UNL     1      40.103  -9.825   7.381  1.00  0.00     0.018 A 
HETATM    7  C   UNL     1      41.443 -10.158   7.155  1.00  0.00     0.040 A 
ENDROOT
BRANCH   3   8
HETATM    8  N   UNL     1      41.182 -12.368   4.181  1.00  0.00    -0.309 N 
HETATM    9  C   UNL     1      41.130 -13.691   3.888  1.00  0.00     0.321 C 
HETATM   10  N   UNL     1      40.921 -14.578   4.893  1.00  0.00    -0.338 N 
HETATM   11  O   UNL     1      41.306 -14.039   2.721  1.00  0.00    -0.247 OA
HETATM   12  H   UNL     1      41.352 -14.326   5.770  1.00  0.00     0.164 HD
HETATM   13  H   UNL     1      41.484 -11.867   3.356  1.00  0.00     0.170 HD
BRANCH  10  14
HETATM   14  C   UNL     1      40.918 -15.989   4.575  1.00  0.00     0.167 C 
BRANCH  14  15
HETATM   15  C   UNL     1      42.256 -16.569   4.861  1.00  0.00     0.009 A 
HETATM   16  C   UNL     1      43.106 -17.265   3.954  1.00  0.00     0.060 A 
HETATM   17  C   UNL     1      42.866 -17.565   2.520  1.00  0.00     0.073 C 
HETATM   18  N   UNL     1      44.232 -17.679   4.544  1.00  0.00    -0.179 NA
HETATM   19  N   UNL     1      44.101 -17.282   5.816  1.00  0.00    -0.282 N 
HETATM   20  H   UNL     1      44.846 -17.511   6.467  1.00  0.00     0.189 HD
HETATM   21  C   UNL     1      42.935 -16.617   6.068  1.00  0.00     0.034 A 
HETATM   22  C   UNL     1      42.595 -16.116   7.419  1.00  0.00     0.070 C 
ENDBRANCH  14  15
ENDBRANCH  10  14
ENDBRANCH   3   8
BRANCH   7  23
HETATM   23  C   UNL     1      42.447  -9.445   7.995  1.00  0.00     0.252 C 
HETATM   24  N   UNL     1      42.770 -10.091   9.170  1.00  0.00    -0.349 N 
HETATM   25  H   UNL     1      42.443 -11.044   9.264  1.00  0.00     0.163 HD
HETATM   26  O   UNL     1      42.952  -8.408   7.592  1.00  0.00    -0.268 OA
BRANCH  24  27
HETATM   27  C   UNL     1      43.794  -9.650  10.128  1.00  0.00     0.022 C 
HETATM   28  C   UNL     1      43.463  -8.268  10.717  1.00  0.00     0.037 C 
HETATM   29  C   UNL     1      43.820 -10.666  11.286  1.00  0.00     0.037 C 
HETATM   30  C   UNL     1      45.175  -9.624   9.461  1.00  0.00     0.037 C 
ENDBRANCH  24  27
ENDBRANCH   7  23
TORSDOF 5
ENDMDL
MODEL 10
REMARK VINA RESULT:      -7.4      3.831      6.542
REMARK  5 active torsions:
REMARK  status: ('A' for Active; 'I' for Inactive)
REMARK    1  A    between atoms: C_3  and  N_4 
REMARK       I    between atoms: N_4  and  C_5 
REMARK       I    between atoms: C_5  and  N_6 
REMARK    2  A    between atoms: N_6  and  C_7 
REMARK    3  A    between atoms: C_7  and  C_8 
REMARK    4  A    between atoms: C_20  and  C_21 
REMARK       I    between atoms: C_21  and  N_22 
REMARK    5  A    between atoms: N_22  and  C_23 
ROOT
HETATM    1  C   UNL     1      44.262 -13.269   6.770  1.00  0.00     0.052 C 
HETATM    2  C   UNL     1      43.177 -12.273   6.433  1.00  0.00    -0.020 A 
HETATM    3  C   UNL     1      43.177 -10.975   7.004  1.00  0.00     0.043 A 
HETATM    4  C   UNL     1      42.210 -10.048   6.591  1.00  0.00     0.030 A 
HETATM    5  C   UNL     1      41.260 -10.380   5.622  1.00  0.00     0.003 A 
HETATM    6  C   UNL     1      41.220 -11.664   5.097  1.00  0.00     0.018 A 
HETATM    7  C   UNL     1      42.147 -12.620   5.526  1.00  0.00     0.040 A 
ENDROOT
BRANCH   3   8
HETATM    8  N   UNL     1      44.106 -10.702   8.032  1.00  0.00    -0.309 N 
HETATM    9  C   UNL     1      44.024 -10.548   9.377  1.00  0.00     0.321 C 
HETATM   10  N   UNL     1      42.810 -10.319   9.938  1.00  0.00    -0.338 N 
HETATM   11  O   UNL     1      45.062 -10.590  10.034  1.00  0.00    -0.247 OA
HETATM   12  H   UNL     1      42.191  -9.751   9.379  1.00  0.00     0.164 HD
HETATM   13  H   UNL     1      45.083 -10.718   7.769  1.00  0.00     0.170 HD
BRANCH  10  14
HETATM   14  C   UNL     1      42.743 -10.105  11.367  1.00  0.00     0.167 C 
BRANCH  14  15
HETATM   15  C   UNL     1      41.751  -9.040  11.667  1.00  0.00     0.009 A 
HETATM   16  C   UNL     1      40.514  -9.184  12.360  1.00  0.00     0.060 A 
HETATM   17  C   UNL     1      39.932 -10.415  12.950  1.00  0.00     0.073 C 
HETATM   18  N   UNL     1      39.848  -8.027  12.436  1.00  0.00    -0.179 NA
HETATM   19  N   UNL     1      40.627  -7.156  11.780  1.00  0.00    -0.282 N 
HETATM   20  H   UNL     1      40.303  -6.198  11.692  1.00  0.00     0.189 HD
HETATM   21  C   UNL     1      41.777  -7.707  11.292  1.00  0.00     0.034 A 
HETATM   22  C   UNL     1      42.759  -6.912  10.519  1.00  0.00     0.070 C 
ENDBRANCH  14  15
ENDBRANCH  10  14
ENDBRANCH   3   8
BRANCH   7  23
HETATM   23  C   UNL     1      41.948 -14.005   5.012  1.00  0.00     0.252 C 
HETATM   24  N   UNL     1      42.554 -14.255   3.798  1.00  0.00    -0.349 N 
HETATM   25  H   UNL     1      43.207 -13.555   3.468  1.00  0.00     0.163 HD
HETATM   26  O   UNL     1      41.341 -14.824   5.685  1.00  0.00    -0.268 OA
BRANCH  24  27
HETATM   27  C   UNL     1      42.589 -15.559   3.118  1.00  0.00     0.022 C 
HETATM   28  C   UNL     1      43.226 -16.643   4.003  1.00  0.00     0.037 C 
HETATM   29  C   UNL     1      41.134 -15.975   2.829  1.00  0.00     0.037 C 
HETATM   30  C   UNL     1      43.346 -15.449   1.789  1.00  0.00     0.037 C 
ENDBRANCH  24  27
ENDBRANCH   7  23
TORSDOF 5
ENDMDL
