MODEL 1
REMARK VINA RESULT:      -7.8      0.000      0.000
REMARK  6 active torsions:
REMARK  status: ('A' for Active; 'I' for Inactive)
REMARK    1  A    between atoms: C_3  and  N_4 
REMARK       I    between atoms: N_4  and  C_5 
REMARK       I    between atoms: C_5  and  N_6 
REMARK    2  A    between atoms: N_6  and  C_7 
REMARK    3  A    between atoms: C_7  and  C_8 
REMARK    4  A    between atoms: C_8  and  N_9 
REMARK    5  A    between atoms: C_8  and  C_13 
REMARK    6  A    between atoms: C_20  and  C_21 
ROOT
HETATM    1  N   UNL     1      42.325 -14.954   1.315  1.00  0.00    -0.309 N 
HETATM    2  C   UNL     1      41.036 -14.945   0.850  1.00  0.00     0.320 C 
HETATM    3  N   UNL     1      40.957 -14.484  -0.441  1.00  0.00    -0.340 N 
HETATM    4  O   UNL     1      40.022 -15.287   1.449  1.00  0.00    -0.247 OA
HETATM    5  H   UNL     1      42.908 -14.225   0.924  1.00  0.00     0.170 HD
HETATM    6  H   UNL     1      41.818 -14.161  -0.864  1.00  0.00     0.164 HD
ENDROOT
BRANCH   1   7
HETATM    7  C   UNL     1      42.748 -15.413   2.586  1.00  0.00     0.043 A 
HETATM    8  C   UNL     1      42.893 -14.618   3.735  1.00  0.00    -0.035 A 
HETATM    9  C   UNL     1      42.526 -13.163   3.817  1.00  0.00     0.050 C 
HETATM   10  C   UNL     1      43.374 -15.219   4.914  1.00  0.00     0.010 A 
HETATM   11  C   UNL     1      43.651 -16.588   4.974  1.00  0.00     0.016 A 
HETATM   12  C   UNL     1      43.448 -17.398   3.856  1.00  0.00     0.019 A 
HETATM   13  C   UNL     1      42.989 -16.797   2.675  1.00  0.00     0.046 A 
BRANCH  12  14
HETATM   14  C   UNL     1      43.707 -18.835   3.873  1.00  0.00     0.179 A 
HETATM   15  O   UNL     1      44.089 -19.388   5.067  1.00  0.00    -0.302 OA
HETATM   16  C   UNL     1      44.254 -20.710   4.785  1.00  0.00     0.163 A 
HETATM   17  C   UNL     1      43.971 -20.898   3.456  1.00  0.00     0.144 A 
HETATM   18  N   UNL     1      43.624 -19.702   2.880  1.00  0.00    -0.234 NA
ENDBRANCH  12  14
ENDBRANCH   1   7
BRANCH   3  19
HETATM   19  C   UNL     1      39.706 -14.066  -1.077  1.00  0.00     0.164 C 
BRANCH  19  20
HETATM   20  C   UNL     1      39.833 -13.340  -2.456  1.00  0.00     0.261 C 
BRANCH  20  21
HETATM   21  N   UNL     1      38.525 -13.368  -3.246  1.00  0.00    -0.067 N 
HETATM   22  H   UNL     1      38.730 -12.823  -4.110  1.00  0.00     0.280 HD
HETATM   23  C   UNL     1      38.093 -14.713  -3.749  1.00  0.00     0.270 C 
HETATM   24  C   UNL     1      37.410 -12.644  -2.565  1.00  0.00     0.270 C 
ENDBRANCH  20  21
BRANCH  20  25
HETATM   25  C   UNL     1      40.381 -11.958  -2.278  1.00  0.00     0.085 A 
HETATM   26  O   UNL     1      40.641 -11.563  -0.996  1.00  0.00    -0.325 OA
HETATM   27  C   UNL     1      41.133 -10.300  -1.058  1.00  0.00     0.142 A 
HETATM   28  C   UNL     1      41.185  -9.870  -2.362  1.00  0.00     0.027 A 
HETATM   29  C   UNL     1      40.699 -10.939  -3.154  1.00  0.00     0.037 A 
ENDBRANCH  20  25
ENDBRANCH  19  20
ENDBRANCH   3  19
TORSDOF 6
ENDMDL
MODEL 2
REMARK VINA RESULT:      -7.6      1.784      2.769
REMARK  6 active torsions:
REMARK  status: ('A' for Active; 'I' for Inactive)
REMARK    1  A    between atoms: C_3  and  N_4 
REMARK       I    between atoms: N_4  and  C_5 
REMARK       I    between atoms: C_5  and  N_6 
REMARK    2  A    between atoms: N_6  and  C_7 
REMARK    3  A    between atoms: C_7  and  C_8 
REMARK    4  A    between atoms: C_8  and  N_9 
REMARK    5  A    between atoms: C_8  and  C_13 
REMARK    6  A    between atoms: C_20  and  C_21 
ROOT
HETATM    1  N   UNL     1      42.570 -14.166   1.512  1.00  0.00    -0.309 N 
HETATM    2  C   UNL     1      41.372 -13.554   1.247  1.00  0.00     0.320 C 
HETATM    3  N   UNL     1      41.372 -12.930   0.024  1.00  0.00    -0.340 N 
HETATM    4  O   UNL     1      40.376 -13.521   1.960  1.00  0.00    -0.247 OA
HETATM    5  H   UNL     1      43.369 -13.701   1.099  1.00  0.00     0.170 HD
HETATM    6  H   UNL     1      42.242 -12.941  -0.494  1.00  0.00     0.164 HD
ENDROOT
BRANCH   1   7
HETATM    7  C   UNL     1      42.877 -14.930   2.663  1.00  0.00     0.043 A 
HETATM    8  C   UNL     1      43.008 -14.427   3.968  1.00  0.00    -0.035 A 
HETATM    9  C   UNL     1      42.746 -13.000   4.361  1.00  0.00     0.050 C 
HETATM   10  C   UNL     1      43.368 -15.315   5.000  1.00  0.00     0.010 A 
HETATM   11  C   UNL     1      43.539 -16.681   4.761  1.00  0.00     0.016 A 
HETATM   12  C   UNL     1      43.347 -17.201   3.480  1.00  0.00     0.019 A 
HETATM   13  C   UNL     1      43.008 -16.315   2.447  1.00  0.00     0.046 A 
BRANCH  12  14
HETATM   14  C   UNL     1      43.496 -18.623   3.182  1.00  0.00     0.179 A 
HETATM   15  O   UNL     1      43.100 -19.046   1.940  1.00  0.00    -0.302 OA
HETATM   16  C   UNL     1      43.354 -20.385   1.948  1.00  0.00     0.163 A 
HETATM   17  C   UNL     1      43.882 -20.709   3.171  1.00  0.00     0.144 A 
HETATM   18  N   UNL     1      43.971 -19.584   3.954  1.00  0.00    -0.234 NA
ENDBRANCH  12  14
ENDBRANCH   1   7
BRANCH   3  19
HETATM   19  C   UNL     1      40.369 -11.943  -0.381  1.00  0.00     0.164 C 
BRANCH  19  20
HETATM   20  C   UNL     1      38.880 -12.424  -0.384  1.00  0.00     0.261 C 
BRANCH  20  21
HETATM   21  N   UNL     1      37.896 -11.254  -0.345  1.00  0.00    -0.067 N 
HETATM   22  H   UNL     1      37.234 -11.445  -1.127  1.00  0.00     0.280 HD
HETATM   23  C   UNL     1      37.024 -11.175   0.871  1.00  0.00     0.270 C 
HETATM   24  C   UNL     1      38.531  -9.940  -0.662  1.00  0.00     0.270 C 
ENDBRANCH  20  21
BRANCH  20  25
HETATM   25  C   UNL     1      38.629 -13.364  -1.522  1.00  0.00     0.085 A 
HETATM   26  O   UNL     1      39.242 -14.583  -1.454  1.00  0.00    -0.325 OA
HETATM   27  C   UNL     1      38.880 -15.275  -2.564  1.00  0.00     0.142 A 
HETATM   28  C   UNL     1      38.049 -14.515  -3.352  1.00  0.00     0.027 A 
HETATM   29  C   UNL     1      37.885 -13.278  -2.681  1.00  0.00     0.037 A 
ENDBRANCH  20  25
ENDBRANCH  19  20
ENDBRANCH   3  19
TORSDOF 6
ENDMDL
MODEL 3
REMARK VINA RESULT:      -7.6      1.758      2.174
REMARK  6 active torsions:
REMARK  status: ('A' for Active; 'I' for Inactive)
REMARK    1  A    between atoms: C_3  and  N_4 
REMARK       I    between atoms: N_4  and  C_5 
REMARK       I    between atoms: C_5  and  N_6 
REMARK    2  A    between atoms: N_6  and  C_7 
REMARK    3  A    between atoms: C_7  and  C_8 
REMARK    4  A    between atoms: C_8  and  N_9 
REMARK    5  A    between atoms: C_8  and  C_13 
REMARK    6  A    between atoms: C_20  and  C_21 
ROOT
HETATM    1  N   UNL     1      42.105 -14.593   1.080  1.00  0.00    -0.309 N 
HETATM    2  C   UNL     1      40.851 -14.728   0.546  1.00  0.00     0.320 C 
HETATM    3  N   UNL     1      40.724 -14.061  -0.648  1.00  0.00    -0.340 N 
HETATM    4  O   UNL     1      39.903 -15.350   1.012  1.00  0.00    -0.247 OA
HETATM    5  H   UNL     1      42.553 -13.712   0.858  1.00  0.00     0.170 HD
HETATM    6  H   UNL     1      41.521 -13.518  -0.954  1.00  0.00     0.164 HD
ENDROOT
BRANCH   1   7
HETATM    7  C   UNL     1      42.572 -15.193   2.274  1.00  0.00     0.043 A 
HETATM    8  C   UNL     1      42.766 -14.533   3.499  1.00  0.00    -0.035 A 
HETATM    9  C   UNL     1      42.417 -13.095   3.757  1.00  0.00     0.050 C 
HETATM   10  C   UNL     1      43.285 -15.266   4.584  1.00  0.00     0.010 A 
HETATM   11  C   UNL     1      43.552 -16.634   4.480  1.00  0.00     0.016 A 
HETATM   12  C   UNL     1      43.299 -17.312   3.287  1.00  0.00     0.019 A 
HETATM   13  C   UNL     1      42.802 -16.580   2.199  1.00  0.00     0.046 A 
BRANCH  12  14
HETATM   14  C   UNL     1      43.545 -18.743   3.132  1.00  0.00     0.179 A 
HETATM   15  O   UNL     1      43.257 -19.299   1.913  1.00  0.00    -0.302 OA
HETATM   16  C   UNL     1      43.581 -20.614   2.062  1.00  0.00     0.163 A 
HETATM   17  C   UNL     1      44.042 -20.795   3.341  1.00  0.00     0.144 A 
HETATM   18  N   UNL     1      44.017 -19.602   4.019  1.00  0.00    -0.234 NA
ENDBRANCH  12  14
ENDBRANCH   1   7
BRANCH   3  19
HETATM   19  C   UNL     1      39.435 -13.763  -1.276  1.00  0.00     0.164 C 
BRANCH  19  20
HETATM   20  C   UNL     1      38.980 -12.267  -1.261  1.00  0.00     0.261 C 
BRANCH  20  21
HETATM   21  N   UNL     1      37.648 -12.060  -1.981  1.00  0.00    -0.067 N 
HETATM   22  H   UNL     1      36.953 -11.938  -1.215  1.00  0.00     0.280 HD
HETATM   23  C   UNL     1      37.532 -10.806  -2.793  1.00  0.00     0.270 C 
HETATM   24  C   UNL     1      37.201 -13.263  -2.747  1.00  0.00     0.270 C 
ENDBRANCH  20  21
BRANCH  20  25
HETATM   25  C   UNL     1      38.981 -11.727   0.136  1.00  0.00     0.085 A 
HETATM   26  O   UNL     1      40.179 -11.280   0.618  1.00  0.00    -0.325 OA
HETATM   27  C   UNL     1      39.959 -10.831   1.880  1.00  0.00     0.142 A 
HETATM   28  C   UNL     1      38.638 -10.991   2.223  1.00  0.00     0.027 A 
HETATM   29  C   UNL     1      38.002 -11.571   1.097  1.00  0.00     0.037 A 
ENDBRANCH  20  25
ENDBRANCH  19  20
ENDBRANCH   3  19
TORSDOF 6
ENDMDL
MODEL 4
REMARK VINA RESULT:      -7.4      5.040      8.150
REMARK  6 active torsions:
REMARK  status: ('A' for Active; 'I' for Inactive)
REMARK    1  A    between atoms: C_3  and  N_4 
REMARK       I    between atoms: N_4  and  C_5 
REMARK       I    between atoms: C_5  and  N_6 
REMARK    2  A    between atoms: N_6  and  C_7 
REMARK    3  A    between atoms: C_7  and  C_8 
REMARK    4  A    between atoms: C_8  and  N_9 
REMARK    5  A    between atoms: C_8  and  C_13 
REMARK    6  A    between atoms: C_20  and  C_21 
ROOT
HETATM    1  N   UNL     1      41.306 -13.104   5.743  1.00  0.00    -0.309 N 
HETATM    2  C   UNL     1      41.855 -11.852   5.658  1.00  0.00     0.320 C 
HETATM    3  N   UNL     1      41.871 -11.212   6.873  1.00  0.00    -0.340 N 
HETATM    4  O   UNL     1      42.300 -11.296   4.660  1.00  0.00    -0.247 OA
HETATM    5  H   UNL     1      40.589 -13.191   6.452  1.00  0.00     0.170 HD
HETATM    6  H   UNL     1      41.438 -11.697   7.649  1.00  0.00     0.164 HD
ENDROOT
BRANCH   1   7
HETATM    7  C   UNL     1      41.185 -14.034   4.682  1.00  0.00     0.043 A 
HETATM    8  C   UNL     1      40.273 -13.944   3.617  1.00  0.00    -0.035 A 
HETATM    9  C   UNL     1      39.341 -12.788   3.387  1.00  0.00     0.050 C 
HETATM   10  C   UNL     1      40.246 -14.981   2.664  1.00  0.00     0.010 A 
HETATM   11  C   UNL     1      41.138 -16.055   2.729  1.00  0.00     0.016 A 
HETATM   12  C   UNL     1      42.091 -16.119   3.746  1.00  0.00     0.019 A 
HETATM   13  C   UNL     1      42.106 -15.097   4.707  1.00  0.00     0.046 A 
BRANCH  12  14
HETATM   14  C   UNL     1      43.056 -17.210   3.848  1.00  0.00     0.179 A 
HETATM   15  O   UNL     1      43.178 -18.040   2.764  1.00  0.00    -0.302 OA
HETATM   16  C   UNL     1      44.129 -18.940   3.138  1.00  0.00     0.163 A 
HETATM   17  C   UNL     1      44.535 -18.623   4.409  1.00  0.00     0.144 A 
HETATM   18  N   UNL     1      43.849 -17.522   4.857  1.00  0.00    -0.234 NA
ENDBRANCH  12  14
ENDBRANCH   1   7
BRANCH   3  19
HETATM   19  C   UNL     1      42.096  -9.774   7.029  1.00  0.00     0.164 C 
BRANCH  19  20
HETATM   20  C   UNL     1      42.886  -9.325   8.302  1.00  0.00     0.261 C 
BRANCH  20  21
HETATM   21  N   UNL     1      42.346  -9.975   9.576  1.00  0.00    -0.067 N 
HETATM   22  H   UNL     1      41.983 -10.900   9.263  1.00  0.00     0.280 HD
HETATM   23  C   UNL     1      43.367 -10.311  10.621  1.00  0.00     0.270 C 
HETATM   24  C   UNL     1      41.173  -9.253  10.154  1.00  0.00     0.270 C 
ENDBRANCH  20  21
BRANCH  20  25
HETATM   25  C   UNL     1      44.357  -9.536   8.114  1.00  0.00     0.085 A 
HETATM   26  O   UNL     1      44.734 -10.692   7.492  1.00  0.00    -0.325 OA
HETATM   27  C   UNL     1      46.089 -10.681   7.415  1.00  0.00     0.142 A 
HETATM   28  C   UNL     1      46.592  -9.537   7.988  1.00  0.00     0.027 A 
HETATM   29  C   UNL     1      45.474  -8.794   8.441  1.00  0.00     0.037 A 
ENDBRANCH  20  25
ENDBRANCH  19  20
ENDBRANCH   3  19
TORSDOF 6
ENDMDL
MODEL 5
REMARK VINA RESULT:      -7.4      5.153      8.466
REMARK  6 active torsions:
REMARK  status: ('A' for Active; 'I' for Inactive)
REMARK    1  A    between atoms: C_3  and  N_4 
REMARK       I    between atoms: N_4  and  C_5 
REMARK       I    between atoms: C_5  and  N_6 
REMARK    2  A    between atoms: N_6  and  C_7 
REMARK    3  A    between atoms: C_7  and  C_8 
REMARK    4  A    between atoms: C_8  and  N_9 
REMARK    5  A    between atoms: C_8  and  C_13 
REMARK    6  A    between atoms: C_20  and  C_21 
ROOT
HETATM    1  N   UNL     1      41.368 -13.429   5.471  1.00  0.00    -0.309 N 
HETATM    2  C   UNL     1      42.441 -12.597   5.657  1.00  0.00     0.320 C 
HETATM    3  N   UNL     1      42.390 -11.952   6.869  1.00  0.00    -0.340 N 
HETATM    4  O   UNL     1      43.373 -12.396   4.887  1.00  0.00    -0.247 OA
HETATM    5  H   UNL     1      40.520 -13.112   5.923  1.00  0.00     0.170 HD
HETATM    6  H   UNL     1      41.567 -12.114   7.437  1.00  0.00     0.164 HD
ENDROOT
BRANCH   1   7
HETATM    7  C   UNL     1      41.148 -14.267   4.351  1.00  0.00     0.043 A 
HETATM    8  C   UNL     1      40.213 -14.036   3.329  1.00  0.00    -0.035 A 
HETATM    9  C   UNL     1      39.360 -12.804   3.216  1.00  0.00     0.050 C 
HETATM   10  C   UNL     1      40.082 -14.996   2.307  1.00  0.00     0.010 A 
HETATM   11  C   UNL     1      40.897 -16.130   2.262  1.00  0.00     0.016 A 
HETATM   12  C   UNL     1      41.874 -16.335   3.237  1.00  0.00     0.019 A 
HETATM   13  C   UNL     1      41.991 -15.391   4.268  1.00  0.00     0.046 A 
BRANCH  12  14
HETATM   14  C   UNL     1      42.760 -17.495   3.226  1.00  0.00     0.179 A 
HETATM   15  O   UNL     1      42.616 -18.382   2.191  1.00  0.00    -0.302 OA
HETATM   16  C   UNL     1      43.555 -19.338   2.438  1.00  0.00     0.163 A 
HETATM   17  C   UNL     1      44.215 -18.996   3.591  1.00  0.00     0.144 A 
HETATM   18  N   UNL     1      43.706 -17.822   4.089  1.00  0.00    -0.234 NA
ENDBRANCH  12  14
ENDBRANCH   1   7
BRANCH   3  19
HETATM   19  C   UNL     1      43.209 -10.785   7.200  1.00  0.00     0.164 C 
BRANCH  19  20
HETATM   20  C   UNL     1      44.240 -10.964   8.363  1.00  0.00     0.261 C 
BRANCH  20  21
HETATM   21  N   UNL     1      45.672 -10.671   7.917  1.00  0.00    -0.067 N 
HETATM   22  H   UNL     1      46.268 -11.194   8.592  1.00  0.00     0.280 HD
HETATM   23  C   UNL     1      46.063 -11.216   6.576  1.00  0.00     0.270 C 
HETATM   24  C   UNL     1      46.053  -9.234   8.066  1.00  0.00     0.270 C 
ENDBRANCH  20  21
BRANCH  20  25
HETATM   25  C   UNL     1      43.826 -10.170   9.564  1.00  0.00     0.085 A 
HETATM   26  O   UNL     1      42.898  -9.189   9.358  1.00  0.00    -0.325 OA
HETATM   27  C   UNL     1      42.659  -8.605  10.560  1.00  0.00     0.142 A 
HETATM   28  C   UNL     1      43.428  -9.190  11.537  1.00  0.00     0.027 A 
HETATM   29  C   UNL     1      44.185 -10.203  10.897  1.00  0.00     0.037 A 
ENDBRANCH  20  25
ENDBRANCH  19  20
ENDBRANCH   3  19
TORSDOF 6
ENDMDL
MODEL 6
REMARK VINA RESULT:      -7.4      2.348      8.816
REMARK  6 active torsions:
REMARK  status: ('A' for Active; 'I' for Inactive)
REMARK    1  A    between atoms: C_3  and  N_4 
REMARK       I    between atoms: N_4  and  C_5 
REMARK       I    between atoms: C_5  and  N_6 
REMARK    2  A    between atoms: N_6  and  C_7 
REMARK    3  A    between atoms: C_7  and  C_8 
REMARK    4  A    between atoms: C_8  and  N_9 
REMARK    5  A    between atoms: C_8  and  C_13 
REMARK    6  A    between atoms: C_20  and  C_21 
ROOT
HETATM    1  N   UNL     1      39.557 -13.769   0.622  1.00  0.00    -0.309 N 
HETATM    2  C   UNL     1      40.184 -14.790   1.286  1.00  0.00     0.320 C 
HETATM    3  N   UNL     1      39.538 -15.118   2.454  1.00  0.00    -0.340 N 
HETATM    4  O   UNL     1      41.198 -15.389   0.950  1.00  0.00    -0.247 OA
HETATM    5  H   UNL     1      39.089 -13.109   1.230  1.00  0.00     0.170 HD
HETATM    6  H   UNL     1      38.740 -14.550   2.709  1.00  0.00     0.164 HD
ENDROOT
BRANCH   1   7
HETATM    7  C   UNL     1      39.942 -13.229  -0.629  1.00  0.00     0.043 A 
HETATM    8  C   UNL     1      39.762 -13.849  -1.877  1.00  0.00    -0.035 A 
HETATM    9  C   UNL     1      39.041 -15.151  -2.086  1.00  0.00     0.050 C 
HETATM   10  C   UNL     1      40.248 -13.200  -3.028  1.00  0.00     0.010 A 
HETATM   11  C   UNL     1      40.846 -11.939  -2.957  1.00  0.00     0.016 A 
HETATM   12  C   UNL     1      40.970 -11.286  -1.730  1.00  0.00     0.019 A 
HETATM   13  C   UNL     1      40.506 -11.941  -0.580  1.00  0.00     0.046 A 
BRANCH  12  14
HETATM   14  C   UNL     1      41.572  -9.962  -1.605  1.00  0.00     0.179 A 
HETATM   15  O   UNL     1      41.431  -9.108  -2.668  1.00  0.00    -0.302 OA
HETATM   16  C   UNL     1      42.076  -7.975  -2.273  1.00  0.00     0.163 A 
HETATM   17  C   UNL     1      42.573  -8.188  -1.013  1.00  0.00     0.144 A 
HETATM   18  N   UNL     1      42.250  -9.453  -0.591  1.00  0.00    -0.234 NA
ENDBRANCH  12  14
ENDBRANCH   1   7
BRANCH   3  19
HETATM   19  C   UNL     1      40.142 -15.931   3.511  1.00  0.00     0.164 C 
BRANCH  19  20
HETATM   20  C   UNL     1      41.346 -15.296   4.279  1.00  0.00     0.261 C 
BRANCH  20  21
HETATM   21  N   UNL     1      40.938 -14.758   5.650  1.00  0.00    -0.067 N 
HETATM   22  H   UNL     1      41.840 -14.598   6.147  1.00  0.00     0.280 HD
HETATM   23  C   UNL     1      40.268 -13.417   5.654  1.00  0.00     0.270 C 
HETATM   24  C   UNL     1      40.193 -15.755   6.476  1.00  0.00     0.270 C 
ENDBRANCH  20  21
BRANCH  20  25
HETATM   25  C   UNL     1      42.498 -16.251   4.343  1.00  0.00     0.085 A 
HETATM   26  O   UNL     1      43.365 -16.096   5.387  1.00  0.00    -0.325 OA
HETATM   27  C   UNL     1      44.316 -17.056   5.263  1.00  0.00     0.142 A 
HETATM   28  C   UNL     1      44.080 -17.823   4.147  1.00  0.00     0.027 A 
HETATM   29  C   UNL     1      42.905 -17.305   3.549  1.00  0.00     0.037 A 
ENDBRANCH  20  25
ENDBRANCH  19  20
ENDBRANCH   3  19
TORSDOF 6
ENDMDL
MODEL 7
REMARK VINA RESULT:      -7.3      2.438      4.288
REMARK  6 active torsions:
REMARK  status: ('A' for Active; 'I' for Inactive)
REMARK    1  A    between atoms: C_3  and  N_4 
REMARK       I    between atoms: N_4  and  C_5 
REMARK       I    between atoms: C_5  and  N_6 
REMARK    2  A    between atoms: N_6  and  C_7 
REMARK    3  A    between atoms: C_7  and  C_8 
REMARK    4  A    between atoms: C_8  and  N_9 
REMARK    5  A    between atoms: C_8  and  C_13 
REMARK    6  A    between atoms: C_20  and  C_21 
ROOT
HETATM    1  N   UNL     1      42.544 -14.724   2.190  1.00  0.00    -0.309 N 
HETATM    2  C   UNL     1      41.288 -14.877   1.666  1.00  0.00     0.320 C 
HETATM    3  N   UNL     1      41.258 -14.631   0.315  1.00  0.00    -0.340 N 
HETATM    4  O   UNL     1      40.263 -15.192   2.261  1.00  0.00    -0.247 OA
HETATM    5  H   UNL     1      43.105 -14.026   1.716  1.00  0.00     0.170 HD
HETATM    6  H   UNL     1      42.122 -14.319  -0.110  1.00  0.00     0.164 HD
ENDROOT
BRANCH   1   7
HETATM    7  C   UNL     1      42.918 -14.947   3.537  1.00  0.00     0.043 A 
HETATM    8  C   UNL     1      43.224 -16.196   4.104  1.00  0.00    -0.035 A 
HETATM    9  C   UNL     1      43.294 -17.486   3.336  1.00  0.00     0.050 C 
HETATM   10  C   UNL     1      43.531 -16.256   5.477  1.00  0.00     0.010 A 
HETATM   11  C   UNL     1      43.591 -15.101   6.262  1.00  0.00     0.016 A 
HETATM   12  C   UNL     1      43.353 -13.849   5.693  1.00  0.00     0.019 A 
HETATM   13  C   UNL     1      43.027 -13.790   4.330  1.00  0.00     0.046 A 
BRANCH  12  14
HETATM   14  C   UNL     1      43.420 -12.612   6.466  1.00  0.00     0.179 A 
HETATM   15  O   UNL     1      42.560 -11.606   6.112  1.00  0.00    -0.302 OA
HETATM   16  C   UNL     1      42.843 -10.602   6.988  1.00  0.00     0.163 A 
HETATM   17  C   UNL     1      43.844 -11.035   7.820  1.00  0.00     0.144 A 
HETATM   18  N   UNL     1      44.208 -12.315   7.484  1.00  0.00    -0.234 NA
ENDBRANCH  12  14
ENDBRANCH   1   7
BRANCH   3  19
HETATM   19  C   UNL     1      40.024 -14.406  -0.440  1.00  0.00     0.164 C 
BRANCH  19  20
HETATM   20  C   UNL     1      40.157 -13.583  -1.764  1.00  0.00     0.261 C 
BRANCH  20  21
HETATM   21  N   UNL     1      38.857 -13.567  -2.567  1.00  0.00    -0.067 N 
HETATM   22  H   UNL     1      39.072 -12.980  -3.400  1.00  0.00     0.280 HD
HETATM   23  C   UNL     1      38.427 -14.883  -3.140  1.00  0.00     0.270 C 
HETATM   24  C   UNL     1      37.737 -12.874  -1.860  1.00  0.00     0.270 C 
ENDBRANCH  20  21
BRANCH  20  25
HETATM   25  C   UNL     1      40.691 -12.212  -1.483  1.00  0.00     0.085 A 
HETATM   26  O   UNL     1      40.718 -11.822  -0.174  1.00  0.00    -0.325 OA
HETATM   27  C   UNL     1      41.238 -10.569  -0.141  1.00  0.00     0.142 A 
HETATM   28  C   UNL     1      41.537 -10.140  -1.412  1.00  0.00     0.027 A 
HETATM   29  C   UNL     1      41.184 -11.201  -2.283  1.00  0.00     0.037 A 
ENDBRANCH  20  25
ENDBRANCH  19  20
ENDBRANCH   3  19
TORSDOF 6
ENDMDL
MODEL 8
REMARK VINA RESULT:      -7.2      6.118      9.470
REMARK  6 active torsions:
REMARK  status: ('A' for Active; 'I' for Inactive)
REMARK    1  A    between atoms: C_3  and  N_4 
REMARK       I    between atoms: N_4  and  C_5 
REMARK       I    between atoms: C_5  and  N_6 
REMARK    2  A    between atoms: N_6  and  C_7 
REMARK    3  A    between atoms: C_7  and  C_8 
REMARK    4  A    between atoms: C_8  and  N_9 
REMARK    5  A    between atoms: C_8  and  C_13 
REMARK    6  A    between atoms: C_20  and  C_21 
ROOT
HETATM    1  N   UNL     1      43.429 -12.323   7.465  1.00  0.00    -0.309 N 
HETATM    2  C   UNL     1      42.483 -12.300   6.473  1.00  0.00     0.320 C 
HETATM    3  N   UNL     1      41.862 -13.516   6.326  1.00  0.00    -0.340 N 
HETATM    4  O   UNL     1      42.170 -11.354   5.759  1.00  0.00    -0.247 OA
HETATM    5  H   UNL     1      43.880 -13.221   7.582  1.00  0.00     0.170 HD
HETATM    6  H   UNL     1      42.203 -14.275   6.903  1.00  0.00     0.164 HD
ENDROOT
BRANCH   1   7
HETATM    7  C   UNL     1      44.210 -11.223   7.895  1.00  0.00     0.043 A 
HETATM    8  C   UNL     1      45.432 -10.818   7.331  1.00  0.00    -0.035 A 
HETATM    9  C   UNL     1      46.055 -11.439   6.113  1.00  0.00     0.050 C 
HETATM   10  C   UNL     1      46.113  -9.730   7.909  1.00  0.00     0.010 A 
HETATM   11  C   UNL     1      45.572  -9.018   8.984  1.00  0.00     0.016 A 
HETATM   12  C   UNL     1      44.328  -9.372   9.509  1.00  0.00     0.019 A 
HETATM   13  C   UNL     1      43.659 -10.470   8.948  1.00  0.00     0.046 A 
BRANCH  12  14
HETATM   14  C   UNL     1      43.714  -8.651  10.620  1.00  0.00     0.179 A 
HETATM   15  O   UNL     1      43.080  -7.473  10.326  1.00  0.00    -0.302 OA
HETATM   16  C   UNL     1      42.612  -7.037  11.529  1.00  0.00     0.163 A 
HETATM   17  C   UNL     1      42.977  -7.952  12.482  1.00  0.00     0.144 A 
HETATM   18  N   UNL     1      43.678  -8.978  11.899  1.00  0.00    -0.234 NA
ENDBRANCH  12  14
ENDBRANCH   1   7
BRANCH   3  19
HETATM   19  C   UNL     1      41.056 -13.878   5.158  1.00  0.00     0.164 C 
BRANCH  19  20
HETATM   20  C   UNL     1      41.395 -15.241   4.471  1.00  0.00     0.261 C 
BRANCH  20  21
HETATM   21  N   UNL     1      41.769 -15.069   2.999  1.00  0.00    -0.067 N 
HETATM   22  H   UNL     1      42.471 -15.818   2.819  1.00  0.00     0.280 HD
HETATM   23  C   UNL     1      40.675 -15.340   2.011  1.00  0.00     0.270 C 
HETATM   24  C   UNL     1      42.469 -13.780   2.716  1.00  0.00     0.270 C 
ENDBRANCH  20  21
BRANCH  20  25
HETATM   25  C   UNL     1      42.431 -15.986   5.256  1.00  0.00     0.085 A 
HETATM   26  O   UNL     1      42.086 -16.358   6.525  1.00  0.00    -0.325 OA
HETATM   27  C   UNL     1      43.148 -17.020   7.050  1.00  0.00     0.142 A 
HETATM   28  C   UNL     1      44.178 -17.071   6.142  1.00  0.00     0.027 A 
HETATM   29  C   UNL     1      43.717 -16.403   4.980  1.00  0.00     0.037 A 
ENDBRANCH  20  25
ENDBRANCH  19  20
ENDBRANCH   3  19
TORSDOF 6
ENDMDL
MODEL 9
REMARK VINA RESULT:      -7.0      2.483      3.367
REMARK  6 active torsions:
REMARK  status: ('A' for Active; 'I' for Inactive)
REMARK    1  A    between atoms: C_3  and  N_4 
REMARK       I    between atoms: N_4  and  C_5 
REMARK       I    between atoms: C_5  and  N_6 
REMARK    2  A    between atoms: N_6  and  C_7 
REMARK    3  A    between atoms: C_7  and  C_8 
REMARK    4  A    between atoms: C_8  and  N_9 
REMARK    5  A    between atoms: C_8  and  C_13 
REMARK    6  A    between atoms: C_20  and  C_21 
ROOT
HETATM    1  N   UNL     1      39.440 -13.774   2.950  1.00  0.00    -0.309 N 
HETATM    2  C   UNL     1      39.613 -12.630   2.218  1.00  0.00     0.320 C 
HETATM    3  N   UNL     1      38.533 -12.366   1.412  1.00  0.00    -0.340 N 
HETATM    4  O   UNL     1      40.581 -11.878   2.222  1.00  0.00    -0.247 OA
HETATM    5  H   UNL     1      38.878 -14.477   2.488  1.00  0.00     0.170 HD
HETATM    6  H   UNL     1      37.789 -13.052   1.407  1.00  0.00     0.164 HD
ENDROOT
BRANCH   1   7
HETATM    7  C   UNL     1      40.346 -14.296   3.906  1.00  0.00     0.043 A 
HETATM    8  C   UNL     1      40.516 -13.819   5.216  1.00  0.00    -0.035 A 
HETATM    9  C   UNL     1      39.689 -12.731   5.841  1.00  0.00     0.050 C 
HETATM   10  C   UNL     1      41.498 -14.417   6.029  1.00  0.00     0.010 A 
HETATM   11  C   UNL     1      42.255 -15.502   5.579  1.00  0.00     0.016 A 
HETATM   12  C   UNL     1      42.048 -16.025   4.302  1.00  0.00     0.019 A 
HETATM   13  C   UNL     1      41.085 -15.417   3.483  1.00  0.00     0.046 A 
BRANCH  12  14
HETATM   14  C   UNL     1      42.801 -17.167   3.792  1.00  0.00     0.179 A 
HETATM   15  O   UNL     1      42.384 -17.712   2.605  1.00  0.00    -0.302 OA
HETATM   16  C   UNL     1      43.256 -18.734   2.383  1.00  0.00     0.163 A 
HETATM   17  C   UNL     1      44.147 -18.766   3.425  1.00  0.00     0.144 A 
HETATM   18  N   UNL     1      43.854 -17.766   4.319  1.00  0.00    -0.234 NA
ENDBRANCH  12  14
ENDBRANCH   1   7
BRANCH   3  19
HETATM   19  C   UNL     1      38.564 -11.410   0.302  1.00  0.00     0.164 C 
BRANCH  19  20
HETATM   20  C   UNL     1      37.566 -11.673  -0.873  1.00  0.00     0.261 C 
BRANCH  20  21
HETATM   21  N   UNL     1      37.349 -10.429  -1.735  1.00  0.00    -0.067 N 
HETATM   22  H   UNL     1      37.512 -10.757  -2.710  1.00  0.00     0.280 HD
HETATM   23  C   UNL     1      35.954  -9.883  -1.753  1.00  0.00     0.270 C 
HETATM   24  C   UNL     1      38.364  -9.360  -1.492  1.00  0.00     0.270 C 
ENDBRANCH  20  21
BRANCH  20  25
HETATM   25  C   UNL     1      37.988 -12.871  -1.667  1.00  0.00     0.085 A 
HETATM   26  O   UNL     1      39.111 -13.522  -1.243  1.00  0.00    -0.325 OA
HETATM   27  C   UNL     1      39.309 -14.568  -2.084  1.00  0.00     0.142 A 
HETATM   28  C   UNL     1      38.333 -14.596  -3.051  1.00  0.00     0.027 A 
HETATM   29  C   UNL     1      37.477 -13.499  -2.785  1.00  0.00     0.037 A 
ENDBRANCH  20  25
ENDBRANCH  19  20
ENDBRANCH   3  19
TORSDOF 6
ENDMDL
MODEL 10
REMARK VINA RESULT:      -6.8      6.202      9.018
REMARK  6 active torsions:
REMARK  status: ('A' for Active; 'I' for Inactive)
REMARK    1  A    between atoms: C_3  and  N_4 
REMARK       I    between atoms: N_4  and  C_5 
REMARK       I    between atoms: C_5  and  N_6 
REMARK    2  A    between atoms: N_6  and  C_7 
REMARK    3  A    between atoms: C_7  and  C_8 
REMARK    4  A    between atoms: C_8  and  N_9 
REMARK    5  A    between atoms: C_8  and  C_13 
REMARK    6  A    between atoms: C_20  and  C_21 
ROOT
HETATM    1  N   UNL     1      43.038 -11.914   7.196  1.00  0.00    -0.309 N 
HETATM    2  C   UNL     1      41.995 -11.615   6.360  1.00  0.00     0.320 C 
HETATM    3  N   UNL     1      41.271 -12.732   6.019  1.00  0.00    -0.340 N 
HETATM    4  O   UNL     1      41.678 -10.514   5.923  1.00  0.00    -0.247 OA
HETATM    5  H   UNL     1      43.430 -12.836   7.051  1.00  0.00     0.170 HD
HETATM    6  H   UNL     1      41.614 -13.620   6.362  1.00  0.00     0.164 HD
ENDROOT
BRANCH   1   7
HETATM    7  C   UNL     1      43.942 -10.985   7.764  1.00  0.00     0.043 A 
HETATM    8  C   UNL     1      45.250 -10.737   7.315  1.00  0.00    -0.035 A 
HETATM    9  C   UNL     1      45.863 -11.359   6.092  1.00  0.00     0.050 C 
HETATM   10  C   UNL     1      46.042  -9.813   8.023  1.00  0.00     0.010 A 
HETATM   11  C   UNL     1      45.536  -9.105   9.116  1.00  0.00     0.016 A 
HETATM   12  C   UNL     1      44.217  -9.296   9.530  1.00  0.00     0.019 A 
HETATM   13  C   UNL     1      43.433 -10.231   8.839  1.00  0.00     0.046 A 
BRANCH  12  14
HETATM   14  C   UNL     1      43.636  -8.569  10.655  1.00  0.00     0.179 A 
HETATM   15  O   UNL     1      42.960  -7.411  10.370  1.00  0.00    -0.302 OA
HETATM   16  C   UNL     1      42.538  -6.964  11.585  1.00  0.00     0.163 A 
HETATM   17  C   UNL     1      42.969  -7.852  12.537  1.00  0.00     0.144 A 
HETATM   18  N   UNL     1      43.668  -8.872  11.941  1.00  0.00    -0.234 NA
ENDBRANCH  12  14
ENDBRANCH   1   7
BRANCH   3  19
HETATM   19  C   UNL     1      40.318 -12.771   4.908  1.00  0.00     0.164 C 
BRANCH  19  20
HETATM   20  C   UNL     1      40.914 -13.037   3.487  1.00  0.00     0.261 C 
BRANCH  20  21
HETATM   21  N   UNL     1      42.058 -12.081   3.152  1.00  0.00    -0.067 N 
HETATM   22  H   UNL     1      42.084 -11.415   3.952  1.00  0.00     0.280 HD
HETATM   23  C   UNL     1      43.429 -12.686   3.127  1.00  0.00     0.270 C 
HETATM   24  C   UNL     1      41.795 -11.250   1.939  1.00  0.00     0.270 C 
ENDBRANCH  20  21
BRANCH  20  25
HETATM   25  C   UNL     1      41.289 -14.479   3.332  1.00  0.00     0.085 A 
HETATM   26  O   UNL     1      41.629 -15.148   4.474  1.00  0.00    -0.325 OA
HETATM   27  C   UNL     1      41.922 -16.425   4.117  1.00  0.00     0.142 A 
HETATM   28  C   UNL     1      41.785 -16.586   2.759  1.00  0.00     0.027 A 
HETATM   29  C   UNL     1      41.377 -15.329   2.248  1.00  0.00     0.037 A 
ENDBRANCH  20  25
ENDBRANCH  19  20
ENDBRANCH   3  19
TORSDOF 6
ENDMDL
