MODEL 1
REMARK VINA RESULT:      -7.9      0.000      0.000
REMARK  3 active torsions:
REMARK  status: ('A' for Active; 'I' for Inactive)
REMARK    1  A    between atoms: C_3  and  N_4 
REMARK       I    between atoms: N_4  and  C_5 
REMARK       I    between atoms: C_5  and  N_6 
REMARK    2  A    between atoms: N_6  and  C_7 
REMARK    3  A    between atoms: C_15  and  C_16 
ROOT
HETATM    1  N   UNL     1      41.667 -15.806   3.108  1.00  0.00    -0.309 N 
HETATM    2  C   UNL     1      40.741 -15.149   3.865  1.00  0.00     0.326 C 
HETATM    3  N   UNL     1      39.919 -14.278   3.204  1.00  0.00    -0.292 N 
HETATM    4  O   UNL     1      40.576 -15.267   5.078  1.00  0.00    -0.247 OA
HETATM    5  H   UNL     1      41.633 -15.565   2.120  1.00  0.00     0.170 HD
HETATM    6  H   UNL     1      39.261 -13.829   3.825  1.00  0.00     0.172 HD
ENDROOT
BRANCH   1   7
HETATM    7  C   UNL     1      42.631 -16.746   3.510  1.00  0.00     0.037 A 
HETATM    8  C   UNL     1      43.558 -16.527   4.529  1.00  0.00     0.029 A 
HETATM    9  C   UNL     1      44.487 -17.515   4.867  1.00  0.00     0.003 A 
HETATM   10  C   UNL     1      44.496 -18.733   4.189  1.00  0.00     0.016 A 
HETATM   11  C   UNL     1      43.570 -18.977   3.167  1.00  0.00     0.050 A 
HETATM   12  C   UNL     1      42.646 -17.972   2.832  1.00  0.00     0.045 A 
BRANCH  11  13
HETATM   13  C   UNL     1      43.590 -20.287   2.422  1.00  0.00     0.417 C 
HETATM   14  F   UNL     1      44.548 -20.347   1.454  1.00  0.00    -0.166 F 
HETATM   15  F   UNL     1      43.824 -21.348   3.244  1.00  0.00    -0.166 F 
HETATM   16  F   UNL     1      42.412 -20.555   1.793  1.00  0.00    -0.166 F 
ENDBRANCH  11  13
ENDBRANCH   1   7
BRANCH   3  17
HETATM   17  C   UNL     1      39.883 -13.949   1.845  1.00  0.00     0.148 A 
HETATM   18  N   UNL     1      40.000 -14.916   0.903  1.00  0.00    -0.240 NA
HETATM   19  C   UNL     1      39.953 -14.496  -0.386  1.00  0.00     0.138 A 
HETATM   20  C   UNL     1      39.795 -13.165  -0.733  1.00  0.00     0.135 A 
HETATM   21  N   UNL     1      39.677 -12.191   0.193  1.00  0.00    -0.268 NA
HETATM   22  C   UNL     1      39.725 -12.612   1.482  1.00  0.00     0.166 A 
ENDBRANCH   3  17
TORSDOF 3
ENDMDL
MODEL 2
REMARK VINA RESULT:      -7.9      1.574      2.159
REMARK  3 active torsions:
REMARK  status: ('A' for Active; 'I' for Inactive)
REMARK    1  A    between atoms: C_3  and  N_4 
REMARK       I    between atoms: N_4  and  C_5 
REMARK       I    between atoms: C_5  and  N_6 
REMARK    2  A    between atoms: N_6  and  C_7 
REMARK    3  A    between atoms: C_15  and  C_16 
ROOT
HETATM    1  N   UNL     1      41.373 -15.437   1.360  1.00  0.00    -0.309 N 
HETATM    2  C   UNL     1      40.026 -15.238   1.469  1.00  0.00     0.326 C 
HETATM    3  N   UNL     1      39.449 -14.443   0.517  1.00  0.00    -0.292 N 
HETATM    4  O   UNL     1      39.289 -15.703   2.336  1.00  0.00    -0.247 OA
HETATM    5  H   UNL     1      41.794 -14.962   0.565  1.00  0.00     0.170 HD
HETATM    6  H   UNL     1      38.455 -14.340   0.659  1.00  0.00     0.172 HD
ENDROOT
BRANCH   1   7
HETATM    7  C   UNL     1      42.223 -16.194   2.183  1.00  0.00     0.037 A 
HETATM    8  C   UNL     1      42.946 -15.668   3.254  1.00  0.00     0.029 A 
HETATM    9  C   UNL     1      43.772 -16.492   4.024  1.00  0.00     0.003 A 
HETATM   10  C   UNL     1      43.881 -17.850   3.731  1.00  0.00     0.016 A 
HETATM   11  C   UNL     1      43.159 -18.401   2.665  1.00  0.00     0.050 A 
HETATM   12  C   UNL     1      42.337 -17.560   1.894  1.00  0.00     0.045 A 
BRANCH  11  13
HETATM   13  C   UNL     1      43.289 -19.866   2.337  1.00  0.00     0.417 C 
HETATM   14  F   UNL     1      44.315 -20.143   1.482  1.00  0.00    -0.166 F 
HETATM   15  F   UNL     1      43.512 -20.628   3.444  1.00  0.00    -0.166 F 
HETATM   16  F   UNL     1      42.171 -20.378   1.750  1.00  0.00    -0.166 F 
ENDBRANCH  11  13
ENDBRANCH   1   7
BRANCH   3  17
HETATM   17  C   UNL     1      40.037 -13.789  -0.571  1.00  0.00     0.148 A 
HETATM   18  N   UNL     1      40.741 -12.646  -0.383  1.00  0.00    -0.240 NA
HETATM   19  C   UNL     1      41.271 -12.087  -1.499  1.00  0.00     0.138 A 
HETATM   20  C   UNL     1      41.113 -12.639  -2.759  1.00  0.00     0.135 A 
HETATM   21  N   UNL     1      40.416 -13.777  -2.962  1.00  0.00    -0.268 NA
HETATM   22  C   UNL     1      39.886 -14.334  -1.845  1.00  0.00     0.166 A 
ENDBRANCH   3  17
TORSDOF 3
ENDMDL
MODEL 3
REMARK VINA RESULT:      -7.7      3.001      4.365
REMARK  3 active torsions:
REMARK  status: ('A' for Active; 'I' for Inactive)
REMARK    1  A    between atoms: C_3  and  N_4 
REMARK       I    between atoms: N_4  and  C_5 
REMARK       I    between atoms: C_5  and  N_6 
REMARK    2  A    between atoms: N_6  and  C_7 
REMARK    3  A    between atoms: C_15  and  C_16 
ROOT
HETATM    1  N   UNL     1      42.973 -15.680   4.136  1.00  0.00    -0.309 N 
HETATM    2  C   UNL     1      41.792 -14.997   4.186  1.00  0.00     0.326 C 
HETATM    3  N   UNL     1      41.843 -13.731   4.701  1.00  0.00    -0.292 N 
HETATM    4  O   UNL     1      40.695 -15.410   3.814  1.00  0.00    -0.247 OA
HETATM    5  H   UNL     1      43.767 -15.153   4.493  1.00  0.00     0.170 HD
HETATM    6  H   UNL     1      40.936 -13.286   4.707  1.00  0.00     0.172 HD
ENDROOT
BRANCH   1   7
HETATM    7  C   UNL     1      43.221 -16.981   3.666  1.00  0.00     0.037 A 
HETATM    8  C   UNL     1      43.226 -17.337   2.317  1.00  0.00     0.029 A 
HETATM    9  C   UNL     1      43.480 -18.656   1.933  1.00  0.00     0.003 A 
HETATM   10  C   UNL     1      43.734 -19.632   2.895  1.00  0.00     0.016 A 
HETATM   11  C   UNL     1      43.741 -19.296   4.255  1.00  0.00     0.050 A 
HETATM   12  C   UNL     1      43.476 -17.967   4.628  1.00  0.00     0.045 A 
BRANCH  11  13
HETATM   13  C   UNL     1      43.999 -20.354   5.296  1.00  0.00     0.417 C 
HETATM   14  F   UNL     1      43.252 -21.482   5.123  1.00  0.00    -0.166 F 
HETATM   15  F   UNL     1      45.297 -20.767   5.307  1.00  0.00    -0.166 F 
HETATM   16  F   UNL     1      43.733 -19.926   6.562  1.00  0.00    -0.166 F 
ENDBRANCH  11  13
ENDBRANCH   1   7
BRANCH   3  17
HETATM   17  C   UNL     1      42.939 -13.015   5.195  1.00  0.00     0.148 A 
HETATM   18  N   UNL     1      43.448 -13.302   6.418  1.00  0.00    -0.240 NA
HETATM   19  C   UNL     1      44.509 -12.552   6.808  1.00  0.00     0.138 A 
HETATM   20  C   UNL     1      45.050 -11.554   6.017  1.00  0.00     0.135 A 
HETATM   21  N   UNL     1      44.554 -11.257   4.797  1.00  0.00    -0.268 NA
HETATM   22  C   UNL     1      43.493 -12.007   4.408  1.00  0.00     0.166 A 
ENDBRANCH   3  17
TORSDOF 3
ENDMDL
MODEL 4
REMARK VINA RESULT:      -7.5      4.319      5.594
REMARK  3 active torsions:
REMARK  status: ('A' for Active; 'I' for Inactive)
REMARK    1  A    between atoms: C_3  and  N_4 
REMARK       I    between atoms: N_4  and  C_5 
REMARK       I    between atoms: C_5  and  N_6 
REMARK    2  A    between atoms: N_6  and  C_7 
REMARK    3  A    between atoms: C_15  and  C_16 
ROOT
HETATM    1  N   UNL     1      43.494 -14.391   6.124  1.00  0.00    -0.309 N 
HETATM    2  C   UNL     1      42.399 -13.633   6.424  1.00  0.00     0.326 C 
HETATM    3  N   UNL     1      42.642 -12.378   6.909  1.00  0.00    -0.292 N 
HETATM    4  O   UNL     1      41.223 -13.971   6.299  1.00  0.00    -0.247 OA
HETATM    5  H   UNL     1      44.379 -13.920   6.299  1.00  0.00     0.170 HD
HETATM    6  H   UNL     1      41.789 -11.875   7.108  1.00  0.00     0.172 HD
ENDROOT
BRANCH   1   7
HETATM    7  C   UNL     1      43.550 -15.701   5.618  1.00  0.00     0.037 A 
HETATM    8  C   UNL     1      43.944 -16.811   6.365  1.00  0.00     0.029 A 
HETATM    9  C   UNL     1      43.973 -18.082   5.785  1.00  0.00     0.003 A 
HETATM   10  C   UNL     1      43.606 -18.255   4.451  1.00  0.00     0.016 A 
HETATM   11  C   UNL     1      43.200 -17.155   3.684  1.00  0.00     0.050 A 
HETATM   12  C   UNL     1      43.182 -15.882   4.279  1.00  0.00     0.045 A 
BRANCH  11  13
HETATM   13  C   UNL     1      42.819 -17.338   2.238  1.00  0.00     0.417 C 
HETATM   14  F   UNL     1      43.481 -16.499   1.391  1.00  0.00    -0.166 F 
HETATM   15  F   UNL     1      43.076 -18.598   1.788  1.00  0.00    -0.166 F 
HETATM   16  F   UNL     1      41.493 -17.123   2.009  1.00  0.00    -0.166 F 
ENDBRANCH  11  13
ENDBRANCH   1   7
BRANCH   3  17
HETATM   17  C   UNL     1      43.863 -11.739   7.152  1.00  0.00     0.148 A 
HETATM   18  N   UNL     1      44.863 -11.804   6.240  1.00  0.00    -0.240 NA
HETATM   19  C   UNL     1      46.007 -11.153   6.567  1.00  0.00     0.138 A 
HETATM   20  C   UNL     1      46.158 -10.461   7.757  1.00  0.00     0.135 A 
HETATM   21  N   UNL     1      45.171 -10.387   8.675  1.00  0.00    -0.268 NA
HETATM   22  C   UNL     1      44.028 -11.039   8.346  1.00  0.00     0.166 A 
ENDBRANCH   3  17
TORSDOF 3
ENDMDL
MODEL 5
REMARK VINA RESULT:      -7.4      3.869      5.236
REMARK  3 active torsions:
REMARK  status: ('A' for Active; 'I' for Inactive)
REMARK    1  A    between atoms: C_3  and  N_4 
REMARK       I    between atoms: N_4  and  C_5 
REMARK       I    between atoms: C_5  and  N_6 
REMARK    2  A    between atoms: N_6  and  C_7 
REMARK    3  A    between atoms: C_15  and  C_16 
ROOT
HETATM    1  N   UNL     1      42.775 -14.143   5.040  1.00  0.00    -0.309 N 
HETATM    2  C   UNL     1      41.807 -13.517   5.772  1.00  0.00     0.326 C 
HETATM    3  N   UNL     1      42.218 -12.479   6.562  1.00  0.00    -0.292 N 
HETATM    4  O   UNL     1      40.610 -13.796   5.786  1.00  0.00    -0.247 OA
HETATM    5  H   UNL     1      43.705 -13.753   5.172  1.00  0.00     0.170 HD
HETATM    6  H   UNL     1      41.452 -12.063   7.073  1.00  0.00     0.172 HD
ENDROOT
BRANCH   1   7
HETATM    7  C   UNL     1      42.649 -15.227   4.155  1.00  0.00     0.037 A 
HETATM    8  C   UNL     1      41.830 -15.223   3.026  1.00  0.00     0.029 A 
HETATM    9  C   UNL     1      41.760 -16.345   2.196  1.00  0.00     0.003 A 
HETATM   10  C   UNL     1      42.513 -17.482   2.486  1.00  0.00     0.016 A 
HETATM   11  C   UNL     1      43.348 -17.506   3.610  1.00  0.00     0.050 A 
HETATM   12  C   UNL     1      43.402 -16.373   4.441  1.00  0.00     0.045 A 
BRANCH  11  13
HETATM   13  C   UNL     1      44.149 -18.740   3.934  1.00  0.00     0.417 C 
HETATM   14  F   UNL     1      45.432 -18.473   4.309  1.00  0.00    -0.166 F 
HETATM   15  F   UNL     1      43.606 -19.458   4.957  1.00  0.00    -0.166 F 
HETATM   16  F   UNL     1      44.243 -19.601   2.882  1.00  0.00    -0.166 F 
ENDBRANCH  11  13
ENDBRANCH   1   7
BRANCH   3  17
HETATM   17  C   UNL     1      43.501 -11.951   6.742  1.00  0.00     0.148 A 
HETATM   18  N   UNL     1      44.321 -11.770   5.679  1.00  0.00    -0.240 NA
HETATM   19  C   UNL     1      45.545 -11.254   5.956  1.00  0.00     0.138 A 
HETATM   20  C   UNL     1      45.945 -10.927   7.240  1.00  0.00     0.135 A 
HETATM   21  N   UNL     1      45.139 -11.102   8.309  1.00  0.00    -0.268 NA
HETATM   22  C   UNL     1      43.916 -11.618   8.030  1.00  0.00     0.166 A 
ENDBRANCH   3  17
TORSDOF 3
ENDMDL
MODEL 6
REMARK VINA RESULT:      -7.1      2.829      3.509
REMARK  3 active torsions:
REMARK  status: ('A' for Active; 'I' for Inactive)
REMARK    1  A    between atoms: C_3  and  N_4 
REMARK       I    between atoms: N_4  and  C_5 
REMARK       I    between atoms: C_5  and  N_6 
REMARK    2  A    between atoms: N_6  and  C_7 
REMARK    3  A    between atoms: C_15  and  C_16 
ROOT
HETATM    1  N   UNL     1      41.494 -15.613   2.057  1.00  0.00    -0.309 N 
HETATM    2  C   UNL     1      40.140 -15.517   2.208  1.00  0.00     0.326 C 
HETATM    3  N   UNL     1      39.493 -14.656   1.365  1.00  0.00    -0.292 N 
HETATM    4  O   UNL     1      39.453 -16.130   3.023  1.00  0.00    -0.247 OA
HETATM    5  H   UNL     1      41.866 -15.020   1.319  1.00  0.00     0.170 HD
HETATM    6  H   UNL     1      38.497 -14.636   1.533  1.00  0.00     0.172 HD
ENDROOT
BRANCH   1   7
HETATM    7  C   UNL     1      42.408 -16.404   2.773  1.00  0.00     0.037 A 
HETATM    8  C   UNL     1      42.936 -17.607   2.302  1.00  0.00     0.029 A 
HETATM    9  C   UNL     1      43.840 -18.336   3.079  1.00  0.00     0.003 A 
HETATM   10  C   UNL     1      44.227 -17.867   4.334  1.00  0.00     0.016 A 
HETATM   11  C   UNL     1      43.715 -16.659   4.823  1.00  0.00     0.050 A 
HETATM   12  C   UNL     1      42.800 -15.940   4.035  1.00  0.00     0.045 A 
BRANCH  11  13
HETATM   13  C   UNL     1      44.120 -16.160   6.186  1.00  0.00     0.417 C 
HETATM   14  F   UNL     1      43.490 -16.804   7.210  1.00  0.00    -0.166 F 
HETATM   15  F   UNL     1      45.453 -16.308   6.419  1.00  0.00    -0.166 F 
HETATM   16  F   UNL     1      43.854 -14.835   6.365  1.00  0.00    -0.166 F 
ENDBRANCH  11  13
ENDBRANCH   1   7
BRANCH   3  17
HETATM   17  C   UNL     1      40.014 -13.839   0.356  1.00  0.00     0.148 A 
HETATM   18  N   UNL     1      40.717 -12.724   0.672  1.00  0.00    -0.240 NA
HETATM   19  C   UNL     1      41.180 -11.999  -0.377  1.00  0.00     0.138 A 
HETATM   20  C   UNL     1      40.958 -12.364  -1.693  1.00  0.00     0.135 A 
HETATM   21  N   UNL     1      40.261 -13.472  -2.024  1.00  0.00    -0.268 NA
HETATM   22  C   UNL     1      39.798 -14.195  -0.975  1.00  0.00     0.166 A 
ENDBRANCH   3  17
TORSDOF 3
ENDMDL
MODEL 7
REMARK VINA RESULT:      -7.0      4.558      6.102
REMARK  3 active torsions:
REMARK  status: ('A' for Active; 'I' for Inactive)
REMARK    1  A    between atoms: C_3  and  N_4 
REMARK       I    between atoms: N_4  and  C_5 
REMARK       I    between atoms: C_5  and  N_6 
REMARK    2  A    between atoms: N_6  and  C_7 
REMARK    3  A    between atoms: C_15  and  C_16 
ROOT
HETATM    1  N   UNL     1      42.724 -13.887   5.200  1.00  0.00    -0.309 N 
HETATM    2  C   UNL     1      41.841 -13.270   6.038  1.00  0.00     0.326 C 
HETATM    3  N   UNL     1      42.349 -12.286   6.840  1.00  0.00    -0.292 N 
HETATM    4  O   UNL     1      40.640 -13.515   6.139  1.00  0.00    -0.247 OA
HETATM    5  H   UNL     1      43.675 -13.531   5.272  1.00  0.00     0.170 HD
HETATM    6  H   UNL     1      41.642 -11.874   7.432  1.00  0.00     0.172 HD
ENDROOT
BRANCH   1   7
HETATM    7  C   UNL     1      42.491 -14.921   4.277  1.00  0.00     0.037 A 
HETATM    8  C   UNL     1      43.114 -16.168   4.326  1.00  0.00     0.029 A 
HETATM    9  C   UNL     1      42.826 -17.142   3.366  1.00  0.00     0.003 A 
HETATM   10  C   UNL     1      41.911 -16.878   2.348  1.00  0.00     0.016 A 
HETATM   11  C   UNL     1      41.269 -15.635   2.283  1.00  0.00     0.050 A 
HETATM   12  C   UNL     1      41.573 -14.662   3.251  1.00  0.00     0.045 A 
BRANCH  11  13
HETATM   13  C   UNL     1      40.292 -15.343   1.174  1.00  0.00     0.417 C 
HETATM   14  F   UNL     1      39.440 -14.316   1.456  1.00  0.00    -0.166 F 
HETATM   15  F   UNL     1      40.914 -14.999   0.011  1.00  0.00    -0.166 F 
HETATM   16  F   UNL     1      39.499 -16.409   0.872  1.00  0.00    -0.166 F 
ENDBRANCH  11  13
ENDBRANCH   1   7
BRANCH   3  17
HETATM   17  C   UNL     1      43.660 -11.806   6.938  1.00  0.00     0.148 A 
HETATM   18  N   UNL     1      44.438 -11.712   5.832  1.00  0.00    -0.240 NA
HETATM   19  C   UNL     1      45.693 -11.236   6.030  1.00  0.00     0.138 A 
HETATM   20  C   UNL     1      46.163 -10.864   7.278  1.00  0.00     0.135 A 
HETATM   21  N   UNL     1      45.399 -10.951   8.388  1.00  0.00    -0.268 NA
HETATM   22  C   UNL     1      44.145 -11.428   8.189  1.00  0.00     0.166 A 
ENDBRANCH   3  17
TORSDOF 3
ENDMDL
MODEL 8
REMARK VINA RESULT:      -6.8      6.628      8.125
REMARK  3 active torsions:
REMARK  status: ('A' for Active; 'I' for Inactive)
REMARK    1  A    between atoms: C_3  and  N_4 
REMARK       I    between atoms: N_4  and  C_5 
REMARK       I    between atoms: C_5  and  N_6 
REMARK    2  A    between atoms: N_6  and  C_7 
REMARK    3  A    between atoms: C_15  and  C_16 
ROOT
HETATM    1  N   UNL     1      43.838 -11.886   7.641  1.00  0.00    -0.309 N 
HETATM    2  C   UNL     1      45.031 -11.223   7.603  1.00  0.00     0.326 C 
HETATM    3  N   UNL     1      45.308 -10.406   8.664  1.00  0.00    -0.292 N 
HETATM    4  O   UNL     1      45.875 -11.294   6.712  1.00  0.00    -0.247 OA
HETATM    5  H   UNL     1      43.286 -11.688   8.472  1.00  0.00     0.170 HD
HETATM    6  H   UNL     1      46.204  -9.950   8.570  1.00  0.00     0.172 HD
ENDROOT
BRANCH   1   7
HETATM    7  C   UNL     1      43.294 -12.778   6.702  1.00  0.00     0.037 A 
HETATM    8  C   UNL     1      42.264 -12.452   5.819  1.00  0.00     0.029 A 
HETATM    9  C   UNL     1      41.778 -13.402   4.916  1.00  0.00     0.003 A 
HETATM   10  C   UNL     1      42.318 -14.687   4.887  1.00  0.00     0.016 A 
HETATM   11  C   UNL     1      43.357 -15.034   5.760  1.00  0.00     0.050 A 
HETATM   12  C   UNL     1      43.832 -14.071   6.668  1.00  0.00     0.045 A 
BRANCH  11  13
HETATM   13  C   UNL     1      43.931 -16.427   5.740  1.00  0.00     0.417 C 
HETATM   14  F   UNL     1      43.152 -17.344   6.383  1.00  0.00    -0.166 F 
HETATM   15  F   UNL     1      44.097 -16.903   4.475  1.00  0.00    -0.166 F 
HETATM   16  F   UNL     1      45.156 -16.503   6.332  1.00  0.00    -0.166 F 
ENDBRANCH  11  13
ENDBRANCH   1   7
BRANCH   3  17
HETATM   17  C   UNL     1      44.541 -10.136   9.803  1.00  0.00     0.148 A 
HETATM   18  N   UNL     1      44.247 -11.126  10.680  1.00  0.00    -0.240 NA
HETATM   19  C   UNL     1      43.497 -10.765  11.752  1.00  0.00     0.138 A 
HETATM   20  C   UNL     1      43.054  -9.469  11.950  1.00  0.00     0.135 A 
HETATM   21  N   UNL     1      43.338  -8.472  11.085  1.00  0.00    -0.268 NA
HETATM   22  C   UNL     1      44.087  -8.835  10.014  1.00  0.00     0.166 A 
ENDBRANCH   3  17
TORSDOF 3
ENDMDL
MODEL 9
REMARK VINA RESULT:      -6.8      2.039      3.054
REMARK  3 active torsions:
REMARK  status: ('A' for Active; 'I' for Inactive)
REMARK    1  A    between atoms: C_3  and  N_4 
REMARK       I    between atoms: N_4  and  C_5 
REMARK       I    between atoms: C_5  and  N_6 
REMARK    2  A    between atoms: N_6  and  C_7 
REMARK    3  A    between atoms: C_15  and  C_16 
ROOT
HETATM    1  N   UNL     1      40.777 -14.256   1.353  1.00  0.00    -0.309 N 
HETATM    2  C   UNL     1      41.122 -12.961   1.095  1.00  0.00     0.326 C 
HETATM    3  N   UNL     1      40.604 -12.408  -0.044  1.00  0.00    -0.292 N 
HETATM    4  O   UNL     1      41.848 -12.249   1.786  1.00  0.00    -0.247 OA
HETATM    5  H   UNL     1      40.161 -14.664   0.653  1.00  0.00     0.170 HD
HETATM    6  H   UNL     1      40.900 -11.451  -0.171  1.00  0.00     0.172 HD
ENDROOT
BRANCH   1   7
HETATM    7  C   UNL     1      41.155 -15.072   2.433  1.00  0.00     0.037 A 
HETATM    8  C   UNL     1      40.782 -14.838   3.757  1.00  0.00     0.029 A 
HETATM    9  C   UNL     1      41.203 -15.699   4.774  1.00  0.00     0.003 A 
HETATM   10  C   UNL     1      41.999 -16.803   4.477  1.00  0.00     0.016 A 
HETATM   11  C   UNL     1      42.380 -17.061   3.154  1.00  0.00     0.050 A 
HETATM   12  C   UNL     1      41.956 -16.183   2.141  1.00  0.00     0.045 A 
BRANCH  11  13
HETATM   13  C   UNL     1      43.255 -18.245   2.833  1.00  0.00     0.417 C 
HETATM   14  F   UNL     1      42.676 -19.133   1.976  1.00  0.00    -0.166 F 
HETATM   15  F   UNL     1      44.431 -17.880   2.250  1.00  0.00    -0.166 F 
HETATM   16  F   UNL     1      43.595 -18.966   3.938  1.00  0.00    -0.166 F 
ENDBRANCH  11  13
ENDBRANCH   1   7
BRANCH   3  17
HETATM   17  C   UNL     1      39.761 -12.978  -1.005  1.00  0.00     0.148 A 
HETATM   18  N   UNL     1      40.188 -14.021  -1.757  1.00  0.00    -0.240 NA
HETATM   19  C   UNL     1      39.299 -14.503  -2.661  1.00  0.00     0.138 A 
HETATM   20  C   UNL     1      38.030 -13.972  -2.816  1.00  0.00     0.135 A 
HETATM   21  N   UNL     1      37.590 -12.933  -2.074  1.00  0.00    -0.268 NA
HETATM   22  C   UNL     1      38.481 -12.452  -1.171  1.00  0.00     0.166 A 
ENDBRANCH   3  17
TORSDOF 3
ENDMDL
MODEL 10
REMARK VINA RESULT:      -6.6      3.628      4.494
REMARK  3 active torsions:
REMARK  status: ('A' for Active; 'I' for Inactive)
REMARK    1  A    between atoms: C_3  and  N_4 
REMARK       I    between atoms: N_4  and  C_5 
REMARK       I    between atoms: C_5  and  N_6 
REMARK    2  A    between atoms: N_6  and  C_7 
REMARK    3  A    between atoms: C_15  and  C_16 
ROOT
HETATM    1  N   UNL     1      42.531 -13.515   5.828  1.00  0.00    -0.309 N 
HETATM    2  C   UNL     1      43.102 -12.487   6.521  1.00  0.00     0.326 C 
HETATM    3  N   UNL     1      42.351 -11.352   6.655  1.00  0.00    -0.292 N 
HETATM    4  O   UNL     1      44.220 -12.487   7.034  1.00  0.00    -0.247 OA
HETATM    5  H   UNL     1      41.595 -13.310   5.488  1.00  0.00     0.170 HD
HETATM    6  H   UNL     1      42.835 -10.635   7.178  1.00  0.00     0.172 HD
ENDROOT
BRANCH   1   7
HETATM    7  C   UNL     1      43.060 -14.783   5.534  1.00  0.00     0.037 A 
HETATM    8  C   UNL     1      43.804 -15.547   6.434  1.00  0.00     0.029 A 
HETATM    9  C   UNL     1      44.297 -16.801   6.062  1.00  0.00     0.003 A 
HETATM   10  C   UNL     1      44.048 -17.304   4.786  1.00  0.00     0.016 A 
HETATM   11  C   UNL     1      43.298 -16.557   3.868  1.00  0.00     0.050 A 
HETATM   12  C   UNL     1      42.815 -15.294   4.253  1.00  0.00     0.045 A 
BRANCH  11  13
HETATM   13  C   UNL     1      43.043 -17.092   2.483  1.00  0.00     0.417 C 
HETATM   14  F   UNL     1      41.718 -17.243   2.194  1.00  0.00    -0.166 F 
HETATM   15  F   UNL     1      43.544 -16.279   1.511  1.00  0.00    -0.166 F 
HETATM   16  F   UNL     1      43.607 -18.314   2.276  1.00  0.00    -0.166 F 
ENDBRANCH  11  13
ENDBRANCH   1   7
BRANCH   3  17
HETATM   17  C   UNL     1      41.065 -11.075   6.180  1.00  0.00     0.148 A 
HETATM   18  N   UNL     1      40.729 -11.375   4.901  1.00  0.00    -0.240 NA
HETATM   19  C   UNL     1      39.459 -11.068   4.535  1.00  0.00     0.138 A 
HETATM   20  C   UNL     1      38.552 -10.485   5.403  1.00  0.00     0.135 A 
HETATM   21  N   UNL     1      38.872 -10.182   6.679  1.00  0.00    -0.268 NA
HETATM   22  C   UNL     1      40.142 -10.489   7.044  1.00  0.00     0.166 A 
ENDBRANCH   3  17
TORSDOF 3
ENDMDL
