MODEL 1
REMARK VINA RESULT:      -9.4      0.000      0.000
REMARK  7 active torsions:
REMARK  status: ('A' for Active; 'I' for Inactive)
REMARK    1  A    between atoms: O_2  and  C_3 
REMARK    2  A    between atoms: C_6  and  C_7 
REMARK       I    between atoms: C_7  and  N_8 
REMARK    3  A    between atoms: C_14  and  C_15 
REMARK       I    between atoms: C_15  and  N_16 
REMARK    4  A    between atoms: N_16  and  C_17 
REMARK    5  A    between atoms: C_17  and  C_18 
REMARK       I    between atoms: N_25  and  C_26 
REMARK    6  A    between atoms: C_26  and  C_27 
REMARK    7  A    between atoms: C_30  and  O_31 
ROOT
HETATM    1  C   UNL     1      44.686  -9.576   9.684  1.00  0.00     0.253 C 
HETATM    2  N   UNL     1      44.362 -10.089   8.417  1.00  0.00    -0.348 N 
HETATM    3  C   UNL     1      43.004 -10.473   8.044  1.00  0.00     0.131 C 
HETATM    4  C   UNL     1      42.783 -10.481   6.547  1.00  0.00     0.081 C 
HETATM    5  C   UNL     1      43.834 -11.270   5.763  1.00  0.00     0.142 C 
HETATM    6  O   UNL     1      43.657 -10.807   4.387  1.00  0.00    -0.358 OA
HETATM    7  C   UNL     1      43.662 -11.938   3.509  1.00  0.00     0.206 C 
HETATM    8  C   UNL     1      43.147 -13.080   4.346  1.00  0.00     0.206 C 
HETATM    9  N   UNL     1      43.620 -12.725   5.683  1.00  0.00    -0.300 N 
HETATM   10  C   UNL     1      43.813 -13.615   6.724  1.00  0.00     0.257 C 
HETATM   11  O   UNL     1      44.066 -13.282   7.876  1.00  0.00    -0.267 OA
HETATM   12  C   UNL     1      45.244 -10.832   6.175  1.00  0.00     0.081 C 
HETATM   13  C   UNL     1      45.468 -10.695   7.676  1.00  0.00     0.131 C 
HETATM   14  O   UNL     1      45.830  -9.274  10.020  1.00  0.00    -0.267 OA
ENDROOT
BRANCH   8  15
HETATM   15  C   UNL     1      41.613 -13.189   4.210  1.00  0.00     0.243 C 
HETATM   16  N   UNL     1      41.152 -13.352   2.926  1.00  0.00    -0.355 N 
HETATM   17  H   UNL     1      41.820 -13.556   2.195  1.00  0.00     0.162 HD
HETATM   18  O   UNL     1      40.860 -13.051   5.171  1.00  0.00    -0.271 OA
BRANCH  16  19
HETATM   19  C   UNL     1      39.750 -13.479   2.613  1.00  0.00     0.161 C 
BRANCH  19  20
HETATM   20  C   UNL     1      39.564 -13.450   1.119  1.00  0.00    -0.041 A 
HETATM   21  C   UNL     1      39.942 -14.548   0.334  1.00  0.00     0.009 A 
HETATM   22  C   UNL     1      39.839 -14.492  -1.057  1.00  0.00     0.001 A 
HETATM   23  C   UNL     1      39.368 -13.335  -1.676  1.00  0.00     0.000 A 
HETATM   24  C   UNL     1      38.995 -12.235  -0.906  1.00  0.00     0.001 A 
HETATM   25  C   UNL     1      39.090 -12.292   0.485  1.00  0.00     0.009 A 
ENDBRANCH  19  20
ENDBRANCH  16  19
ENDBRANCH   8  15
BRANCH  10  26
HETATM   26  C   UNL     1      43.635 -15.067   6.502  1.00  0.00     0.032 A 
HETATM   27  C   UNL     1      44.665 -15.869   6.013  1.00  0.00     0.020 A 
HETATM   28  C   UNL     1      44.450 -17.240   5.850  1.00  0.00     0.038 A 
HETATM   29  C   UNL     1      43.228 -17.822   6.210  1.00  0.00     0.068 A 
HETATM   30  C   UNL     1      42.217 -17.020   6.739  1.00  0.00     0.038 A 
HETATM   31  C   UNL     1      42.423 -15.646   6.894  1.00  0.00     0.020 A 
BRANCH  29  32
HETATM   32  O   UNL     1      43.156 -19.172   6.004  1.00  0.00    -0.356 OA
HETATM   33  C   UNL     1      44.047 -19.725   5.043  1.00  0.00     0.210 C 
ENDBRANCH  29  32
ENDBRANCH  10  26
BRANCH   1  34
HETATM   34  C   UNL     1      43.614  -9.364  10.685  1.00  0.00     0.032 A 
HETATM   35  C   UNL     1      43.315 -10.342  11.639  1.00  0.00     0.020 A 
HETATM   36  C   UNL     1      42.317 -10.102  12.585  1.00  0.00     0.038 A 
HETATM   37  C   UNL     1      41.649  -8.874  12.618  1.00  0.00     0.068 A 
HETATM   38  C   UNL     1      41.969  -7.890  11.680  1.00  0.00     0.038 A 
HETATM   39  C   UNL     1      42.955  -8.132  10.717  1.00  0.00     0.020 A 
BRANCH  37  40
HETATM   40  O   UNL     1      40.704  -8.762  13.602  1.00  0.00    -0.356 OA
HETATM   41  C   UNL     1      41.193  -8.511  14.915  1.00  0.00     0.210 C 
ENDBRANCH  37  40
ENDBRANCH   1  34
TORSDOF 7
ENDMDL
MODEL 2
REMARK VINA RESULT:      -8.9      5.022      9.281
REMARK  7 active torsions:
REMARK  status: ('A' for Active; 'I' for Inactive)
REMARK    1  A    between atoms: O_2  and  C_3 
REMARK    2  A    between atoms: C_6  and  C_7 
REMARK       I    between atoms: C_7  and  N_8 
REMARK    3  A    between atoms: C_14  and  C_15 
REMARK       I    between atoms: C_15  and  N_16 
REMARK    4  A    between atoms: N_16  and  C_17 
REMARK    5  A    between atoms: C_17  and  C_18 
REMARK       I    between atoms: N_25  and  C_26 
REMARK    6  A    between atoms: C_26  and  C_27 
REMARK    7  A    between atoms: C_30  and  O_31 
ROOT
HETATM    1  C   UNL     1      42.762 -12.853   3.835  1.00  0.00     0.253 C 
HETATM    2  N   UNL     1      41.813 -11.924   3.378  1.00  0.00    -0.348 N 
HETATM    3  C   UNL     1      40.744 -12.279   2.449  1.00  0.00     0.131 C 
HETATM    4  C   UNL     1      39.569 -11.327   2.509  1.00  0.00     0.081 C 
HETATM    5  C   UNL     1      39.954  -9.849   2.398  1.00  0.00     0.142 C 
HETATM    6  O   UNL     1      38.765  -9.147   2.878  1.00  0.00    -0.358 OA
HETATM    7  C   UNL     1      38.472  -8.063   1.990  1.00  0.00     0.206 C 
HETATM    8  C   UNL     1      39.008  -8.504   0.653  1.00  0.00     0.206 C 
HETATM    9  N   UNL     1      40.149  -9.335   1.032  1.00  0.00    -0.300 N 
HETATM   10  C   UNL     1      41.234  -9.618   0.224  1.00  0.00     0.257 C 
HETATM   11  O   UNL     1      42.106 -10.434   0.503  1.00  0.00    -0.267 OA
HETATM   12  C   UNL     1      41.070  -9.515   3.395  1.00  0.00     0.081 C 
HETATM   13  C   UNL     1      42.214 -10.520   3.449  1.00  0.00     0.131 C 
HETATM   14  O   UNL     1      43.684 -12.562   4.596  1.00  0.00    -0.267 OA
ENDROOT
BRANCH   8  15
HETATM   15  C   UNL     1      37.909  -9.238  -0.145  1.00  0.00     0.243 C 
HETATM   16  N   UNL     1      38.138 -10.576  -0.356  1.00  0.00    -0.355 N 
HETATM   17  H   UNL     1      38.892 -11.022   0.148  1.00  0.00     0.162 HD
HETATM   18  O   UNL     1      36.947  -8.648  -0.631  1.00  0.00    -0.271 OA
BRANCH  16  19
HETATM   19  C   UNL     1      37.216 -11.420  -1.075  1.00  0.00     0.161 C 
BRANCH  19  20
HETATM   20  C   UNL     1      37.952 -12.610  -1.633  1.00  0.00    -0.041 A 
HETATM   21  C   UNL     1      37.441 -13.308  -2.735  1.00  0.00     0.009 A 
HETATM   22  C   UNL     1      38.084 -14.455  -3.205  1.00  0.00     0.001 A 
HETATM   23  C   UNL     1      39.235 -14.919  -2.571  1.00  0.00     0.000 A 
HETATM   24  C   UNL     1      39.749 -14.235  -1.471  1.00  0.00     0.001 A 
HETATM   25  C   UNL     1      39.112 -13.085  -1.004  1.00  0.00     0.009 A 
ENDBRANCH  19  20
ENDBRANCH  16  19
ENDBRANCH   8  15
BRANCH  10  26
HETATM   26  C   UNL     1      41.355  -8.983  -1.107  1.00  0.00     0.032 A 
HETATM   27  C   UNL     1      42.005  -7.761  -1.283  1.00  0.00     0.020 A 
HETATM   28  C   UNL     1      42.115  -7.221  -2.568  1.00  0.00     0.038 A 
HETATM   29  C   UNL     1      41.616  -7.910  -3.680  1.00  0.00     0.068 A 
HETATM   30  C   UNL     1      41.007  -9.152  -3.501  1.00  0.00     0.038 A 
HETATM   31  C   UNL     1      40.884  -9.692  -2.217  1.00  0.00     0.020 A 
BRANCH  29  32
HETATM   32  O   UNL     1      41.796  -7.270  -4.876  1.00  0.00    -0.356 OA
HETATM   33  C   UNL     1      43.037  -6.602  -5.068  1.00  0.00     0.210 C 
ENDBRANCH  29  32
ENDBRANCH  10  26
BRANCH   1  34
HETATM   34  C   UNL     1      42.669 -14.269   3.405  1.00  0.00     0.032 A 
HETATM   35  C   UNL     1      43.293 -14.709   2.233  1.00  0.00     0.020 A 
HETATM   36  C   UNL     1      43.208 -16.054   1.869  1.00  0.00     0.038 A 
HETATM   37  C   UNL     1      42.547 -16.973   2.689  1.00  0.00     0.068 A 
HETATM   38  C   UNL     1      41.948 -16.534   3.872  1.00  0.00     0.038 A 
HETATM   39  C   UNL     1      42.013 -15.183   4.233  1.00  0.00     0.020 A 
BRANCH  37  40
HETATM   40  O   UNL     1      42.549 -18.260   2.225  1.00  0.00    -0.356 OA
HETATM   41  C   UNL     1      43.639 -19.076   2.640  1.00  0.00     0.210 C 
ENDBRANCH  37  40
ENDBRANCH   1  34
TORSDOF 7
ENDMDL
MODEL 3
REMARK VINA RESULT:      -8.8      3.773      9.295
REMARK  7 active torsions:
REMARK  status: ('A' for Active; 'I' for Inactive)
REMARK    1  A    between atoms: O_2  and  C_3 
REMARK    2  A    between atoms: C_6  and  C_7 
REMARK       I    between atoms: C_7  and  N_8 
REMARK    3  A    between atoms: C_14  and  C_15 
REMARK       I    between atoms: C_15  and  N_16 
REMARK    4  A    between atoms: N_16  and  C_17 
REMARK    5  A    between atoms: C_17  and  C_18 
REMARK       I    between atoms: N_25  and  C_26 
REMARK    6  A    between atoms: C_26  and  C_27 
REMARK    7  A    between atoms: C_30  and  O_31 
ROOT
HETATM    1  C   UNL     1      39.209  -8.939  -0.044  1.00  0.00     0.253 C 
HETATM    2  N   UNL     1      39.616  -9.569   1.144  1.00  0.00    -0.348 N 
HETATM    3  C   UNL     1      41.013  -9.629   1.566  1.00  0.00     0.131 C 
HETATM    4  C   UNL     1      41.170  -9.852   3.055  1.00  0.00     0.081 C 
HETATM    5  C   UNL     1      40.357 -11.028   3.602  1.00  0.00     0.142 C 
HETATM    6  O   UNL     1      40.343 -10.795   5.045  1.00  0.00    -0.358 OA
HETATM    7  C   UNL     1      40.625 -12.026   5.720  1.00  0.00     0.206 C 
HETATM    8  C   UNL     1      41.475 -12.810   4.754  1.00  0.00     0.206 C 
HETATM    9  N   UNL     1      40.972 -12.358   3.458  1.00  0.00    -0.300 N 
HETATM   10  C   UNL     1      41.079 -13.060   2.271  1.00  0.00     0.257 C 
HETATM   11  O   UNL     1      40.786 -12.602   1.172  1.00  0.00    -0.267 OA
HETATM   12  C   UNL     1      38.897 -10.922   3.146  1.00  0.00     0.081 C 
HETATM   13  C   UNL     1      38.701 -10.578   1.674  1.00  0.00     0.131 C 
HETATM   14  O   UNL     1      38.040  -8.904  -0.426  1.00  0.00    -0.267 OA
ENDROOT
BRANCH   8  15
HETATM   15  C   UNL     1      42.970 -12.521   5.004  1.00  0.00     0.243 C 
HETATM   16  N   UNL     1      43.381 -12.659   6.308  1.00  0.00    -0.355 N 
HETATM   17  H   UNL     1      42.749 -13.090   6.970  1.00  0.00     0.162 HD
HETATM   18  O   UNL     1      43.715 -12.112   4.117  1.00  0.00    -0.271 OA
BRANCH  16  19
HETATM   19  C   UNL     1      44.743 -12.435   6.724  1.00  0.00     0.161 C 
BRANCH  19  20
HETATM   20  C   UNL     1      44.846 -11.101   7.415  1.00  0.00    -0.041 A 
HETATM   21  C   UNL     1      43.690 -10.414   7.808  1.00  0.00     0.009 A 
HETATM   22  C   UNL     1      43.783  -9.144   8.380  1.00  0.00     0.001 A 
HETATM   23  C   UNL     1      45.030  -8.547   8.555  1.00  0.00     0.000 A 
HETATM   24  C   UNL     1      46.186  -9.219   8.163  1.00  0.00     0.001 A 
HETATM   25  C   UNL     1      46.096 -10.491   7.597  1.00  0.00     0.009 A 
ENDBRANCH  19  20
ENDBRANCH  16  19
ENDBRANCH   8  15
BRANCH  10  26
HETATM   26  C   UNL     1      41.653 -14.423   2.264  1.00  0.00     0.032 A 
HETATM   27  C   UNL     1      40.905 -15.540   2.635  1.00  0.00     0.020 A 
HETATM   28  C   UNL     1      41.490 -16.808   2.582  1.00  0.00     0.038 A 
HETATM   29  C   UNL     1      42.802 -16.973   2.123  1.00  0.00     0.068 A 
HETATM   30  C   UNL     1      43.530 -15.857   1.712  1.00  0.00     0.038 A 
HETATM   31  C   UNL     1      42.954 -14.585   1.774  1.00  0.00     0.020 A 
BRANCH  29  32
HETATM   32  O   UNL     1      43.247 -18.267   2.117  1.00  0.00    -0.356 OA
HETATM   33  C   UNL     1      44.032 -18.683   3.228  1.00  0.00     0.210 C 
ENDBRANCH  29  32
ENDBRANCH  10  26
BRANCH   1  34
HETATM   34  C   UNL     1      40.214  -8.263  -0.898  1.00  0.00     0.032 A 
HETATM   35  C   UNL     1      40.795  -8.922  -1.986  1.00  0.00     0.020 A 
HETATM   36  C   UNL     1      41.720  -8.249  -2.787  1.00  0.00     0.038 A 
HETATM   37  C   UNL     1      42.032  -6.909  -2.541  1.00  0.00     0.068 A 
HETATM   38  C   UNL     1      41.430  -6.247  -1.469  1.00  0.00     0.038 A 
HETATM   39  C   UNL     1      40.517  -6.921  -0.651  1.00  0.00     0.020 A 
BRANCH  37  40
HETATM   40  O   UNL     1      42.941  -6.363  -3.406  1.00  0.00    -0.356 OA
HETATM   41  C   UNL     1      43.026  -6.970  -4.692  1.00  0.00     0.210 C 
ENDBRANCH  37  40
ENDBRANCH   1  34
TORSDOF 7
ENDMDL
MODEL 4
REMARK VINA RESULT:      -8.3     18.069     22.405
REMARK  7 active torsions:
REMARK  status: ('A' for Active; 'I' for Inactive)
REMARK    1  A    between atoms: O_2  and  C_3 
REMARK    2  A    between atoms: C_6  and  C_7 
REMARK       I    between atoms: C_7  and  N_8 
REMARK    3  A    between atoms: C_14  and  C_15 
REMARK       I    between atoms: C_15  and  N_16 
REMARK    4  A    between atoms: N_16  and  C_17 
REMARK    5  A    between atoms: C_17  and  C_18 
REMARK       I    between atoms: N_25  and  C_26 
REMARK    6  A    between atoms: C_26  and  C_27 
REMARK    7  A    between atoms: C_30  and  O_31 
ROOT
HETATM    1  C   UNL     1      44.821 -30.786  -5.574  1.00  0.00     0.253 C 
HETATM    2  N   UNL     1      45.352 -30.216  -4.405  1.00  0.00    -0.348 N 
HETATM    3  C   UNL     1      46.231 -30.950  -3.498  1.00  0.00     0.131 C 
HETATM    4  C   UNL     1      47.087 -30.042  -2.643  1.00  0.00     0.081 C 
HETATM    5  C   UNL     1      46.305 -28.945  -1.915  1.00  0.00     0.142 C 
HETATM    6  O   UNL     1      47.339 -27.994  -1.513  1.00  0.00    -0.358 OA
HETATM    7  C   UNL     1      47.116 -27.608  -0.152  1.00  0.00     0.206 C 
HETATM    8  C   UNL     1      46.423 -28.789   0.475  1.00  0.00     0.206 C 
HETATM    9  N   UNL     1      45.668 -29.341  -0.649  1.00  0.00    -0.300 N 
HETATM   10  C   UNL     1      44.541 -30.136  -0.540  1.00  0.00     0.257 C 
HETATM   11  O   UNL     1      44.010 -30.710  -1.484  1.00  0.00    -0.267 OA
HETATM   12  C   UNL     1      45.404 -28.193  -2.902  1.00  0.00     0.081 C 
HETATM   13  C   UNL     1      44.616 -29.075  -3.863  1.00  0.00     0.131 C 
HETATM   14  O   UNL     1      44.058 -30.188  -6.332  1.00  0.00    -0.267 OA
ENDROOT
BRANCH   8  15
HETATM   15  C   UNL     1      47.461 -29.750   1.091  1.00  0.00     0.243 C 
HETATM   16  N   UNL     1      48.764 -29.517   0.720  1.00  0.00    -0.355 N 
HETATM   17  H   UNL     1      48.979 -28.662   0.225  1.00  0.00     0.162 HD
HETATM   18  O   UNL     1      47.135 -30.707   1.789  1.00  0.00    -0.271 OA
BRANCH  16  19
HETATM   19  C   UNL     1      49.866 -30.311   1.203  1.00  0.00     0.161 C 
BRANCH  19  20
HETATM   20  C   UNL     1      50.664 -30.828   0.036  1.00  0.00    -0.041 A 
HETATM   21  C   UNL     1      51.605 -31.851   0.215  1.00  0.00     0.009 A 
HETATM   22  C   UNL     1      52.398 -32.278  -0.851  1.00  0.00     0.001 A 
HETATM   23  C   UNL     1      52.265 -31.679  -2.103  1.00  0.00     0.000 A 
HETATM   24  C   UNL     1      51.337 -30.657  -2.292  1.00  0.00     0.001 A 
HETATM   25  C   UNL     1      50.538 -30.234  -1.228  1.00  0.00     0.009 A 
ENDBRANCH  19  20
ENDBRANCH  16  19
ENDBRANCH   8  15
BRANCH  10  26
HETATM   26  C   UNL     1      43.948 -30.407   0.788  1.00  0.00     0.032 A 
HETATM   27  C   UNL     1      43.165 -29.462   1.451  1.00  0.00     0.020 A 
HETATM   28  C   UNL     1      42.606 -29.783   2.692  1.00  0.00     0.038 A 
HETATM   29  C   UNL     1      42.791 -31.051   3.255  1.00  0.00     0.068 A 
HETATM   30  C   UNL     1      43.540 -32.005   2.566  1.00  0.00     0.038 A 
HETATM   31  C   UNL     1      44.110 -31.686   1.330  1.00  0.00     0.020 A 
BRANCH  29  32
HETATM   32  O   UNL     1      42.185 -31.231   4.468  1.00  0.00    -0.356 OA
HETATM   33  C   UNL     1      40.801 -30.914   4.549  1.00  0.00     0.210 C 
ENDBRANCH  29  32
ENDBRANCH  10  26
BRANCH   1  34
HETATM   34  C   UNL     1      45.188 -32.172  -5.947  1.00  0.00     0.032 A 
HETATM   35  C   UNL     1      46.362 -32.441  -6.658  1.00  0.00     0.020 A 
HETATM   36  C   UNL     1      46.693 -33.760  -6.972  1.00  0.00     0.038 A 
HETATM   37  C   UNL     1      45.887 -34.818  -6.540  1.00  0.00     0.068 A 
HETATM   38  C   UNL     1      44.729 -34.547  -5.808  1.00  0.00     0.038 A 
HETATM   39  C   UNL     1      44.382 -33.225  -5.506  1.00  0.00     0.020 A 
BRANCH  37  40
HETATM   40  O   UNL     1      46.330 -36.061  -6.902  1.00  0.00    -0.356 OA
HETATM   41  C   UNL     1      47.484 -36.098  -7.735  1.00  0.00     0.210 C 
ENDBRANCH  37  40
ENDBRANCH   1  34
TORSDOF 7
ENDMDL
MODEL 5
REMARK VINA RESULT:      -8.3      5.243     11.342
REMARK  7 active torsions:
REMARK  status: ('A' for Active; 'I' for Inactive)
REMARK    1  A    between atoms: O_2  and  C_3 
REMARK    2  A    between atoms: C_6  and  C_7 
REMARK       I    between atoms: C_7  and  N_8 
REMARK    3  A    between atoms: C_14  and  C_15 
REMARK       I    between atoms: C_15  and  N_16 
REMARK    4  A    between atoms: N_16  and  C_17 
REMARK    5  A    between atoms: C_17  and  C_18 
REMARK       I    between atoms: N_25  and  C_26 
REMARK    6  A    between atoms: C_26  and  C_27 
REMARK    7  A    between atoms: C_30  and  O_31 
ROOT
HETATM    1  C   UNL     1      35.731  -9.166  -3.521  1.00  0.00     0.253 C 
HETATM    2  N   UNL     1      36.761 -10.088  -3.276  1.00  0.00    -0.348 N 
HETATM    3  C   UNL     1      36.544 -11.345  -2.563  1.00  0.00     0.131 C 
HETATM    4  C   UNL     1      37.597 -12.387  -2.869  1.00  0.00     0.081 C 
HETATM    5  C   UNL     1      39.036 -11.887  -2.717  1.00  0.00     0.142 C 
HETATM    6  O   UNL     1      39.826 -12.888  -3.432  1.00  0.00    -0.358 OA
HETATM    7  C   UNL     1      40.967 -13.237  -2.640  1.00  0.00     0.206 C 
HETATM    8  C   UNL     1      40.531 -13.011  -1.216  1.00  0.00     0.206 C 
HETATM    9  N   UNL     1      39.583 -11.906  -1.350  1.00  0.00    -0.300 N 
HETATM   10  C   UNL     1      39.233 -11.028  -0.341  1.00  0.00     0.257 C 
HETATM   11  O   UNL     1      38.330 -10.204  -0.429  1.00  0.00    -0.267 OA
HETATM   12  C   UNL     1      39.226 -10.574  -3.486  1.00  0.00     0.081 C 
HETATM   13  C   UNL     1      38.118  -9.545  -3.296  1.00  0.00     0.131 C 
HETATM   14  O   UNL     1      35.906  -8.092  -4.095  1.00  0.00    -0.267 OA
ENDROOT
BRANCH   8  15
HETATM   15  C   UNL     1      39.933 -14.308  -0.630  1.00  0.00     0.243 C 
HETATM   16  N   UNL     1      40.399 -14.655   0.615  1.00  0.00    -0.355 N 
HETATM   17  H   UNL     1      40.951 -13.981   1.128  1.00  0.00     0.162 HD
HETATM   18  O   UNL     1      39.166 -15.023  -1.270  1.00  0.00    -0.271 OA
BRANCH  16  19
HETATM   19  C   UNL     1      39.946 -15.830   1.317  1.00  0.00     0.161 C 
BRANCH  19  20
HETATM   20  C   UNL     1      40.915 -16.162   2.421  1.00  0.00    -0.041 A 
HETATM   21  C   UNL     1      42.049 -16.942   2.159  1.00  0.00     0.009 A 
HETATM   22  C   UNL     1      42.908 -17.313   3.196  1.00  0.00     0.001 A 
HETATM   23  C   UNL     1      42.634 -16.915   4.504  1.00  0.00     0.000 A 
HETATM   24  C   UNL     1      41.506 -16.144   4.776  1.00  0.00     0.001 A 
HETATM   25  C   UNL     1      40.650 -15.767   3.740  1.00  0.00     0.009 A 
ENDBRANCH  19  20
ENDBRANCH  16  19
ENDBRANCH   8  15
BRANCH  10  26
HETATM   26  C   UNL     1      39.906 -11.101   0.974  1.00  0.00     0.032 A 
HETATM   27  C   UNL     1      39.313 -11.725   2.071  1.00  0.00     0.020 A 
HETATM   28  C   UNL     1      40.007 -11.789   3.283  1.00  0.00     0.038 A 
HETATM   29  C   UNL     1      41.302 -11.270   3.395  1.00  0.00     0.068 A 
HETATM   30  C   UNL     1      41.906 -10.686   2.282  1.00  0.00     0.038 A 
HETATM   31  C   UNL     1      41.212 -10.609   1.071  1.00  0.00     0.020 A 
BRANCH  29  32
HETATM   32  O   UNL     1      41.866 -11.405   4.634  1.00  0.00    -0.356 OA
HETATM   33  C   UNL     1      42.676 -12.554   4.851  1.00  0.00     0.210 C 
ENDBRANCH  29  32
ENDBRANCH  10  26
BRANCH   1  34
HETATM   34  C   UNL     1      34.348  -9.478  -3.087  1.00  0.00     0.032 A 
HETATM   35  C   UNL     1      33.776  -8.836  -1.985  1.00  0.00     0.020 A 
HETATM   36  C   UNL     1      32.462  -9.134  -1.617  1.00  0.00     0.038 A 
HETATM   37  C   UNL     1      31.699 -10.030  -2.371  1.00  0.00     0.068 A 
HETATM   38  C   UNL     1      32.265 -10.649  -3.487  1.00  0.00     0.038 A 
HETATM   39  C   UNL     1      33.588 -10.369  -3.849  1.00  0.00     0.020 A 
BRANCH  37  40
HETATM   40  O   UNL     1      30.423 -10.222  -1.913  1.00  0.00    -0.356 OA
HETATM   41  C   UNL     1      29.981  -9.331  -0.895  1.00  0.00     0.210 C 
ENDBRANCH  37  40
ENDBRANCH   1  34
TORSDOF 7
ENDMDL
MODEL 6
REMARK VINA RESULT:      -8.2      2.926     10.151
REMARK  7 active torsions:
REMARK  status: ('A' for Active; 'I' for Inactive)
REMARK    1  A    between atoms: O_2  and  C_3 
REMARK    2  A    between atoms: C_6  and  C_7 
REMARK       I    between atoms: C_7  and  N_8 
REMARK    3  A    between atoms: C_14  and  C_15 
REMARK       I    between atoms: C_15  and  N_16 
REMARK    4  A    between atoms: N_16  and  C_17 
REMARK    5  A    between atoms: C_17  and  C_18 
REMARK       I    between atoms: N_25  and  C_26 
REMARK    6  A    between atoms: C_26  and  C_27 
REMARK    7  A    between atoms: C_30  and  O_31 
ROOT
HETATM    1  C   UNL     1      40.006 -12.888   4.310  1.00  0.00     0.253 C 
HETATM    2  N   UNL     1      40.392 -11.630   4.802  1.00  0.00    -0.348 N 
HETATM    3  C   UNL     1      41.510 -11.453   5.725  1.00  0.00     0.131 C 
HETATM    4  C   UNL     1      42.078 -10.051   5.702  1.00  0.00     0.081 C 
HETATM    5  C   UNL     1      41.028  -8.947   5.860  1.00  0.00     0.142 C 
HETATM    6  O   UNL     1      41.724  -7.743   5.409  1.00  0.00    -0.358 OA
HETATM    7  C   UNL     1      41.467  -6.681   6.334  1.00  0.00     0.206 C 
HETATM    8  C   UNL     1      41.226  -7.367   7.653  1.00  0.00     0.206 C 
HETATM    9  N   UNL     1      40.624  -8.634   7.240  1.00  0.00    -0.300 N 
HETATM   10  C   UNL     1      39.820  -9.432   8.033  1.00  0.00     0.257 C 
HETATM   11  O   UNL     1      39.448 -10.558   7.723  1.00  0.00    -0.267 OA
HETATM   12  C   UNL     1      39.879  -9.163   4.868  1.00  0.00     0.081 C 
HETATM   13  C   UNL     1      39.362 -10.594   4.776  1.00  0.00     0.131 C 
HETATM   14  O   UNL     1      39.050 -13.055   3.554  1.00  0.00    -0.267 OA
ENDROOT
BRANCH   8  15
HETATM   15  C   UNL     1      42.551  -7.504   8.432  1.00  0.00     0.243 C 
HETATM   16  N   UNL     1      42.415  -7.655   9.791  1.00  0.00    -0.355 N 
HETATM   17  H   UNL     1      41.494  -7.834  10.167  1.00  0.00     0.162 HD
HETATM   18  O   UNL     1      43.646  -7.395   7.886  1.00  0.00    -0.271 OA
BRANCH  16  19
HETATM   19  C   UNL     1      43.545  -7.804  10.675  1.00  0.00     0.161 C 
BRANCH  19  20
HETATM   20  C   UNL     1      43.057  -8.065  12.076  1.00  0.00    -0.041 A 
HETATM   21  C   UNL     1      42.914  -9.378  12.544  1.00  0.00     0.009 A 
HETATM   22  C   UNL     1      42.391  -9.622  13.816  1.00  0.00     0.001 A 
HETATM   23  C   UNL     1      41.997  -8.557  14.624  1.00  0.00     0.000 A 
HETATM   24  C   UNL     1      42.130  -7.248  14.166  1.00  0.00     0.001 A 
HETATM   25  C   UNL     1      42.659  -7.002  12.898  1.00  0.00     0.009 A 
ENDBRANCH  19  20
ENDBRANCH  16  19
ENDBRANCH   8  15
BRANCH  10  26
HETATM   26  C   UNL     1      39.422  -8.976   9.383  1.00  0.00     0.032 A 
HETATM   27  C   UNL     1      39.810  -9.660  10.536  1.00  0.00     0.020 A 
HETATM   28  C   UNL     1      39.429  -9.168  11.787  1.00  0.00     0.038 A 
HETATM   29  C   UNL     1      38.697  -7.979  11.898  1.00  0.00     0.068 A 
HETATM   30  C   UNL     1      38.350  -7.278  10.743  1.00  0.00     0.038 A 
HETATM   31  C   UNL     1      38.719  -7.771   9.488  1.00  0.00     0.020 A 
BRANCH  29  32
HETATM   32  O   UNL     1      38.397  -7.611  13.180  1.00  0.00    -0.356 OA
HETATM   33  C   UNL     1      38.534  -6.232  13.503  1.00  0.00     0.210 C 
ENDBRANCH  29  32
ENDBRANCH  10  26
BRANCH   1  34
HETATM   34  C   UNL     1      40.776 -14.095   4.694  1.00  0.00     0.032 A 
HETATM   35  C   UNL     1      40.408 -14.862   5.804  1.00  0.00     0.020 A 
HETATM   36  C   UNL     1      41.139 -16.008   6.125  1.00  0.00     0.038 A 
HETATM   37  C   UNL     1      42.204 -16.421   5.318  1.00  0.00     0.068 A 
HETATM   38  C   UNL     1      42.551 -15.666   4.196  1.00  0.00     0.038 A 
HETATM   39  C   UNL     1      41.835 -14.506   3.880  1.00  0.00     0.020 A 
BRANCH  37  40
HETATM   40  O   UNL     1      42.827 -17.566   5.734  1.00  0.00    -0.356 OA
HETATM   41  C   UNL     1      43.711 -18.175   4.799  1.00  0.00     0.210 C 
ENDBRANCH  37  40
ENDBRANCH   1  34
TORSDOF 7
ENDMDL
MODEL 7
REMARK VINA RESULT:      -7.9     18.074     20.728
REMARK  7 active torsions:
REMARK  status: ('A' for Active; 'I' for Inactive)
REMARK    1  A    between atoms: O_2  and  C_3 
REMARK    2  A    between atoms: C_6  and  C_7 
REMARK       I    between atoms: C_7  and  N_8 
REMARK    3  A    between atoms: C_14  and  C_15 
REMARK       I    between atoms: C_15  and  N_16 
REMARK    4  A    between atoms: N_16  and  C_17 
REMARK    5  A    between atoms: C_17  and  C_18 
REMARK       I    between atoms: N_25  and  C_26 
REMARK    6  A    between atoms: C_26  and  C_27 
REMARK    7  A    between atoms: C_30  and  O_31 
ROOT
HETATM    1  C   UNL     1      50.447 -30.812   1.126  1.00  0.00     0.253 C 
HETATM    2  N   UNL     1      49.215 -30.262   0.735  1.00  0.00    -0.348 N 
HETATM    3  C   UNL     1      48.077 -30.149   1.643  1.00  0.00     0.131 C 
HETATM    4  C   UNL     1      47.084 -29.089   1.218  1.00  0.00     0.081 C 
HETATM    5  C   UNL     1      46.639 -29.198  -0.243  1.00  0.00     0.142 C 
HETATM    6  O   UNL     1      46.042 -27.892  -0.519  1.00  0.00    -0.358 OA
HETATM    7  C   UNL     1      44.805 -28.081  -1.215  1.00  0.00     0.206 C 
HETATM    8  C   UNL     1      44.309 -29.429  -0.760  1.00  0.00     0.206 C 
HETATM    9  N   UNL     1      45.554 -30.155  -0.516  1.00  0.00    -0.300 N 
HETATM   10  C   UNL     1      45.690 -31.531  -0.516  1.00  0.00     0.257 C 
HETATM   11  O   UNL     1      46.704 -32.122  -0.164  1.00  0.00    -0.267 OA
HETATM   12  C   UNL     1      47.861 -29.303  -1.164  1.00  0.00     0.081 C 
HETATM   13  C   UNL     1      48.940 -30.275  -0.701  1.00  0.00     0.131 C 
HETATM   14  O   UNL     1      51.404 -30.938   0.363  1.00  0.00    -0.267 OA
ENDROOT
BRANCH   8  15
HETATM   15  C   UNL     1      43.399 -29.272   0.477  1.00  0.00     0.243 C 
HETATM   16  N   UNL     1      43.883 -29.835   1.632  1.00  0.00    -0.355 N 
HETATM   17  H   UNL     1      44.842 -30.156   1.648  1.00  0.00     0.162 HD
HETATM   18  O   UNL     1      42.285 -28.758   0.409  1.00  0.00    -0.271 OA
BRANCH  16  19
HETATM   19  C   UNL     1      43.171 -29.779   2.885  1.00  0.00     0.161 C 
BRANCH  19  20
HETATM   20  C   UNL     1      42.349 -31.029   3.053  1.00  0.00    -0.041 A 
HETATM   21  C   UNL     1      42.914 -32.181   3.616  1.00  0.00     0.009 A 
HETATM   22  C   UNL     1      42.175 -33.362   3.703  1.00  0.00     0.001 A 
HETATM   23  C   UNL     1      40.869 -33.405   3.218  1.00  0.00     0.000 A 
HETATM   24  C   UNL     1      40.298 -32.267   2.652  1.00  0.00     0.001 A 
HETATM   25  C   UNL     1      41.033 -31.084   2.570  1.00  0.00     0.009 A 
ENDBRANCH  19  20
ENDBRANCH  16  19
ENDBRANCH   8  15
BRANCH  10  26
HETATM   26  C   UNL     1      44.541 -32.390  -0.878  1.00  0.00     0.032 A 
HETATM   27  C   UNL     1      44.309 -32.795  -2.192  1.00  0.00     0.020 A 
HETATM   28  C   UNL     1      43.225 -33.631  -2.472  1.00  0.00     0.038 A 
HETATM   29  C   UNL     1      42.395 -34.097  -1.445  1.00  0.00     0.068 A 
HETATM   30  C   UNL     1      42.659 -33.723  -0.127  1.00  0.00     0.038 A 
HETATM   31  C   UNL     1      43.735 -32.878   0.157  1.00  0.00     0.020 A 
BRANCH  29  32
HETATM   32  O   UNL     1      41.376 -34.911  -1.859  1.00  0.00    -0.356 OA
HETATM   33  C   UNL     1      41.625 -35.725  -2.998  1.00  0.00     0.210 C 
ENDBRANCH  29  32
ENDBRANCH  10  26
BRANCH   1  34
HETATM   34  C   UNL     1      50.638 -31.263   2.524  1.00  0.00     0.032 A 
HETATM   35  C   UNL     1      50.693 -32.624   2.841  1.00  0.00     0.020 A 
HETATM   36  C   UNL     1      50.900 -33.017   4.165  1.00  0.00     0.038 A 
HETATM   37  C   UNL     1      51.103 -32.062   5.167  1.00  0.00     0.068 A 
HETATM   38  C   UNL     1      51.074 -30.705   4.841  1.00  0.00     0.038 A 
HETATM   39  C   UNL     1      50.847 -30.305   3.519  1.00  0.00     0.020 A 
BRANCH  37  40
HETATM   40  O   UNL     1      51.309 -32.579   6.417  1.00  0.00    -0.356 OA
HETATM   41  C   UNL     1      52.278 -33.617   6.516  1.00  0.00     0.210 C 
ENDBRANCH  37  40
ENDBRANCH   1  34
TORSDOF 7
ENDMDL
MODEL 8
REMARK VINA RESULT:      -7.7     17.836     22.199
REMARK  7 active torsions:
REMARK  status: ('A' for Active; 'I' for Inactive)
REMARK    1  A    between atoms: O_2  and  C_3 
REMARK    2  A    between atoms: C_6  and  C_7 
REMARK       I    between atoms: C_7  and  N_8 
REMARK    3  A    between atoms: C_14  and  C_15 
REMARK       I    between atoms: C_15  and  N_16 
REMARK    4  A    between atoms: N_16  and  C_17 
REMARK    5  A    between atoms: C_17  and  C_18 
REMARK       I    between atoms: N_25  and  C_26 
REMARK    6  A    between atoms: C_26  and  C_27 
REMARK    7  A    between atoms: C_30  and  O_31 
ROOT
HETATM    1  C   UNL     1      44.912 -30.767  -5.482  1.00  0.00     0.253 C 
HETATM    2  N   UNL     1      45.416 -30.146  -4.327  1.00  0.00    -0.348 N 
HETATM    3  C   UNL     1      46.371 -30.797  -3.433  1.00  0.00     0.131 C 
HETATM    4  C   UNL     1      47.164 -29.814  -2.601  1.00  0.00     0.081 C 
HETATM    5  C   UNL     1      46.308 -28.780  -1.865  1.00  0.00     0.142 C 
HETATM    6  O   UNL     1      47.266 -27.743  -1.489  1.00  0.00    -0.358 OA
HETATM    7  C   UNL     1      47.037 -27.366  -0.127  1.00  0.00     0.206 C 
HETATM    8  C   UNL     1      46.457 -28.596   0.522  1.00  0.00     0.206 C 
HETATM    9  N   UNL     1      45.729 -29.218  -0.583  1.00  0.00    -0.300 N 
HETATM   10  C   UNL     1      44.675 -30.103  -0.448  1.00  0.00     0.257 C 
HETATM   11  O   UNL     1      44.177 -30.727  -1.378  1.00  0.00    -0.267 OA
HETATM   12  C   UNL     1      45.328 -28.113  -2.838  1.00  0.00     0.081 C 
HETATM   13  C   UNL     1      44.598 -29.066  -3.778  1.00  0.00     0.131 C 
HETATM   14  O   UNL     1      44.087 -30.241  -6.229  1.00  0.00    -0.267 OA
ENDROOT
BRANCH   8  15
HETATM   15  C   UNL     1      47.584 -29.463   1.123  1.00  0.00     0.243 C 
HETATM   16  N   UNL     1      48.159 -28.961   2.265  1.00  0.00    -0.355 N 
HETATM   17  H   UNL     1      47.716 -28.177   2.724  1.00  0.00     0.162 HD
HETATM   18  O   UNL     1      47.994 -30.480   0.568  1.00  0.00    -0.271 OA
BRANCH  16  19
HETATM   19  C   UNL     1      49.220 -29.640   2.966  1.00  0.00     0.161 C 
BRANCH  19  20
HETATM   20  C   UNL     1      48.633 -30.537   4.024  1.00  0.00    -0.041 A 
HETATM   21  C   UNL     1      47.325 -30.330   4.484  1.00  0.00     0.009 A 
HETATM   22  C   UNL     1      46.806 -31.113   5.517  1.00  0.00     0.001 A 
HETATM   23  C   UNL     1      47.594 -32.101   6.106  1.00  0.00     0.000 A 
HETATM   24  C   UNL     1      48.897 -32.312   5.660  1.00  0.00     0.001 A 
HETATM   25  C   UNL     1      49.415 -31.535   4.623  1.00  0.00     0.009 A 
ENDBRANCH  19  20
ENDBRANCH  16  19
ENDBRANCH   8  15
BRANCH  10  26
HETATM   26  C   UNL     1      44.133 -30.412   0.893  1.00  0.00     0.032 A 
HETATM   27  C   UNL     1      43.025 -29.741   1.412  1.00  0.00     0.020 A 
HETATM   28  C   UNL     1      42.537 -30.094   2.673  1.00  0.00     0.038 A 
HETATM   29  C   UNL     1      43.122 -31.136   3.402  1.00  0.00     0.068 A 
HETATM   30  C   UNL     1      44.203 -31.831   2.859  1.00  0.00     0.038 A 
HETATM   31  C   UNL     1      44.702 -31.475   1.602  1.00  0.00     0.020 A 
BRANCH  29  32
HETATM   32  O   UNL     1      42.542 -31.379   4.617  1.00  0.00    -0.356 OA
HETATM   33  C   UNL     1      41.321 -30.704   4.894  1.00  0.00     0.210 C 
ENDBRANCH  29  32
ENDBRANCH  10  26
BRANCH   1  34
HETATM   34  C   UNL     1      45.387 -32.121  -5.854  1.00  0.00     0.032 A 
HETATM   35  C   UNL     1      44.683 -33.264  -5.464  1.00  0.00     0.020 A 
HETATM   36  C   UNL     1      45.142 -34.525  -5.851  1.00  0.00     0.038 A 
HETATM   37  C   UNL     1      46.270 -34.650  -6.667  1.00  0.00     0.068 A 
HETATM   38  C   UNL     1      46.955 -33.504  -7.076  1.00  0.00     0.038 A 
HETATM   39  C   UNL     1      46.511 -32.240  -6.675  1.00  0.00     0.020 A 
BRANCH  37  40
HETATM   40  O   UNL     1      46.606 -35.938  -6.986  1.00  0.00    -0.356 OA
HETATM   41  C   UNL     1      47.986 -36.184  -7.234  1.00  0.00     0.210 C 
ENDBRANCH  37  40
ENDBRANCH   1  34
TORSDOF 7
ENDMDL
MODEL 9
REMARK VINA RESULT:      -7.7      3.125      9.626
REMARK  7 active torsions:
REMARK  status: ('A' for Active; 'I' for Inactive)
REMARK    1  A    between atoms: O_2  and  C_3 
REMARK    2  A    between atoms: C_6  and  C_7 
REMARK       I    between atoms: C_7  and  N_8 
REMARK    3  A    between atoms: C_14  and  C_15 
REMARK       I    between atoms: C_15  and  N_16 
REMARK    4  A    between atoms: N_16  and  C_17 
REMARK    5  A    between atoms: C_17  and  C_18 
REMARK       I    between atoms: N_25  and  C_26 
REMARK    6  A    between atoms: C_26  and  C_27 
REMARK    7  A    between atoms: C_30  and  O_31 
ROOT
HETATM    1  C   UNL     1      39.362 -11.031   4.404  1.00  0.00     0.253 C 
HETATM    2  N   UNL     1      39.914  -9.924   5.069  1.00  0.00    -0.348 N 
HETATM    3  C   UNL     1      41.001 -10.046   6.037  1.00  0.00     0.131 C 
HETATM    4  C   UNL     1      41.778  -8.761   6.217  1.00  0.00     0.081 C 
HETATM    5  C   UNL     1      40.905  -7.534   6.491  1.00  0.00     0.142 C 
HETATM    6  O   UNL     1      41.800  -6.408   6.224  1.00  0.00    -0.358 OA
HETATM    7  C   UNL     1      41.666  -5.445   7.275  1.00  0.00     0.206 C 
HETATM    8  C   UNL     1      41.259  -6.247   8.484  1.00  0.00     0.206 C 
HETATM    9  N   UNL     1      40.490  -7.339   7.890  1.00  0.00    -0.300 N 
HETATM   10  C   UNL     1      39.535  -8.093   8.548  1.00  0.00     0.257 C 
HETATM   11  O   UNL     1      39.009  -9.097   8.081  1.00  0.00    -0.267 OA
HETATM   12  C   UNL     1      39.784  -7.435   5.449  1.00  0.00     0.081 C 
HETATM   13  C   UNL     1      39.058  -8.742   5.153  1.00  0.00     0.131 C 
HETATM   14  O   UNL     1      38.428 -10.946   3.607  1.00  0.00    -0.267 OA
ENDROOT
BRANCH   8  15
HETATM   15  C   UNL     1      42.509  -6.691   9.273  1.00  0.00     0.243 C 
HETATM   16  N   UNL     1      42.634  -8.047   9.453  1.00  0.00    -0.355 N 
HETATM   17  H   UNL     1      42.020  -8.661   8.935  1.00  0.00     0.162 HD
HETATM   18  O   UNL     1      43.285  -5.883   9.778  1.00  0.00    -0.271 OA
BRANCH  16  19
HETATM   19  C   UNL     1      43.742  -8.641  10.160  1.00  0.00     0.161 C 
BRANCH  19  20
HETATM   20  C   UNL     1      44.578  -9.445   9.200  1.00  0.00    -0.041 A 
HETATM   21  C   UNL     1      45.808  -8.951   8.744  1.00  0.00     0.009 A 
HETATM   22  C   UNL     1      46.549  -9.661   7.797  1.00  0.00     0.001 A 
HETATM   23  C   UNL     1      46.061 -10.864   7.290  1.00  0.00     0.000 A 
HETATM   24  C   UNL     1      44.837 -11.362   7.732  1.00  0.00     0.001 A 
HETATM   25  C   UNL     1      44.099 -10.657   8.684  1.00  0.00     0.009 A 
ENDBRANCH  19  20
ENDBRANCH  16  19
ENDBRANCH   8  15
BRANCH  10  26
HETATM   26  C   UNL     1      39.149  -7.755   9.936  1.00  0.00     0.032 A 
HETATM   27  C   UNL     1      39.499  -8.566  11.016  1.00  0.00     0.020 A 
HETATM   28  C   UNL     1      39.132  -8.183  12.309  1.00  0.00     0.038 A 
HETATM   29  C   UNL     1      38.453  -6.980  12.535  1.00  0.00     0.068 A 
HETATM   30  C   UNL     1      38.144  -6.153  11.454  1.00  0.00     0.038 A 
HETATM   31  C   UNL     1      38.499  -6.536  10.158  1.00  0.00     0.020 A 
BRANCH  29  32
HETATM   32  O   UNL     1      38.160  -6.727  13.847  1.00  0.00    -0.356 OA
HETATM   33  C   UNL     1      39.249  -6.383  14.694  1.00  0.00     0.210 C 
ENDBRANCH  29  32
ENDBRANCH  10  26
BRANCH   1  34
HETATM   34  C   UNL     1      39.917 -12.384   4.644  1.00  0.00     0.032 A 
HETATM   35  C   UNL     1      40.697 -13.025   3.677  1.00  0.00     0.020 A 
HETATM   36  C   UNL     1      41.227 -14.289   3.943  1.00  0.00     0.038 A 
HETATM   37  C   UNL     1      41.026 -14.896   5.186  1.00  0.00     0.068 A 
HETATM   38  C   UNL     1      40.268 -14.241   6.159  1.00  0.00     0.038 A 
HETATM   39  C   UNL     1      39.718 -12.983   5.891  1.00  0.00     0.020 A 
BRANCH  37  40
HETATM   40  O   UNL     1      41.610 -16.127   5.324  1.00  0.00    -0.356 OA
HETATM   41  C   UNL     1      43.033 -16.151   5.313  1.00  0.00     0.210 C 
ENDBRANCH  37  40
ENDBRANCH   1  34
TORSDOF 7
ENDMDL
MODEL 10
REMARK VINA RESULT:      -7.7      3.508      7.937
REMARK  7 active torsions:
REMARK  status: ('A' for Active; 'I' for Inactive)
REMARK    1  A    between atoms: O_2  and  C_3 
REMARK    2  A    between atoms: C_6  and  C_7 
REMARK       I    between atoms: C_7  and  N_8 
REMARK    3  A    between atoms: C_14  and  C_15 
REMARK       I    between atoms: C_15  and  N_16 
REMARK    4  A    between atoms: N_16  and  C_17 
REMARK    5  A    between atoms: C_17  and  C_18 
REMARK       I    between atoms: N_25  and  C_26 
REMARK    6  A    between atoms: C_26  and  C_27 
REMARK    7  A    between atoms: C_30  and  O_31 
ROOT
HETATM    1  C   UNL     1      41.725 -13.657   5.746  1.00  0.00     0.253 C 
HETATM    2  N   UNL     1      41.417 -13.729   4.378  1.00  0.00    -0.348 N 
HETATM    3  C   UNL     1      42.040 -12.862   3.381  1.00  0.00     0.131 C 
HETATM    4  C   UNL     1      41.987 -13.437   1.983  1.00  0.00     0.081 C 
HETATM    5  C   UNL     1      40.593 -13.896   1.547  1.00  0.00     0.142 C 
HETATM    6  O   UNL     1      40.859 -14.751   0.391  1.00  0.00    -0.358 OA
HETATM    7  C   UNL     1      39.938 -14.422  -0.655  1.00  0.00     0.206 C 
HETATM    8  C   UNL     1      39.602 -12.971  -0.432  1.00  0.00     0.206 C 
HETATM    9  N   UNL     1      39.704 -12.847   1.022  1.00  0.00    -0.300 N 
HETATM   10  C   UNL     1      39.081 -11.878   1.786  1.00  0.00     0.257 C 
HETATM   11  O   UNL     1      39.295 -11.699   2.980  1.00  0.00    -0.267 OA
HETATM   12  C   UNL     1      39.978 -14.812   2.612  1.00  0.00     0.081 C 
HETATM   13  C   UNL     1      40.121 -14.321   4.049  1.00  0.00     0.131 C 
HETATM   14  O   UNL     1      41.187 -14.362   6.600  1.00  0.00    -0.267 OA
ENDROOT
BRANCH   8  15
HETATM   15  C   UNL     1      40.572 -12.071  -1.226  1.00  0.00     0.243 C 
HETATM   16  N   UNL     1      40.165 -11.756  -2.500  1.00  0.00    -0.355 N 
HETATM   17  H   UNL     1      39.216 -11.978  -2.772  1.00  0.00     0.162 HD
HETATM   18  O   UNL     1      41.668 -11.737  -0.782  1.00  0.00    -0.271 OA
BRANCH  16  19
HETATM   19  C   UNL     1      40.941 -10.921  -3.382  1.00  0.00     0.161 C 
BRANCH  19  20
HETATM   20  C   UNL     1      40.523  -9.484  -3.213  1.00  0.00    -0.041 A 
HETATM   21  C   UNL     1      41.331  -8.589  -2.499  1.00  0.00     0.009 A 
HETATM   22  C   UNL     1      40.909  -7.277  -2.278  1.00  0.00     0.001 A 
HETATM   23  C   UNL     1      39.672  -6.852  -2.759  1.00  0.00     0.000 A 
HETATM   24  C   UNL     1      38.858  -7.735  -3.465  1.00  0.00     0.001 A 
HETATM   25  C   UNL     1      39.281  -9.045  -3.693  1.00  0.00     0.009 A 
ENDBRANCH  19  20
ENDBRANCH  16  19
ENDBRANCH   8  15
BRANCH  10  26
HETATM   26  C   UNL     1      38.149 -10.918   1.153  1.00  0.00     0.032 A 
HETATM   27  C   UNL     1      36.770 -11.126   1.146  1.00  0.00     0.020 A 
HETATM   28  C   UNL     1      35.935 -10.172   0.559  1.00  0.00     0.038 A 
HETATM   29  C   UNL     1      36.462  -8.995   0.015  1.00  0.00     0.068 A 
HETATM   30  C   UNL     1      37.839  -8.773   0.065  1.00  0.00     0.038 A 
HETATM   31  C   UNL     1      38.680  -9.729   0.641  1.00  0.00     0.020 A 
BRANCH  29  32
HETATM   32  O   UNL     1      35.533  -8.146  -0.521  1.00  0.00    -0.356 OA
HETATM   33  C   UNL     1      36.003  -6.887  -0.985  1.00  0.00     0.210 C 
ENDBRANCH  29  32
ENDBRANCH  10  26
BRANCH   1  34
HETATM   34  C   UNL     1      42.753 -12.699   6.218  1.00  0.00     0.032 A 
HETATM   35  C   UNL     1      44.087 -13.091   6.369  1.00  0.00     0.020 A 
HETATM   36  C   UNL     1      45.037 -12.159   6.791  1.00  0.00     0.038 A 
HETATM   37  C   UNL     1      44.676 -10.827   7.015  1.00  0.00     0.068 A 
HETATM   38  C   UNL     1      43.348 -10.434   6.837  1.00  0.00     0.038 A 
HETATM   39  C   UNL     1      42.387 -11.368   6.433  1.00  0.00     0.020 A 
BRANCH  37  40
HETATM   40  O   UNL     1      45.703 -10.013   7.410  1.00  0.00    -0.356 OA
HETATM   41  C   UNL     1      45.394  -9.058   8.419  1.00  0.00     0.210 C 
ENDBRANCH  37  40
ENDBRANCH   1  34
TORSDOF 7
ENDMDL
