MODEL 1
REMARK VINA RESULT:      -7.6      0.000      0.000
REMARK  3 active torsions:
REMARK  status: ('A' for Active; 'I' for Inactive)
REMARK    1  A    between atoms: N_6  and  C_7 
REMARK    2  A    between atoms: C_7  and  C_8 
REMARK    3  A    between atoms: N_10  and  C_11 
ROOT
HETATM    1  C   UNL     1      42.871 -16.851   4.049  1.00  0.00     0.073 A 
HETATM    2  C   UNL     1      42.939 -16.983   2.641  1.00  0.00     0.062 A 
HETATM    3 CL   UNL     1      42.438 -15.733   1.551  1.00  0.00    -0.082 Cl
HETATM    4  C   UNL     1      43.497 -18.121   2.038  1.00  0.00     0.026 A 
HETATM    5  C   UNL     1      44.016 -19.154   2.811  1.00  0.00     0.003 A 
HETATM    6  C   UNL     1      43.995 -19.046   4.196  1.00  0.00     0.025 A 
HETATM    7  C   UNL     1      43.437 -17.911   4.812  1.00  0.00     0.072 A 
HETATM    8  C   UNL     1      43.467 -17.864   6.253  1.00  0.00     0.102 C 
HETATM    9  N   UNL     1      43.555 -17.794   7.411  1.00  0.00    -0.191 NA
ENDROOT
BRANCH   1  10
HETATM   10  N   UNL     1      42.284 -15.773   4.718  1.00  0.00    -0.378 N 
HETATM   11  C   UNL     1      43.140 -14.633   5.055  1.00  0.00     0.129 C 
HETATM   12  C   UNL     1      42.687 -14.146   6.442  1.00  0.00     0.032 C 
HETATM   13  C   UNL     1      41.219 -13.690   6.364  1.00  0.00     0.009 C 
HETATM   14  C   UNL     1      40.333 -14.829   5.841  1.00  0.00     0.020 C 
HETATM   15  C   UNL     1      40.867 -15.432   4.534  1.00  0.00     0.123 C 
BRANCH  12  16
HETATM   16  C   UNL     1      43.646 -13.078   6.990  1.00  0.00     0.278 C 
BRANCH  16  17
HETATM   17  N   UNL     1      43.764 -11.849   6.173  1.00  0.00     0.092 N 
HETATM   18  C   UNL     1      45.183 -11.482   5.967  1.00  0.00     0.300 C 
HETATM   19  C   UNL     1      45.885 -10.855   7.196  1.00  0.00     0.264 C 
HETATM   20  N   UNL     1      45.074  -9.691   7.742  1.00  0.00    -0.072 N 
HETATM   21  C   UNL     1      45.705  -9.075   8.952  1.00  0.00     0.269 C 
HETATM   22  H   UNL     1      45.050  -8.974   7.006  1.00  0.00     0.279 HD
HETATM   23  C   UNL     1      43.625 -10.089   8.001  1.00  0.00     0.264 C 
HETATM   24  C   UNL     1      43.026 -10.684   6.712  1.00  0.00     0.300 C 
ENDBRANCH  16  17
ENDBRANCH  12  16
ENDBRANCH   1  10
TORSDOF 3
ENDMDL
MODEL 2
REMARK VINA RESULT:      -7.4      3.215      5.030
REMARK  3 active torsions:
REMARK  status: ('A' for Active; 'I' for Inactive)
REMARK    1  A    between atoms: N_6  and  C_7 
REMARK    2  A    between atoms: C_7  and  C_8 
REMARK    3  A    between atoms: N_10  and  C_11 
ROOT
HETATM    1  C   UNL     1      43.523 -18.314   4.630  1.00  0.00     0.073 A 
HETATM    2  C   UNL     1      43.635 -19.542   5.323  1.00  0.00     0.062 A 
HETATM    3 CL   UNL     1      43.401 -19.686   7.033  1.00  0.00    -0.082 Cl
HETATM    4  C   UNL     1      43.869 -20.748   4.643  1.00  0.00     0.026 A 
HETATM    5  C   UNL     1      43.984 -20.773   3.258  1.00  0.00     0.003 A 
HETATM    6  C   UNL     1      43.850 -19.591   2.541  1.00  0.00     0.025 A 
HETATM    7  C   UNL     1      43.617 -18.377   3.210  1.00  0.00     0.072 A 
HETATM    8  C   UNL     1      43.471 -17.195   2.397  1.00  0.00     0.102 C 
HETATM    9  N   UNL     1      43.283 -16.255   1.737  1.00  0.00    -0.191 NA
ENDROOT
BRANCH   1  10
HETATM   10  N   UNL     1      43.343 -17.069   5.242  1.00  0.00    -0.378 N 
HETATM   11  C   UNL     1      41.993 -16.501   5.243  1.00  0.00     0.129 C 
HETATM   12  C   UNL     1      42.161 -14.987   5.026  1.00  0.00     0.032 C 
HETATM   13  C   UNL     1      42.976 -14.396   6.189  1.00  0.00     0.009 C 
HETATM   14  C   UNL     1      44.330 -15.110   6.309  1.00  0.00     0.020 C 
HETATM   15  C   UNL     1      44.183 -16.636   6.366  1.00  0.00     0.123 C 
BRANCH  12  16
HETATM   16  C   UNL     1      40.799 -14.309   4.807  1.00  0.00     0.278 C 
BRANCH  16  17
HETATM   17  N   UNL     1      40.852 -12.871   4.458  1.00  0.00     0.092 N 
HETATM   18  C   UNL     1      39.508 -12.360   4.108  1.00  0.00     0.300 C 
HETATM   19  C   UNL     1      38.985 -12.784   2.715  1.00  0.00     0.264 C 
HETATM   20  N   UNL     1      40.009 -12.465   1.637  1.00  0.00    -0.072 N 
HETATM   21  C   UNL     1      39.554 -12.889   0.275  1.00  0.00     0.269 C 
HETATM   22  H   UNL     1      40.119 -11.443   1.624  1.00  0.00     0.279 HD
HETATM   23  C   UNL     1      41.380 -13.040   1.978  1.00  0.00     0.264 C 
HETATM   24  C   UNL     1      41.804 -12.541   3.374  1.00  0.00     0.300 C 
ENDBRANCH  16  17
ENDBRANCH  12  16
ENDBRANCH   1  10
TORSDOF 3
ENDMDL
MODEL 3
REMARK VINA RESULT:      -7.3      1.441      2.339
REMARK  3 active torsions:
REMARK  status: ('A' for Active; 'I' for Inactive)
REMARK    1  A    between atoms: N_6  and  C_7 
REMARK    2  A    between atoms: C_7  and  C_8 
REMARK    3  A    between atoms: N_10  and  C_11 
ROOT
HETATM    1  C   UNL     1      42.840 -17.057   4.263  1.00  0.00     0.073 A 
HETATM    2  C   UNL     1      43.464 -18.138   4.928  1.00  0.00     0.062 A 
HETATM    3 CL   UNL     1      43.441 -18.327   6.651  1.00  0.00    -0.082 Cl
HETATM    4  C   UNL     1      44.082 -19.179   4.217  1.00  0.00     0.026 A 
HETATM    5  C   UNL     1      44.086 -19.184   2.826  1.00  0.00     0.003 A 
HETATM    6  C   UNL     1      43.456 -18.155   2.138  1.00  0.00     0.025 A 
HETATM    7  C   UNL     1      42.836 -17.106   2.840  1.00  0.00     0.072 A 
HETATM    8  C   UNL     1      42.188 -16.084   2.057  1.00  0.00     0.102 C 
HETATM    9  N   UNL     1      41.607 -15.297   1.426  1.00  0.00    -0.191 NA
ENDROOT
BRANCH   1  10
HETATM   10  N   UNL     1      42.252 -15.961   4.904  1.00  0.00    -0.378 N 
HETATM   11  C   UNL     1      43.098 -14.795   5.170  1.00  0.00     0.129 C 
HETATM   12  C   UNL     1      42.673 -14.259   6.549  1.00  0.00     0.032 C 
HETATM   13  C   UNL     1      41.197 -13.829   6.491  1.00  0.00     0.009 C 
HETATM   14  C   UNL     1      40.316 -15.003   6.039  1.00  0.00     0.020 C 
HETATM   15  C   UNL     1      40.826 -15.650   4.744  1.00  0.00     0.123 C 
BRANCH  12  16
HETATM   16  C   UNL     1      43.629 -13.154   7.026  1.00  0.00     0.278 C 
BRANCH  16  17
HETATM   17  N   UNL     1      43.634 -11.920   6.208  1.00  0.00     0.092 N 
HETATM   18  C   UNL     1      45.017 -11.506   5.882  1.00  0.00     0.300 C 
HETATM   19  C   UNL     1      45.804 -10.860   7.048  1.00  0.00     0.264 C 
HETATM   20  N   UNL     1      45.006  -9.724   7.669  1.00  0.00    -0.072 N 
HETATM   21  C   UNL     1      45.720  -9.091   8.823  1.00  0.00     0.269 C 
HETATM   22  H   UNL     1      44.894  -9.007   6.942  1.00  0.00     0.279 HD
HETATM   23  C   UNL     1      43.599 -10.171   8.051  1.00  0.00     0.264 C 
HETATM   24  C   UNL     1      42.909 -10.782   6.816  1.00  0.00     0.300 C 
ENDBRANCH  16  17
ENDBRANCH  12  16
ENDBRANCH   1  10
TORSDOF 3
ENDMDL
MODEL 4
REMARK VINA RESULT:      -7.1      2.554      3.018
REMARK  3 active torsions:
REMARK  status: ('A' for Active; 'I' for Inactive)
REMARK    1  A    between atoms: N_6  and  C_7 
REMARK    2  A    between atoms: C_7  and  C_8 
REMARK    3  A    between atoms: N_10  and  C_11 
ROOT
HETATM    1  C   UNL     1      42.507 -16.859   4.211  1.00  0.00     0.073 A 
HETATM    2  C   UNL     1      42.362 -17.248   2.859  1.00  0.00     0.062 A 
HETATM    3 CL   UNL     1      41.213 -16.521   1.785  1.00  0.00    -0.082 Cl
HETATM    4  C   UNL     1      43.207 -18.206   2.277  1.00  0.00     0.026 A 
HETATM    5  C   UNL     1      44.228 -18.796   3.014  1.00  0.00     0.003 A 
HETATM    6  C   UNL     1      44.421 -18.417   4.337  1.00  0.00     0.025 A 
HETATM    7  C   UNL     1      43.580 -17.459   4.931  1.00  0.00     0.072 A 
HETATM    8  C   UNL     1      43.853 -17.105   6.302  1.00  0.00     0.102 C 
HETATM    9  N   UNL     1      44.117 -16.768   7.384  1.00  0.00    -0.191 NA
ENDROOT
BRANCH   1  10
HETATM   10  N   UNL     1      41.672 -15.953   4.872  1.00  0.00    -0.378 N 
HETATM   11  C   UNL     1      41.728 -14.549   4.455  1.00  0.00     0.129 C 
HETATM   12  C   UNL     1      41.592 -13.711   5.739  1.00  0.00     0.032 C 
HETATM   13  C   UNL     1      40.232 -14.007   6.395  1.00  0.00     0.009 C 
HETATM   14  C   UNL     1      40.090 -15.510   6.676  1.00  0.00     0.020 C 
HETATM   15  C   UNL     1      40.381 -16.366   5.435  1.00  0.00     0.123 C 
BRANCH  12  16
HETATM   16  C   UNL     1      41.839 -12.222   5.451  1.00  0.00     0.278 C 
BRANCH  16  17
HETATM   17  N   UNL     1      41.416 -11.754   4.111  1.00  0.00     0.092 N 
HETATM   18  C   UNL     1      42.146 -10.528   3.723  1.00  0.00     0.300 C 
HETATM   19  C   UNL     1      41.684  -9.233   4.434  1.00  0.00     0.264 C 
HETATM   20  N   UNL     1      40.179  -9.059   4.306  1.00  0.00    -0.072 N 
HETATM   21  C   UNL     1      39.686  -7.831   5.008  1.00  0.00     0.269 C 
HETATM   22  H   UNL     1      39.977  -8.945   3.305  1.00  0.00     0.279 HD
HETATM   23  C   UNL     1      39.429 -10.307   4.757  1.00  0.00     0.264 C 
HETATM   24  C   UNL     1      39.960 -11.525   3.976  1.00  0.00     0.300 C 
ENDBRANCH  16  17
ENDBRANCH  12  16
ENDBRANCH   1  10
TORSDOF 3
ENDMDL
MODEL 5
REMARK VINA RESULT:      -7.0      3.165      8.308
REMARK  3 active torsions:
REMARK  status: ('A' for Active; 'I' for Inactive)
REMARK    1  A    between atoms: N_6  and  C_7 
REMARK    2  A    between atoms: C_7  and  C_8 
REMARK    3  A    between atoms: N_10  and  C_11 
ROOT
HETATM    1  C   UNL     1      42.691  -9.052   9.412  1.00  0.00     0.073 A 
HETATM    2  C   UNL     1      41.723  -8.109   8.991  1.00  0.00     0.062 A 
HETATM    3 CL   UNL     1      41.659  -7.479   7.378  1.00  0.00    -0.082 Cl
HETATM    4  C   UNL     1      40.695  -7.682   9.845  1.00  0.00     0.026 A 
HETATM    5  C   UNL     1      40.588  -8.186  11.137  1.00  0.00     0.003 A 
HETATM    6  C   UNL     1      41.502  -9.136  11.576  1.00  0.00     0.025 A 
HETATM    7  C   UNL     1      42.537  -9.571  10.730  1.00  0.00     0.072 A 
HETATM    8  C   UNL     1      43.435 -10.571  11.250  1.00  0.00     0.102 C 
HETATM    9  N   UNL     1      44.116 -11.428  11.645  1.00  0.00    -0.191 NA
ENDROOT
BRANCH   1  10
HETATM   10  N   UNL     1      43.771  -9.484   8.636  1.00  0.00    -0.378 N 
HETATM   11  C   UNL     1      43.491 -10.414   7.539  1.00  0.00     0.129 C 
HETATM   12  C   UNL     1      44.663 -11.411   7.508  1.00  0.00     0.032 C 
HETATM   13  C   UNL     1      45.969 -10.648   7.224  1.00  0.00     0.009 C 
HETATM   14  C   UNL     1      46.183  -9.547   8.273  1.00  0.00     0.020 C 
HETATM   15  C   UNL     1      44.954  -8.640   8.427  1.00  0.00     0.123 C 
BRANCH  12  16
HETATM   16  C   UNL     1      44.381 -12.558   6.525  1.00  0.00     0.278 C 
BRANCH  16  17
HETATM   17  N   UNL     1      43.043 -13.182   6.642  1.00  0.00     0.092 N 
HETATM   18  C   UNL     1      43.141 -14.545   7.211  1.00  0.00     0.300 C 
HETATM   19  C   UNL     1      43.675 -15.626   6.240  1.00  0.00     0.264 C 
HETATM   20  N   UNL     1      42.890 -15.613   4.938  1.00  0.00    -0.072 N 
HETATM   21  C   UNL     1      43.395 -16.626   3.958  1.00  0.00     0.269 C 
HETATM   22  H   UNL     1      41.921 -15.864   5.172  1.00  0.00     0.279 HD
HETATM   23  C   UNL     1      42.837 -14.216   4.329  1.00  0.00     0.264 C 
HETATM   24  C   UNL     1      42.280 -13.230   5.375  1.00  0.00     0.300 C 
ENDBRANCH  16  17
ENDBRANCH  12  16
ENDBRANCH   1  10
TORSDOF 3
ENDMDL
MODEL 6
REMARK VINA RESULT:      -7.0      4.957      7.581
REMARK  3 active torsions:
REMARK  status: ('A' for Active; 'I' for Inactive)
REMARK    1  A    between atoms: N_6  and  C_7 
REMARK    2  A    between atoms: C_7  and  C_8 
REMARK    3  A    between atoms: N_10  and  C_11 
ROOT
HETATM    1  C   UNL     1      41.835 -14.701   4.333  1.00  0.00     0.073 A 
HETATM    2  C   UNL     1      41.286 -14.878   5.626  1.00  0.00     0.062 A 
HETATM    3 CL   UNL     1      40.147 -13.777   6.327  1.00  0.00    -0.082 Cl
HETATM    4  C   UNL     1      41.578 -16.015   6.396  1.00  0.00     0.026 A 
HETATM    5  C   UNL     1      42.409 -17.015   5.903  1.00  0.00     0.003 A 
HETATM    6  C   UNL     1      42.942 -16.890   4.626  1.00  0.00     0.025 A 
HETATM    7  C   UNL     1      42.659 -15.756   3.845  1.00  0.00     0.072 A 
HETATM    8  C   UNL     1      43.234 -15.706   2.524  1.00  0.00     0.102 C 
HETATM    9  N   UNL     1      43.640 -15.700   1.434  1.00  0.00    -0.191 NA
ENDROOT
BRANCH   1  10
HETATM   10  N   UNL     1      41.632 -13.574   3.532  1.00  0.00    -0.378 N 
HETATM   11  C   UNL     1      40.394 -13.508   2.751  1.00  0.00     0.129 C 
HETATM   12  C   UNL     1      40.768 -12.877   1.399  1.00  0.00     0.032 C 
HETATM   13  C   UNL     1      41.310 -11.456   1.636  1.00  0.00     0.009 C 
HETATM   14  C   UNL     1      42.506 -11.495   2.599  1.00  0.00     0.020 C 
HETATM   15  C   UNL     1      42.192 -12.264   3.889  1.00  0.00     0.123 C 
BRANCH  12  16
HETATM   16  C   UNL     1      39.587 -12.940   0.418  1.00  0.00     0.278 C 
BRANCH  16  17
HETATM   17  N   UNL     1      39.725 -12.108  -0.799  1.00  0.00     0.092 N 
HETATM   18  C   UNL     1      38.401 -11.790  -1.378  1.00  0.00     0.300 C 
HETATM   19  C   UNL     1      37.713 -12.957  -2.129  1.00  0.00     0.264 C 
HETATM   20  N   UNL     1      38.653 -13.557  -3.163  1.00  0.00    -0.072 N 
HETATM   21  C   UNL     1      38.035 -14.711  -3.891  1.00  0.00     0.269 C 
HETATM   22  H   UNL     1      38.844 -12.821  -3.854  1.00  0.00     0.279 HD
HETATM   23  C   UNL     1      39.998 -13.931  -2.549  1.00  0.00     0.264 C 
HETATM   24  C   UNL     1      40.592 -12.696  -1.845  1.00  0.00     0.300 C 
ENDBRANCH  16  17
ENDBRANCH  12  16
ENDBRANCH   1  10
TORSDOF 3
ENDMDL
MODEL 7
REMARK VINA RESULT:      -7.0      3.572      8.767
REMARK  3 active torsions:
REMARK  status: ('A' for Active; 'I' for Inactive)
REMARK    1  A    between atoms: N_6  and  C_7 
REMARK    2  A    between atoms: C_7  and  C_8 
REMARK    3  A    between atoms: N_10  and  C_11 
ROOT
HETATM    1  C   UNL     1      43.450  -8.503   9.918  1.00  0.00     0.073 A 
HETATM    2  C   UNL     1      42.904  -7.203   9.800  1.00  0.00     0.062 A 
HETATM    3 CL   UNL     1      42.779  -6.365   8.289  1.00  0.00    -0.082 Cl
HETATM    4  C   UNL     1      42.352  -6.537  10.905  1.00  0.00     0.026 A 
HETATM    5  C   UNL     1      42.313  -7.145  12.156  1.00  0.00     0.003 A 
HETATM    6  C   UNL     1      42.812  -8.434  12.303  1.00  0.00     0.025 A 
HETATM    7  C   UNL     1      43.368  -9.110  11.204  1.00  0.00     0.072 A 
HETATM    8  C   UNL     1      43.849 -10.450  11.431  1.00  0.00     0.102 C 
HETATM    9  N   UNL     1      44.172 -11.555  11.599  1.00  0.00    -0.191 NA
ENDROOT
BRANCH   1  10
HETATM   10  N   UNL     1      44.063  -9.206   8.875  1.00  0.00    -0.378 N 
HETATM   11  C   UNL     1      43.194  -9.836   7.878  1.00  0.00     0.129 C 
HETATM   12  C   UNL     1      43.852 -11.181   7.520  1.00  0.00     0.032 C 
HETATM   13  C   UNL     1      45.240 -10.918   6.910  1.00  0.00     0.009 C 
HETATM   14  C   UNL     1      46.104 -10.100   7.881  1.00  0.00     0.020 C 
HETATM   15  C   UNL     1      45.390  -8.832   8.372  1.00  0.00     0.123 C 
BRANCH  12  16
HETATM   16  C   UNL     1      42.927 -12.025   6.630  1.00  0.00     0.278 C 
BRANCH  16  17
HETATM   17  N   UNL     1      43.585 -13.129   5.894  1.00  0.00     0.092 N 
HETATM   18  C   UNL     1      42.882 -13.412   4.623  1.00  0.00     0.300 C 
HETATM   19  C   UNL     1      41.540 -14.171   4.768  1.00  0.00     0.264 C 
HETATM   20  N   UNL     1      41.722 -15.427   5.605  1.00  0.00    -0.072 N 
HETATM   21  C   UNL     1      40.439 -16.175   5.795  1.00  0.00     0.269 C 
HETATM   22  H   UNL     1      42.364 -16.039   5.088  1.00  0.00     0.279 HD
HETATM   23  C   UNL     1      42.400 -15.120   6.937  1.00  0.00     0.264 C 
HETATM   24  C   UNL     1      43.725 -14.381   6.670  1.00  0.00     0.300 C 
ENDBRANCH  16  17
ENDBRANCH  12  16
ENDBRANCH   1  10
TORSDOF 3
ENDMDL
MODEL 8
REMARK VINA RESULT:      -6.6      3.302      8.708
REMARK  3 active torsions:
REMARK  status: ('A' for Active; 'I' for Inactive)
REMARK    1  A    between atoms: N_6  and  C_7 
REMARK    2  A    between atoms: C_7  and  C_8 
REMARK    3  A    between atoms: N_10  and  C_11 
ROOT
HETATM    1  C   UNL     1      42.916  -9.132   9.696  1.00  0.00     0.073 A 
HETATM    2  C   UNL     1      42.669  -9.729  10.955  1.00  0.00     0.062 A 
HETATM    3 CL   UNL     1      43.716 -10.917  11.658  1.00  0.00    -0.082 Cl
HETATM    4  C   UNL     1      41.586  -9.331  11.755  1.00  0.00     0.026 A 
HETATM    5  C   UNL     1      40.726  -8.322  11.337  1.00  0.00     0.003 A 
HETATM    6  C   UNL     1      40.954  -7.691  10.120  1.00  0.00     0.025 A 
HETATM    7  C   UNL     1      42.035  -8.081   9.310  1.00  0.00     0.072 A 
HETATM    8  C   UNL     1      42.218  -7.369   8.070  1.00  0.00     0.102 C 
HETATM    9  N   UNL     1      42.406  -6.747   7.104  1.00  0.00    -0.191 NA
ENDROOT
BRANCH   1  10
HETATM   10  N   UNL     1      43.941  -9.511   8.824  1.00  0.00    -0.378 N 
HETATM   11  C   UNL     1      43.585 -10.361   7.685  1.00  0.00     0.129 C 
HETATM   12  C   UNL     1      44.745 -11.357   7.509  1.00  0.00     0.032 C 
HETATM   13  C   UNL     1      46.035 -10.579   7.195  1.00  0.00     0.009 C 
HETATM   14  C   UNL     1      46.324  -9.555   8.302  1.00  0.00     0.020 C 
HETATM   15  C   UNL     1      45.114  -8.658   8.598  1.00  0.00     0.123 C 
BRANCH  12  16
HETATM   16  C   UNL     1      44.393 -12.432   6.468  1.00  0.00     0.278 C 
BRANCH  16  17
HETATM   17  N   UNL     1      43.071 -13.075   6.641  1.00  0.00     0.092 N 
HETATM   18  C   UNL     1      43.213 -14.436   7.207  1.00  0.00     0.300 C 
HETATM   19  C   UNL     1      43.721 -15.511   6.216  1.00  0.00     0.264 C 
HETATM   20  N   UNL     1      42.883 -15.511   4.948  1.00  0.00    -0.072 N 
HETATM   21  C   UNL     1      43.362 -16.518   3.948  1.00  0.00     0.269 C 
HETATM   22  H   UNL     1      41.929 -15.776   5.222  1.00  0.00     0.279 HD
HETATM   23  C   UNL     1      42.784 -14.115   4.340  1.00  0.00     0.264 C 
HETATM   24  C   UNL     1      42.256 -13.137   5.407  1.00  0.00     0.300 C 
ENDBRANCH  16  17
ENDBRANCH  12  16
ENDBRANCH   1  10
TORSDOF 3
ENDMDL
MODEL 9
REMARK VINA RESULT:      -6.4      4.425      6.039
REMARK  3 active torsions:
REMARK  status: ('A' for Active; 'I' for Inactive)
REMARK    1  A    between atoms: N_6  and  C_7 
REMARK    2  A    between atoms: C_7  and  C_8 
REMARK    3  A    between atoms: N_10  and  C_11 
ROOT
HETATM    1  C   UNL     1      42.830 -15.774   4.137  1.00  0.00     0.073 A 
HETATM    2  C   UNL     1      43.672 -16.911   4.167  1.00  0.00     0.062 A 
HETATM    3 CL   UNL     1      43.826 -18.007   2.834  1.00  0.00    -0.082 Cl
HETATM    4  C   UNL     1      44.504 -17.178   5.265  1.00  0.00     0.026 A 
HETATM    5  C   UNL     1      44.535 -16.319   6.359  1.00  0.00     0.003 A 
HETATM    6  C   UNL     1      43.745 -15.177   6.352  1.00  0.00     0.025 A 
HETATM    7  C   UNL     1      42.906 -14.900   5.258  1.00  0.00     0.072 A 
HETATM    8  C   UNL     1      42.129 -13.687   5.316  1.00  0.00     0.102 C 
HETATM    9  N   UNL     1      41.556 -12.674   5.333  1.00  0.00    -0.191 NA
ENDROOT
BRANCH   1  10
HETATM   10  N   UNL     1      41.938 -15.472   3.103  1.00  0.00    -0.378 N 
HETATM   11  C   UNL     1      42.380 -14.523   2.079  1.00  0.00     0.129 C 
HETATM   12  C   UNL     1      41.152 -13.666   1.724  1.00  0.00     0.032 C 
HETATM   13  C   UNL     1      40.050 -14.574   1.151  1.00  0.00     0.009 C 
HETATM   14  C   UNL     1      39.702 -15.687   2.150  1.00  0.00     0.020 C 
HETATM   15  C   UNL     1      40.944 -16.447   2.635  1.00  0.00     0.123 C 
BRANCH  12  16
HETATM   16  C   UNL     1      41.544 -12.499   0.803  1.00  0.00     0.278 C 
BRANCH  16  17
HETATM   17  N   UNL     1      41.174 -11.151   1.293  1.00  0.00     0.092 N 
HETATM   18  C   UNL     1      39.713 -11.044   1.498  1.00  0.00     0.300 C 
HETATM   19  C   UNL     1      38.874 -10.917   0.204  1.00  0.00     0.264 C 
HETATM   20  N   UNL     1      39.405  -9.793  -0.672  1.00  0.00    -0.072 N 
HETATM   21  C   UNL     1      38.639  -9.656  -1.951  1.00  0.00     0.269 C 
HETATM   22  H   UNL     1      39.283  -8.921  -0.143  1.00  0.00     0.279 HD
HETATM   23  C   UNL     1      40.902  -9.938  -0.923  1.00  0.00     0.264 C 
HETATM   24  C   UNL     1      41.634 -10.041   0.429  1.00  0.00     0.300 C 
ENDBRANCH  16  17
ENDBRANCH  12  16
ENDBRANCH   1  10
TORSDOF 3
ENDMDL
MODEL 10
REMARK VINA RESULT:      -6.3      3.653      7.789
REMARK  3 active torsions:
REMARK  status: ('A' for Active; 'I' for Inactive)
REMARK    1  A    between atoms: N_6  and  C_7 
REMARK    2  A    between atoms: C_7  and  C_8 
REMARK    3  A    between atoms: N_10  and  C_11 
ROOT
HETATM    1  C   UNL     1      44.106 -10.562   7.093  1.00  0.00     0.073 A 
HETATM    2  C   UNL     1      45.431 -10.218   7.453  1.00  0.00     0.062 A 
HETATM    3 CL   UNL     1      46.821 -11.058   6.849  1.00  0.00    -0.082 Cl
HETATM    4  C   UNL     1      45.705  -9.111   8.271  1.00  0.00     0.026 A 
HETATM    5  C   UNL     1      44.675  -8.305   8.745  1.00  0.00     0.003 A 
HETATM    6  C   UNL     1      43.364  -8.593   8.388  1.00  0.00     0.025 A 
HETATM    7  C   UNL     1      43.077  -9.701   7.570  1.00  0.00     0.072 A 
HETATM    8  C   UNL     1      41.695  -9.925   7.229  1.00  0.00     0.102 C 
HETATM    9  N   UNL     1      40.588 -10.064   6.897  1.00  0.00    -0.191 NA
ENDROOT
BRANCH   1  10
HETATM   10  N   UNL     1      43.755 -11.678   6.328  1.00  0.00    -0.378 N 
HETATM   11  C   UNL     1      43.847 -11.559   4.870  1.00  0.00     0.129 C 
HETATM   12  C   UNL     1      42.644 -12.328   4.296  1.00  0.00     0.032 C 
HETATM   13  C   UNL     1      42.747 -13.807   4.706  1.00  0.00     0.009 C 
HETATM   14  C   UNL     1      42.830 -13.934   6.234  1.00  0.00     0.020 C 
HETATM   15  C   UNL     1      43.927 -13.045   6.835  1.00  0.00     0.123 C 
BRANCH  12  16
HETATM   16  C   UNL     1      42.522 -12.104   2.781  1.00  0.00     0.278 C 
BRANCH  16  17
HETATM   17  N   UNL     1      41.252 -11.491   2.329  1.00  0.00     0.092 N 
HETATM   18  C   UNL     1      40.094 -12.333   2.705  1.00  0.00     0.300 C 
HETATM   19  C   UNL     1      39.902 -13.609   1.850  1.00  0.00     0.264 C 
HETATM   20  N   UNL     1      39.894 -13.266   0.369  1.00  0.00    -0.072 N 
HETATM   21  C   UNL     1      39.741 -14.479  -0.496  1.00  0.00     0.269 C 
HETATM   22  H   UNL     1      39.077 -12.665   0.206  1.00  0.00     0.279 HD
HETATM   23  C   UNL     1      41.117 -12.444  -0.024  1.00  0.00     0.264 C 
HETATM   24  C   UNL     1      41.198 -11.197   0.879  1.00  0.00     0.300 C 
ENDBRANCH  16  17
ENDBRANCH  12  16
ENDBRANCH   1  10
TORSDOF 3
ENDMDL
