MODEL 1
REMARK VINA RESULT:      -8.2      0.000      0.000
REMARK  6 active torsions:
REMARK  status: ('A' for Active; 'I' for Inactive)
REMARK    1  A    between atoms: C_2  and  O_3 
REMARK    2  A    between atoms: C_2  and  C_4 
REMARK    3  A    between atoms: C_6  and  N_7 
REMARK       I    between atoms: N_7  and  C_8 
REMARK    4  A    between atoms: C_8  and  C_9 
REMARK    5  A    between atoms: C_12  and  C_13 
REMARK    6  A    between atoms: C_18  and  C_19 
ROOT
HETATM    1  C   UNL     1      43.220 -13.832   5.979  1.00  0.00     0.096 A 
HETATM    2  C   UNL     1      42.224 -14.422   5.224  1.00  0.00     0.138 A 
HETATM    3  N   UNL     1      42.670 -15.691   4.944  1.00  0.00    -0.240 N 
HETATM    4  C   UNL     1      41.914 -16.700   4.225  1.00  0.00     0.221 C 
HETATM    5  C   UNL     1      40.445 -16.266   4.072  1.00  0.00     0.067 C 
HETATM    6  C   UNL     1      40.253 -14.764   3.794  1.00  0.00     0.125 C 
HETATM    7  N   UNL     1      41.014 -13.982   4.783  1.00  0.00    -0.365 N 
HETATM    8  N   UNL     1      43.882 -15.964   5.449  1.00  0.00    -0.181 NA
HETATM    9  C   UNL     1      44.234 -14.818   6.039  1.00  0.00     0.160 A 
HETATM   10  H   UNL     1      40.882 -12.976   4.652  1.00  0.00     0.162 HD
ENDROOT
BRANCH   1  11
HETATM   11  C   UNL     1      43.255 -12.522   6.608  1.00  0.00     0.261 C 
HETATM   12  N   UNL     1      44.411 -12.303   7.334  1.00  0.00    -0.323 N 
HETATM   13  H   UNL     1      45.104 -13.040   7.272  1.00  0.00     0.169 HD
HETATM   14  O   UNL     1      42.351 -11.717   6.423  1.00  0.00    -0.267 OA
BRANCH  12  15
HETATM   15  C   UNL     1      44.800 -11.127   8.005  1.00  0.00     0.035 A 
HETATM   16  C   UNL     1      44.209 -10.670   9.186  1.00  0.00     0.039 A 
HETATM   17  C   UNL     1      44.629  -9.471   9.790  1.00  0.00    -0.028 A 
HETATM   18  C   UNL     1      45.650  -8.727   9.182  1.00  0.00     0.010 A 
HETATM   19  C   UNL     1      46.257  -9.183   8.014  1.00  0.00     0.003 A 
HETATM   20  C   UNL     1      45.837 -10.381   7.433  1.00  0.00     0.029 A 
BRANCH  17  21
HETATM   21  C   UNL     1      43.951  -8.987  11.054  1.00  0.00     0.147 C 
HETATM   22  C   UNL     1      43.148 -10.089  11.730  1.00  0.00     0.044 C 
BRANCH  21  23
HETATM   23  O   UNL     1      43.081  -7.894  10.766  1.00  0.00    -0.391 OA
HETATM   24  H   UNL     1      42.474  -7.815  11.522  1.00  0.00     0.210 HD
ENDBRANCH  21  23
ENDBRANCH  17  21
ENDBRANCH  12  15
ENDBRANCH   1  11
BRANCH   4  25
HETATM   25  C   UNL     1      42.595 -17.051   2.920  1.00  0.00     0.409 C 
HETATM   26  F   UNL     1      43.204 -16.008   2.327  1.00  0.00    -0.169 F 
HETATM   27  F   UNL     1      43.517 -18.028   3.070  1.00  0.00    -0.169 F 
HETATM   28  F   UNL     1      41.681 -17.533   2.035  1.00  0.00    -0.169 F 
ENDBRANCH   4  25
BRANCH   6  29
HETATM   29  C   UNL     1      40.486 -14.368   2.354  1.00  0.00     0.005 A 
HETATM   30  S   UNL     1      41.452 -12.991   1.993  1.00  0.00    -0.104 SA
HETATM   31  C   UNL     1      41.252 -13.202   0.310  1.00  0.00     0.050 A 
HETATM   32  C   UNL     1      40.493 -14.311   0.016  1.00  0.00     0.008 A 
HETATM   33  C   UNL     1      40.063 -14.991   1.193  1.00  0.00     0.017 A 
ENDBRANCH   6  29
TORSDOF 6
ENDMDL
MODEL 2
REMARK VINA RESULT:      -8.2      1.899      3.053
REMARK  6 active torsions:
REMARK  status: ('A' for Active; 'I' for Inactive)
REMARK    1  A    between atoms: C_2  and  O_3 
REMARK    2  A    between atoms: C_2  and  C_4 
REMARK    3  A    between atoms: C_6  and  N_7 
REMARK       I    between atoms: N_7  and  C_8 
REMARK    4  A    between atoms: C_8  and  C_9 
REMARK    5  A    between atoms: C_12  and  C_13 
REMARK    6  A    between atoms: C_18  and  C_19 
ROOT
HETATM    1  C   UNL     1      42.124 -13.234   5.798  1.00  0.00     0.096 A 
HETATM    2  C   UNL     1      42.338 -13.784   4.548  1.00  0.00     0.138 A 
HETATM    3  N   UNL     1      41.096 -13.891   3.970  1.00  0.00    -0.240 N 
HETATM    4  C   UNL     1      40.843 -14.358   2.620  1.00  0.00     0.221 C 
HETATM    5  C   UNL     1      42.157 -14.442   1.823  1.00  0.00     0.067 C 
HETATM    6  C   UNL     1      43.362 -14.945   2.638  1.00  0.00     0.125 C 
HETATM    7  N   UNL     1      43.463 -14.175   3.889  1.00  0.00    -0.365 N 
HETATM    8  N   UNL     1      40.094 -13.464   4.754  1.00  0.00    -0.181 NA
HETATM    9  C   UNL     1      40.717 -13.107   5.881  1.00  0.00     0.160 A 
HETATM   10  H   UNL     1      44.276 -14.458   4.443  1.00  0.00     0.162 HD
ENDROOT
BRANCH   1  11
HETATM   11  C   UNL     1      43.086 -12.836   6.813  1.00  0.00     0.261 C 
HETATM   12  N   UNL     1      43.226 -11.465   6.916  1.00  0.00    -0.323 N 
HETATM   13  H   UNL     1      42.596 -10.923   6.333  1.00  0.00     0.169 HD
HETATM   14  O   UNL     1      43.635 -13.676   7.515  1.00  0.00    -0.267 OA
BRANCH  12  15
HETATM   15  C   UNL     1      44.012 -10.742   7.834  1.00  0.00     0.035 A 
HETATM   16  C   UNL     1      43.566 -10.339   9.096  1.00  0.00     0.039 A 
HETATM   17  C   UNL     1      44.395  -9.595   9.954  1.00  0.00    -0.028 A 
HETATM   18  C   UNL     1      45.684  -9.248   9.521  1.00  0.00     0.010 A 
HETATM   19  C   UNL     1      46.142  -9.659   8.271  1.00  0.00     0.003 A 
HETATM   20  C   UNL     1      45.311 -10.407   7.435  1.00  0.00     0.029 A 
BRANCH  17  21
HETATM   21  C   UNL     1      43.875  -9.149  11.304  1.00  0.00     0.147 C 
HETATM   22  C   UNL     1      43.042 -10.228  11.980  1.00  0.00     0.044 C 
BRANCH  21  23
HETATM   23  O   UNL     1      43.082  -7.971  11.169  1.00  0.00    -0.391 OA
HETATM   24  H   UNL     1      43.642  -7.307  10.732  1.00  0.00     0.210 HD
ENDBRANCH  21  23
ENDBRANCH  17  21
ENDBRANCH  12  15
ENDBRANCH   1  11
BRANCH   4  25
HETATM   25  C   UNL     1      40.048 -15.647   2.639  1.00  0.00     0.409 C 
HETATM   26  F   UNL     1      40.235 -16.417   1.552  1.00  0.00    -0.169 F 
HETATM   27  F   UNL     1      40.325 -16.402   3.726  1.00  0.00    -0.169 F 
HETATM   28  F   UNL     1      38.718 -15.370   2.707  1.00  0.00    -0.169 F 
ENDBRANCH   4  25
BRANCH   6  29
HETATM   29  C   UNL     1      43.409 -16.445   2.808  1.00  0.00     0.005 A 
HETATM   30  S   UNL     1      43.733 -17.119   4.359  1.00  0.00    -0.104 SA
HETATM   31  C   UNL     1      43.618 -18.717   3.768  1.00  0.00     0.050 A 
HETATM   32  C   UNL     1      43.311 -18.751   2.427  1.00  0.00     0.008 A 
HETATM   33  C   UNL     1      43.177 -17.443   1.878  1.00  0.00     0.017 A 
ENDBRANCH   6  29
TORSDOF 6
ENDMDL
MODEL 3
REMARK VINA RESULT:      -8.1      4.331      8.422
REMARK  6 active torsions:
REMARK  status: ('A' for Active; 'I' for Inactive)
REMARK    1  A    between atoms: C_2  and  O_3 
REMARK    2  A    between atoms: C_2  and  C_4 
REMARK    3  A    between atoms: C_6  and  N_7 
REMARK       I    between atoms: N_7  and  C_8 
REMARK    4  A    between atoms: C_8  and  C_9 
REMARK    5  A    between atoms: C_12  and  C_13 
REMARK    6  A    between atoms: C_18  and  C_19 
ROOT
HETATM    1  C   UNL     1      40.650 -12.810   3.533  1.00  0.00     0.096 A 
HETATM    2  C   UNL     1      40.786 -13.910   4.358  1.00  0.00     0.138 A 
HETATM    3  N   UNL     1      41.380 -13.446   5.506  1.00  0.00    -0.240 N 
HETATM    4  C   UNL     1      41.656 -14.246   6.684  1.00  0.00     0.221 C 
HETATM    5  C   UNL     1      40.937 -15.605   6.594  1.00  0.00     0.067 C 
HETATM    6  C   UNL     1      40.923 -16.222   5.184  1.00  0.00     0.125 C 
HETATM    7  N   UNL     1      40.446 -15.221   4.215  1.00  0.00    -0.365 N 
HETATM    8  N   UNL     1      41.652 -12.133   5.483  1.00  0.00    -0.181 NA
HETATM    9  C   UNL     1      41.249 -11.757   4.266  1.00  0.00     0.160 A 
HETATM   10  H   UNL     1      40.390 -15.607   3.269  1.00  0.00     0.162 HD
ENDROOT
BRANCH   1  11
HETATM   11  C   UNL     1      40.026 -12.702   2.225  1.00  0.00     0.261 C 
HETATM   12  N   UNL     1      40.906 -12.943   1.186  1.00  0.00    -0.323 N 
HETATM   13  H   UNL     1      41.837 -13.232   1.468  1.00  0.00     0.169 HD
HETATM   14  O   UNL     1      38.826 -12.481   2.122  1.00  0.00    -0.267 OA
BRANCH  12  15
HETATM   15  C   UNL     1      40.624 -12.991  -0.193  1.00  0.00     0.035 A 
HETATM   16  C   UNL     1      39.960 -14.050  -0.818  1.00  0.00     0.039 A 
HETATM   17  C   UNL     1      39.735 -14.046  -2.206  1.00  0.00    -0.028 A 
HETATM   18  C   UNL     1      40.198 -12.962  -2.966  1.00  0.00     0.010 A 
HETATM   19  C   UNL     1      40.846 -11.894  -2.349  1.00  0.00     0.003 A 
HETATM   20  C   UNL     1      41.052 -11.907  -0.969  1.00  0.00     0.029 A 
BRANCH  17  21
HETATM   21  C   UNL     1      39.037 -15.221  -2.859  1.00  0.00     0.147 C 
HETATM   22  C   UNL     1      37.925 -14.774  -3.798  1.00  0.00     0.044 C 
BRANCH  21  23
HETATM   23  O   UNL     1      38.484 -16.086  -1.869  1.00  0.00    -0.391 OA
HETATM   24  H   UNL     1      37.548 -15.841  -1.776  1.00  0.00     0.210 HD
ENDBRANCH  21  23
ENDBRANCH  17  21
ENDBRANCH  12  15
ENDBRANCH   1  11
BRANCH   4  25
HETATM   25  C   UNL     1      43.147 -14.351   6.924  1.00  0.00     0.409 C 
HETATM   26  F   UNL     1      43.865 -14.557   5.805  1.00  0.00    -0.169 F 
HETATM   27  F   UNL     1      43.645 -13.250   7.531  1.00  0.00    -0.169 F 
HETATM   28  F   UNL     1      43.409 -15.390   7.762  1.00  0.00    -0.169 F 
ENDBRANCH   4  25
BRANCH   6  29
HETATM   29  C   UNL     1      42.209 -16.916   4.802  1.00  0.00     0.005 A 
HETATM   30  S   UNL     1      43.027 -17.895   5.957  1.00  0.00    -0.104 SA
HETATM   31  C   UNL     1      44.268 -18.289   4.852  1.00  0.00     0.050 A 
HETATM   32  C   UNL     1      44.061 -17.717   3.618  1.00  0.00     0.008 A 
HETATM   33  C   UNL     1      42.868 -16.938   3.585  1.00  0.00     0.017 A 
ENDBRANCH   6  29
TORSDOF 6
ENDMDL
MODEL 4
REMARK VINA RESULT:      -8.1      5.644      7.898
REMARK  6 active torsions:
REMARK  status: ('A' for Active; 'I' for Inactive)
REMARK    1  A    between atoms: C_2  and  O_3 
REMARK    2  A    between atoms: C_2  and  C_4 
REMARK    3  A    between atoms: C_6  and  N_7 
REMARK       I    between atoms: N_7  and  C_8 
REMARK    4  A    between atoms: C_8  and  C_9 
REMARK    5  A    between atoms: C_12  and  C_13 
REMARK    6  A    between atoms: C_18  and  C_19 
ROOT
HETATM    1  C   UNL     1      41.449 -13.579   2.572  1.00  0.00     0.096 A 
HETATM    2  C   UNL     1      41.119 -12.881   1.425  1.00  0.00     0.138 A 
HETATM    3  N   UNL     1      40.109 -12.023   1.788  1.00  0.00    -0.240 N 
HETATM    4  C   UNL     1      39.495 -11.043   0.912  1.00  0.00     0.221 C 
HETATM    5  C   UNL     1      40.312 -10.889  -0.383  1.00  0.00     0.067 C 
HETATM    6  C   UNL     1      40.892 -12.206  -0.928  1.00  0.00     0.125 C 
HETATM    7  N   UNL     1      41.600 -12.914   0.152  1.00  0.00    -0.365 N 
HETATM    8  N   UNL     1      39.752 -12.119   3.077  1.00  0.00    -0.181 NA
HETATM    9  C   UNL     1      40.536 -13.097   3.541  1.00  0.00     0.160 A 
HETATM   10  H   UNL     1      42.030 -13.781  -0.182  1.00  0.00     0.162 HD
ENDROOT
BRANCH   1  11
HETATM   11  C   UNL     1      42.495 -14.564   2.790  1.00  0.00     0.261 C 
HETATM   12  N   UNL     1      42.101 -15.592   3.627  1.00  0.00    -0.323 N 
HETATM   13  H   UNL     1      41.128 -15.565   3.914  1.00  0.00     0.169 HD
HETATM   14  O   UNL     1      43.571 -14.471   2.213  1.00  0.00    -0.267 OA
BRANCH  12  15
HETATM   15  C   UNL     1      42.833 -16.739   3.991  1.00  0.00     0.035 A 
HETATM   16  C   UNL     1      43.042 -17.832   3.146  1.00  0.00     0.039 A 
HETATM   17  C   UNL     1      43.761 -18.960   3.583  1.00  0.00    -0.028 A 
HETATM   18  C   UNL     1      44.260 -18.980   4.894  1.00  0.00     0.010 A 
HETATM   19  C   UNL     1      44.069 -17.888   5.738  1.00  0.00     0.003 A 
HETATM   20  C   UNL     1      43.364 -16.771   5.285  1.00  0.00     0.029 A 
BRANCH  17  21
HETATM   21  C   UNL     1      43.949 -20.141   2.655  1.00  0.00     0.147 C 
HETATM   22  C   UNL     1      42.831 -20.242   1.627  1.00  0.00     0.044 C 
BRANCH  21  23
HETATM   23  O   UNL     1      44.003 -21.356   3.398  1.00  0.00    -0.391 OA
HETATM   24  H   UNL     1      44.933 -21.640   3.402  1.00  0.00     0.210 HD
ENDBRANCH  21  23
ENDBRANCH  17  21
ENDBRANCH  12  15
ENDBRANCH   1  11
BRANCH   4  25
HETATM   25  C   UNL     1      38.034 -11.369   0.685  1.00  0.00     0.409 C 
HETATM   26  F   UNL     1      37.791 -12.678   0.497  1.00  0.00    -0.169 F 
HETATM   27  F   UNL     1      37.253 -10.953   1.709  1.00  0.00    -0.169 F 
HETATM   28  F   UNL     1      37.580 -10.717  -0.419  1.00  0.00    -0.169 F 
ENDBRANCH   4  25
BRANCH   6  29
HETATM   29  C   UNL     1      39.898 -13.047  -1.696  1.00  0.00     0.005 A 
HETATM   30  S   UNL     1      38.939 -12.323  -2.928  1.00  0.00    -0.104 SA
HETATM   31  C   UNL     1      38.155 -13.797  -3.284  1.00  0.00     0.050 A 
HETATM   32  C   UNL     1      38.624 -14.833  -2.509  1.00  0.00     0.008 A 
HETATM   33  C   UNL     1      39.639 -14.403  -1.604  1.00  0.00     0.017 A 
ENDBRANCH   6  29
TORSDOF 6
ENDMDL
MODEL 5
REMARK VINA RESULT:      -7.9      4.442      9.061
REMARK  6 active torsions:
REMARK  status: ('A' for Active; 'I' for Inactive)
REMARK    1  A    between atoms: C_2  and  O_3 
REMARK    2  A    between atoms: C_2  and  C_4 
REMARK    3  A    between atoms: C_6  and  N_7 
REMARK       I    between atoms: N_7  and  C_8 
REMARK    4  A    between atoms: C_8  and  C_9 
REMARK    5  A    between atoms: C_12  and  C_13 
REMARK    6  A    between atoms: C_18  and  C_19 
ROOT
HETATM    1  C   UNL     1      42.936 -11.556   6.595  1.00  0.00     0.096 A 
HETATM    2  C   UNL     1      43.004 -10.366   7.296  1.00  0.00     0.138 A 
HETATM    3  N   UNL     1      44.132 -10.456   8.075  1.00  0.00    -0.240 N 
HETATM    4  C   UNL     1      44.638  -9.401   8.932  1.00  0.00     0.221 C 
HETATM    5  C   UNL     1      43.918  -8.073   8.636  1.00  0.00     0.067 C 
HETATM    6  C   UNL     1      42.415  -8.219   8.339  1.00  0.00     0.125 C 
HETATM    7  N   UNL     1      42.217  -9.256   7.312  1.00  0.00    -0.365 N 
HETATM    8  N   UNL     1      44.792 -11.616   7.943  1.00  0.00    -0.181 NA
HETATM    9  C   UNL     1      44.038 -12.301   7.077  1.00  0.00     0.160 A 
HETATM   10  H   UNL     1      41.230  -9.357   7.062  1.00  0.00     0.162 HD
ENDROOT
BRANCH   1  11
HETATM   11  C   UNL     1      41.990 -11.979   5.576  1.00  0.00     0.261 C 
HETATM   12  N   UNL     1      42.339 -13.177   4.980  1.00  0.00    -0.323 N 
HETATM   13  H   UNL     1      43.154 -13.634   5.377  1.00  0.00     0.169 HD
HETATM   14  O   UNL     1      40.975 -11.330   5.358  1.00  0.00    -0.267 OA
BRANCH  12  15
HETATM   15  C   UNL     1      41.619 -13.905   4.014  1.00  0.00     0.035 A 
HETATM   16  C   UNL     1      41.325 -13.425   2.734  1.00  0.00     0.039 A 
HETATM   17  C   UNL     1      40.576 -14.195   1.826  1.00  0.00    -0.028 A 
HETATM   18  C   UNL     1      40.112 -15.457   2.226  1.00  0.00     0.010 A 
HETATM   19  C   UNL     1      40.414 -15.949   3.495  1.00  0.00     0.003 A 
HETATM   20  C   UNL     1      41.168 -15.178   4.380  1.00  0.00     0.029 A 
BRANCH  17  21
HETATM   21  C   UNL     1      40.251 -13.638   0.456  1.00  0.00     0.147 C 
HETATM   22  C   UNL     1      39.762 -14.718  -0.498  1.00  0.00     0.044 C 
BRANCH  21  23
HETATM   23  O   UNL     1      41.398 -13.008  -0.111  1.00  0.00    -0.391 OA
HETATM   24  H   UNL     1      41.723 -12.374   0.551  1.00  0.00     0.210 HD
ENDBRANCH  21  23
ENDBRANCH  17  21
ENDBRANCH  12  15
ENDBRANCH   1  11
BRANCH   4  25
HETATM   25  C   UNL     1      44.588  -9.820  10.386  1.00  0.00     0.409 C 
HETATM   26  F   UNL     1      44.455  -8.793  11.244  1.00  0.00    -0.169 F 
HETATM   27  F   UNL     1      43.581 -10.689  10.633  1.00  0.00    -0.169 F 
HETATM   28  F   UNL     1      45.733 -10.472  10.720  1.00  0.00    -0.169 F 
ENDBRANCH   4  25
BRANCH   6  29
HETATM   29  C   UNL     1      41.554  -8.372   9.572  1.00  0.00     0.005 A 
HETATM   30  S   UNL     1      41.560  -7.142  10.775  1.00  0.00    -0.104 SA
HETATM   31  C   UNL     1      40.433  -7.983  11.744  1.00  0.00     0.050 A 
HETATM   32  C   UNL     1      40.031  -9.163  11.161  1.00  0.00     0.008 A 
HETATM   33  C   UNL     1      40.666  -9.380   9.903  1.00  0.00     0.017 A 
ENDBRANCH   6  29
TORSDOF 6
ENDMDL
MODEL 6
REMARK VINA RESULT:      -7.8      4.287      8.426
REMARK  6 active torsions:
REMARK  status: ('A' for Active; 'I' for Inactive)
REMARK    1  A    between atoms: C_2  and  O_3 
REMARK    2  A    between atoms: C_2  and  C_4 
REMARK    3  A    between atoms: C_6  and  N_7 
REMARK       I    between atoms: N_7  and  C_8 
REMARK    4  A    between atoms: C_8  and  C_9 
REMARK    5  A    between atoms: C_12  and  C_13 
REMARK    6  A    between atoms: C_18  and  C_19 
ROOT
HETATM    1  C   UNL     1      40.373 -12.764   3.485  1.00  0.00     0.096 A 
HETATM    2  C   UNL     1      40.671 -13.822   4.323  1.00  0.00     0.138 A 
HETATM    3  N   UNL     1      41.501 -13.310   5.290  1.00  0.00    -0.240 N 
HETATM    4  C   UNL     1      42.014 -14.052   6.426  1.00  0.00     0.221 C 
HETATM    5  C   UNL     1      41.279 -15.397   6.568  1.00  0.00     0.067 C 
HETATM    6  C   UNL     1      40.959 -16.089   5.231  1.00  0.00     0.125 C 
HETATM    7  N   UNL     1      40.296 -15.131   4.330  1.00  0.00    -0.365 N 
HETATM    8  N   UNL     1      41.775 -12.006   5.136  1.00  0.00    -0.181 NA
HETATM    9  C   UNL     1      41.124 -11.687   4.013  1.00  0.00     0.160 A 
HETATM   10  H   UNL     1      40.035 -15.565   3.441  1.00  0.00     0.162 HD
ENDROOT
BRANCH   1  11
HETATM   11  C   UNL     1      39.485 -12.713   2.335  1.00  0.00     0.261 C 
HETATM   12  N   UNL     1      40.076 -13.179   1.176  1.00  0.00    -0.323 N 
HETATM   13  H   UNL     1      41.009 -13.560   1.291  1.00  0.00     0.169 HD
HETATM   14  O   UNL     1      38.324 -12.344   2.459  1.00  0.00    -0.267 OA
BRANCH  12  15
HETATM   15  C   UNL     1      39.486 -13.335  -0.094  1.00  0.00     0.035 A 
HETATM   16  C   UNL     1      38.741 -12.342  -0.735  1.00  0.00     0.039 A 
HETATM   17  C   UNL     1      38.155 -12.573  -1.993  1.00  0.00    -0.028 A 
HETATM   18  C   UNL     1      38.319 -13.828  -2.597  1.00  0.00     0.010 A 
HETATM   19  C   UNL     1      39.074 -14.819  -1.972  1.00  0.00     0.003 A 
HETATM   20  C   UNL     1      39.659 -14.570  -0.729  1.00  0.00     0.029 A 
BRANCH  17  21
HETATM   21  C   UNL     1      37.331 -11.487  -2.651  1.00  0.00     0.147 C 
HETATM   22  C   UNL     1      36.802 -10.479  -1.641  1.00  0.00     0.044 C 
BRANCH  21  23
HETATM   23  O   UNL     1      36.228 -12.056  -3.354  1.00  0.00    -0.391 OA
HETATM   24  H   UNL     1      36.511 -12.163  -4.278  1.00  0.00     0.210 HD
ENDBRANCH  21  23
ENDBRANCH  17  21
ENDBRANCH  12  15
ENDBRANCH   1  11
BRANCH   4  25
HETATM   25  C   UNL     1      43.521 -14.176   6.349  1.00  0.00     0.409 C 
HETATM   26  F   UNL     1      44.180 -13.093   6.800  1.00  0.00    -0.169 F 
HETATM   27  F   UNL     1      43.982 -15.247   7.035  1.00  0.00    -0.169 F 
HETATM   28  F   UNL     1      43.906 -14.366   5.059  1.00  0.00    -0.169 F 
ENDBRANCH   4  25
BRANCH   6  29
HETATM   29  C   UNL     1      42.127 -16.830   4.623  1.00  0.00     0.005 A 
HETATM   30  S   UNL     1      43.106 -17.840   5.615  1.00  0.00    -0.104 SA
HETATM   31  C   UNL     1      44.108 -18.279   4.304  1.00  0.00     0.050 A 
HETATM   32  C   UNL     1      43.700 -17.698   3.125  1.00  0.00     0.008 A 
HETATM   33  C   UNL     1      42.550 -16.875   3.306  1.00  0.00     0.017 A 
ENDBRANCH   6  29
TORSDOF 6
ENDMDL
MODEL 7
REMARK VINA RESULT:      -7.8      5.601      8.311
REMARK  6 active torsions:
REMARK  status: ('A' for Active; 'I' for Inactive)
REMARK    1  A    between atoms: C_2  and  O_3 
REMARK    2  A    between atoms: C_2  and  C_4 
REMARK    3  A    between atoms: C_6  and  N_7 
REMARK       I    between atoms: N_7  and  C_8 
REMARK    4  A    between atoms: C_8  and  C_9 
REMARK    5  A    between atoms: C_12  and  C_13 
REMARK    6  A    between atoms: C_18  and  C_19 
ROOT
HETATM    1  C   UNL     1      40.192 -14.332   0.984  1.00  0.00     0.096 A 
HETATM    2  C   UNL     1      39.369 -13.235   1.163  1.00  0.00     0.138 A 
HETATM    3  N   UNL     1      39.239 -12.659  -0.078  1.00  0.00    -0.240 N 
HETATM    4  C   UNL     1      38.405 -11.512  -0.379  1.00  0.00     0.221 C 
HETATM    5  C   UNL     1      37.463 -11.204   0.799  1.00  0.00     0.067 C 
HETATM    6  C   UNL     1      38.102 -11.394   2.187  1.00  0.00     0.125 C 
HETATM    7  N   UNL     1      38.741 -12.719   2.255  1.00  0.00    -0.365 N 
HETATM    8  N   UNL     1      39.924 -13.289  -1.043  1.00  0.00    -0.181 NA
HETATM    9  C   UNL     1      40.538 -14.279  -0.388  1.00  0.00     0.160 A 
HETATM   10  H   UNL     1      39.147 -12.896   3.177  1.00  0.00     0.162 HD
ENDROOT
BRANCH   1  11
HETATM   11  C   UNL     1      40.611 -15.343   1.940  1.00  0.00     0.261 C 
HETATM   12  N   UNL     1      41.969 -15.601   1.892  1.00  0.00    -0.323 N 
HETATM   13  H   UNL     1      42.497 -15.008   1.261  1.00  0.00     0.169 HD
HETATM   14  O   UNL     1      39.807 -15.834   2.722  1.00  0.00    -0.267 OA
BRANCH  12  15
HETATM   15  C   UNL     1      42.715 -16.463   2.719  1.00  0.00     0.035 A 
HETATM   16  C   UNL     1      43.036 -17.781   2.383  1.00  0.00     0.039 A 
HETATM   17  C   UNL     1      43.762 -18.598   3.269  1.00  0.00    -0.028 A 
HETATM   18  C   UNL     1      44.154 -18.073   4.509  1.00  0.00     0.010 A 
HETATM   19  C   UNL     1      43.852 -16.755   4.845  1.00  0.00     0.003 A 
HETATM   20  C   UNL     1      43.141 -15.953   3.950  1.00  0.00     0.029 A 
BRANCH  17  21
HETATM   21  C   UNL     1      44.073 -20.030   2.890  1.00  0.00     0.147 C 
HETATM   22  C   UNL     1      43.367 -20.448   1.608  1.00  0.00     0.044 C 
BRANCH  21  23
HETATM   23  O   UNL     1      43.687 -20.918   3.938  1.00  0.00    -0.391 OA
HETATM   24  H   UNL     1      42.818 -21.278   3.692  1.00  0.00     0.210 HD
ENDBRANCH  21  23
ENDBRANCH  17  21
ENDBRANCH  12  15
ENDBRANCH   1  11
BRANCH   4  25
HETATM   25  C   UNL     1      39.250 -10.335  -0.819  1.00  0.00     0.409 C 
HETATM   26  F   UNL     1      40.439 -10.256  -0.195  1.00  0.00    -0.169 F 
HETATM   27  F   UNL     1      39.488 -10.346  -2.150  1.00  0.00    -0.169 F 
HETATM   28  F   UNL     1      38.591  -9.172  -0.568  1.00  0.00    -0.169 F 
ENDBRANCH   4  25
BRANCH   6  29
HETATM   29  C   UNL     1      38.975 -10.242   2.628  1.00  0.00     0.005 A 
HETATM   30  S   UNL     1      40.567 -10.550   3.205  1.00  0.00    -0.104 SA
HETATM   31  C   UNL     1      40.869  -8.891   3.469  1.00  0.00     0.050 A 
HETATM   32  C   UNL     1      39.800  -8.106   3.103  1.00  0.00     0.008 A 
HETATM   33  C   UNL     1      38.715  -8.883   2.604  1.00  0.00     0.017 A 
ENDBRANCH   6  29
TORSDOF 6
ENDMDL
MODEL 8
REMARK VINA RESULT:      -7.8      5.598      7.789
REMARK  6 active torsions:
REMARK  status: ('A' for Active; 'I' for Inactive)
REMARK    1  A    between atoms: C_2  and  O_3 
REMARK    2  A    between atoms: C_2  and  C_4 
REMARK    3  A    between atoms: C_6  and  N_7 
REMARK       I    between atoms: N_7  and  C_8 
REMARK    4  A    between atoms: C_8  and  C_9 
REMARK    5  A    between atoms: C_12  and  C_13 
REMARK    6  A    between atoms: C_18  and  C_19 
ROOT
HETATM    1  C   UNL     1      40.646 -14.013   0.648  1.00  0.00     0.096 A 
HETATM    2  C   UNL     1      40.063 -12.763   0.557  1.00  0.00     0.138 A 
HETATM    3  N   UNL     1      39.153 -12.849  -0.469  1.00  0.00    -0.240 N 
HETATM    4  C   UNL     1      38.256 -11.785  -0.878  1.00  0.00     0.221 C 
HETATM    5  C   UNL     1      38.249 -10.653   0.166  1.00  0.00     0.067 C 
HETATM    6  C   UNL     1      39.626 -10.354   0.785  1.00  0.00     0.125 C 
HETATM    7  N   UNL     1      40.234 -11.609   1.259  1.00  0.00    -0.365 N 
HETATM    8  N   UNL     1      39.111 -14.053  -1.057  1.00  0.00    -0.181 NA
HETATM    9  C   UNL     1      40.051 -14.746  -0.407  1.00  0.00     0.160 A 
HETATM   10  H   UNL     1      41.138 -11.445   1.710  1.00  0.00     0.162 HD
ENDROOT
BRANCH   1  11
HETATM   11  C   UNL     1      41.624 -14.513   1.600  1.00  0.00     0.261 C 
HETATM   12  N   UNL     1      41.406 -15.831   1.954  1.00  0.00    -0.323 N 
HETATM   13  H   UNL     1      40.651 -16.292   1.457  1.00  0.00     0.169 HD
HETATM   14  O   UNL     1      42.558 -13.809   1.963  1.00  0.00    -0.267 OA
BRANCH  12  15
HETATM   15  C   UNL     1      42.195 -16.644   2.792  1.00  0.00     0.035 A 
HETATM   16  C   UNL     1      42.373 -16.415   4.159  1.00  0.00     0.039 A 
HETATM   17  C   UNL     1      43.198 -17.251   4.933  1.00  0.00    -0.028 A 
HETATM   18  C   UNL     1      43.856 -18.321   4.308  1.00  0.00     0.010 A 
HETATM   19  C   UNL     1      43.672 -18.565   2.949  1.00  0.00     0.003 A 
HETATM   20  C   UNL     1      42.841 -17.733   2.197  1.00  0.00     0.029 A 
BRANCH  17  21
HETATM   21  C   UNL     1      43.393 -16.963   6.406  1.00  0.00     0.147 C 
HETATM   22  C   UNL     1      44.743 -16.320   6.688  1.00  0.00     0.044 C 
BRANCH  21  23
HETATM   23  O   UNL     1      43.287 -18.164   7.167  1.00  0.00    -0.391 OA
HETATM   24  H   UNL     1      44.043 -18.175   7.778  1.00  0.00     0.210 HD
ENDBRANCH  21  23
ENDBRANCH  17  21
ENDBRANCH  12  15
ENDBRANCH   1  11
BRANCH   4  25
HETATM   25  C   UNL     1      38.575 -11.326  -2.285  1.00  0.00     0.409 C 
HETATM   26  F   UNL     1      39.874 -11.443  -2.614  1.00  0.00    -0.169 F 
HETATM   27  F   UNL     1      37.858 -11.995  -3.216  1.00  0.00    -0.169 F 
HETATM   28  F   UNL     1      38.244 -10.015  -2.431  1.00  0.00    -0.169 F 
ENDBRANCH   4  25
BRANCH   6  29
HETATM   29  C   UNL     1      40.521  -9.501  -0.084  1.00  0.00     0.005 A 
HETATM   30  S   UNL     1      40.022  -7.915  -0.526  1.00  0.00    -0.104 SA
HETATM   31  C   UNL     1      41.451  -7.636  -1.419  1.00  0.00     0.050 A 
HETATM   32  C   UNL     1      42.311  -8.709  -1.365  1.00  0.00     0.008 A 
HETATM   33  C   UNL     1      41.782  -9.777  -0.584  1.00  0.00     0.017 A 
ENDBRANCH   6  29
TORSDOF 6
ENDMDL
MODEL 9
REMARK VINA RESULT:      -7.6      2.567      3.231
REMARK  6 active torsions:
REMARK  status: ('A' for Active; 'I' for Inactive)
REMARK    1  A    between atoms: C_2  and  O_3 
REMARK    2  A    between atoms: C_2  and  C_4 
REMARK    3  A    between atoms: C_6  and  N_7 
REMARK       I    between atoms: N_7  and  C_8 
REMARK    4  A    between atoms: C_8  and  C_9 
REMARK    5  A    between atoms: C_12  and  C_13 
REMARK    6  A    between atoms: C_18  and  C_19 
ROOT
HETATM    1  C   UNL     1      42.601 -14.126   4.457  1.00  0.00     0.096 A 
HETATM    2  C   UNL     1      41.419 -13.638   3.930  1.00  0.00     0.138 A 
HETATM    3  N   UNL     1      41.173 -14.389   2.806  1.00  0.00    -0.240 N 
HETATM    4  C   UNL     1      39.996 -14.270   1.967  1.00  0.00     0.221 C 
HETATM    5  C   UNL     1      38.927 -13.402   2.655  1.00  0.00     0.067 C 
HETATM    6  C   UNL     1      39.491 -12.197   3.429  1.00  0.00     0.125 C 
HETATM    7  N   UNL     1      40.569 -12.650   4.324  1.00  0.00    -0.365 N 
HETATM    8  N   UNL     1      42.109 -15.317   2.558  1.00  0.00    -0.181 NA
HETATM    9  C   UNL     1      42.998 -15.125   3.537  1.00  0.00     0.160 A 
HETATM   10  H   UNL     1      40.946 -11.879   4.882  1.00  0.00     0.162 HD
ENDROOT
BRANCH   1  11
HETATM   11  C   UNL     1      43.296 -13.752   5.677  1.00  0.00     0.261 C 
HETATM   12  N   UNL     1      43.697 -12.429   5.686  1.00  0.00    -0.323 N 
HETATM   13  H   UNL     1      43.394 -11.882   4.888  1.00  0.00     0.169 HD
HETATM   14  O   UNL     1      43.426 -14.555   6.593  1.00  0.00    -0.267 OA
BRANCH  12  15
HETATM   15  C   UNL     1      44.328 -11.723   6.729  1.00  0.00     0.035 A 
HETATM   16  C   UNL     1      43.705 -11.395   7.937  1.00  0.00     0.039 A 
HETATM   17  C   UNL     1      44.385 -10.663   8.927  1.00  0.00    -0.028 A 
HETATM   18  C   UNL     1      45.704 -10.253   8.682  1.00  0.00     0.010 A 
HETATM   19  C   UNL     1      46.337 -10.590   7.488  1.00  0.00     0.003 A 
HETATM   20  C   UNL     1      45.653 -11.326   6.520  1.00  0.00     0.029 A 
BRANCH  17  21
HETATM   21  C   UNL     1      43.676 -10.299  10.214  1.00  0.00     0.147 C 
HETATM   22  C   UNL     1      44.393  -9.186  10.966  1.00  0.00     0.044 C 
BRANCH  21  23
HETATM   23  O   UNL     1      43.574 -11.438  11.067  1.00  0.00    -0.391 OA
HETATM   24  H   UNL     1      44.482 -11.734  11.246  1.00  0.00     0.210 HD
ENDBRANCH  21  23
ENDBRANCH  17  21
ENDBRANCH  12  15
ENDBRANCH   1  11
BRANCH   4  25
HETATM   25  C   UNL     1      40.373 -13.799   0.578  1.00  0.00     0.409 C 
HETATM   26  F   UNL     1      39.433 -13.040  -0.013  1.00  0.00    -0.169 F 
HETATM   27  F   UNL     1      41.528 -13.095   0.573  1.00  0.00    -0.169 F 
HETATM   28  F   UNL     1      40.586 -14.871  -0.232  1.00  0.00    -0.169 F 
ENDBRANCH   4  25
BRANCH   6  29
HETATM   29  C   UNL     1      39.842 -11.013   2.557  1.00  0.00     0.005 A 
HETATM   30  S   UNL     1      38.602 -10.196   1.687  1.00  0.00    -0.104 SA
HETATM   31  C   UNL     1      39.708  -9.082   1.015  1.00  0.00     0.050 A 
HETATM   32  C   UNL     1      40.993  -9.298   1.459  1.00  0.00     0.008 A 
HETATM   33  C   UNL     1      41.067 -10.401   2.358  1.00  0.00     0.017 A 
ENDBRANCH   6  29
TORSDOF 6
ENDMDL
MODEL 10
REMARK VINA RESULT:      -7.6     16.902     18.649
REMARK  6 active torsions:
REMARK  status: ('A' for Active; 'I' for Inactive)
REMARK    1  A    between atoms: C_2  and  O_3 
REMARK    2  A    between atoms: C_2  and  C_4 
REMARK    3  A    between atoms: C_6  and  N_7 
REMARK       I    between atoms: N_7  and  C_8 
REMARK    4  A    between atoms: C_8  and  C_9 
REMARK    5  A    between atoms: C_12  and  C_13 
REMARK    6  A    between atoms: C_18  and  C_19 
ROOT
HETATM    1  C   UNL     1      43.929 -29.277   0.268  1.00  0.00     0.096 A 
HETATM    2  C   UNL     1      45.198 -28.891   0.660  1.00  0.00     0.138 A 
HETATM    3  N   UNL     1      45.907 -28.703  -0.502  1.00  0.00    -0.240 N 
HETATM    4  C   UNL     1      47.275 -28.228  -0.574  1.00  0.00     0.221 C 
HETATM    5  C   UNL     1      47.731 -27.685   0.792  1.00  0.00     0.067 C 
HETATM    6  C   UNL     1      47.222 -28.495   1.998  1.00  0.00     0.125 C 
HETATM    7  N   UNL     1      45.767 -28.688   1.880  1.00  0.00    -0.365 N 
HETATM    8  N   UNL     1      45.200 -28.949  -1.615  1.00  0.00    -0.181 NA
HETATM    9  C   UNL     1      44.012 -29.341  -1.144  1.00  0.00     0.160 A 
HETATM   10  H   UNL     1      45.385 -29.193   2.683  1.00  0.00     0.162 HD
ENDROOT
BRANCH   1  11
HETATM   11  C   UNL     1      42.749 -29.540   1.074  1.00  0.00     0.261 C 
HETATM   12  N   UNL     1      42.826 -30.733   1.769  1.00  0.00    -0.323 N 
HETATM   13  H   UNL     1      43.710 -31.223   1.686  1.00  0.00     0.169 HD
HETATM   14  O   UNL     1      41.841 -28.720   1.138  1.00  0.00    -0.267 OA
BRANCH  12  15
HETATM   15  C   UNL     1      41.899 -31.258   2.690  1.00  0.00     0.035 A 
HETATM   16  C   UNL     1      42.111 -31.306   4.070  1.00  0.00     0.039 A 
HETATM   17  C   UNL     1      41.153 -31.870   4.932  1.00  0.00    -0.028 A 
HETATM   18  C   UNL     1      39.976 -32.401   4.384  1.00  0.00     0.010 A 
HETATM   19  C   UNL     1      39.749 -32.343   3.010  1.00  0.00     0.003 A 
HETATM   20  C   UNL     1      40.704 -31.769   2.169  1.00  0.00     0.029 A 
BRANCH  17  21
HETATM   21  C   UNL     1      41.422 -31.932   6.421  1.00  0.00     0.147 C 
HETATM   22  C   UNL     1      40.144 -32.113   7.225  1.00  0.00     0.044 C 
BRANCH  21  23
HETATM   23  O   UNL     1      42.078 -30.744   6.859  1.00  0.00    -0.391 OA
HETATM   24  H   UNL     1      42.166 -30.171   6.078  1.00  0.00     0.210 HD
ENDBRANCH  21  23
ENDBRANCH  17  21
ENDBRANCH  12  15
ENDBRANCH   1  11
BRANCH   4  25
HETATM   25  C   UNL     1      48.183 -29.293  -1.151  1.00  0.00     0.409 C 
HETATM   26  F   UNL     1      49.458 -29.208  -0.727  1.00  0.00    -0.169 F 
HETATM   27  F   UNL     1      47.745 -30.542  -0.875  1.00  0.00    -0.169 F 
HETATM   28  F   UNL     1      48.208 -29.197  -2.507  1.00  0.00    -0.169 F 
ENDBRANCH   4  25
BRANCH   6  29
HETATM   29  C   UNL     1      48.010 -29.755   2.273  1.00  0.00     0.005 A 
HETATM   30  S   UNL     1      47.190 -31.260   2.423  1.00  0.00    -0.104 SA
HETATM   31  C   UNL     1      48.647 -32.109   2.695  1.00  0.00     0.050 A 
HETATM   32  C   UNL     1      49.744 -31.280   2.647  1.00  0.00     0.008 A 
HETATM   33  C   UNL     1      49.379 -29.927   2.389  1.00  0.00     0.017 A 
ENDBRANCH   6  29
TORSDOF 6
ENDMDL
