MODEL 1
REMARK VINA RESULT:      -7.9      0.000      0.000
REMARK  3 active torsions:
REMARK  status: ('A' for Active; 'I' for Inactive)
REMARK    1  A    between atoms: C_11  and  N_12 
REMARK       I    between atoms: N_12  and  C_13 
REMARK    2  A    between atoms: C_13  and  C_14 
REMARK    3  A    between atoms: C_15  and  O_16 
ROOT
HETATM    1  N   UNL     1      42.831 -15.828   3.942  1.00  0.00    -0.352 N 
HETATM    2  C   UNL     1      43.610 -16.474   4.886  1.00  0.00     0.254 C 
HETATM    3  O   UNL     1      44.114 -15.913   5.852  1.00  0.00    -0.268 OA
HETATM    4  H   UNL     1      42.601 -16.365   3.113  1.00  0.00     0.163 HD
ENDROOT
BRANCH   1   5
HETATM    5  C   UNL     1      42.710 -14.376   3.846  1.00  0.00     0.089 C 
HETATM    6  C   UNL     1      42.078 -13.650   5.042  1.00  0.00     0.063 C 
HETATM    7  C   UNL     1      40.577 -13.886   5.234  1.00  0.00     0.121 C 
HETATM    8  N   UNL     1      39.860 -13.637   3.920  1.00  0.00    -0.059 N 
HETATM    9  C   UNL     1      40.208 -15.268   5.784  1.00  0.00     0.046 C 
HETATM   10  C   UNL     1      40.026 -12.838   6.225  1.00  0.00     0.046 C 
HETATM   11  C   UNL     1      40.427 -14.172   2.622  1.00  0.00     0.121 C 
HETATM   12  H   UNL     1      39.777 -12.615   3.818  1.00  0.00     0.279 HD
HETATM   13  H   UNL     1      38.884 -13.957   4.016  1.00  0.00     0.279 HD
HETATM   14  C   UNL     1      39.996 -15.630   2.421  1.00  0.00     0.046 C 
HETATM   15  C   UNL     1      39.773 -13.341   1.498  1.00  0.00     0.046 C 
HETATM   16  C   UNL     1      41.954 -13.967   2.574  1.00  0.00     0.063 C 
ENDBRANCH   1   5
BRANCH   2  17
HETATM   17  C   UNL     1      43.723 -17.951   4.775  1.00  0.00     0.066 A 
HETATM   18  C   UNL     1      43.616 -18.725   5.941  1.00  0.00     0.081 A 
HETATM   19  C   UNL     1      43.630 -20.116   5.874  1.00  0.00     0.039 A 
HETATM   20  C   UNL     1      43.781 -20.747   4.641  1.00  0.00     0.026 A 
HETATM   21  C   UNL     1      43.925 -19.982   3.484  1.00  0.00     0.035 A 
HETATM   22 CL   UNL     1      44.124 -20.760   1.963  1.00  0.00    -0.084 Cl
HETATM   23  C   UNL     1      43.901 -18.587   3.542  1.00  0.00     0.043 A 
BRANCH  18  24
HETATM   24  O   UNL     1      43.478 -18.175   7.187  1.00  0.00    -0.360 OA
HETATM   25  H   UNL     1      44.317 -18.317   7.677  1.00  0.00     0.217 HD
ENDBRANCH  18  24
ENDBRANCH   2  17
TORSDOF 3
ENDMDL
MODEL 2
REMARK VINA RESULT:      -7.7      1.834      2.741
REMARK  3 active torsions:
REMARK  status: ('A' for Active; 'I' for Inactive)
REMARK    1  A    between atoms: C_11  and  N_12 
REMARK       I    between atoms: N_12  and  C_13 
REMARK    2  A    between atoms: C_13  and  C_14 
REMARK    3  A    between atoms: C_15  and  O_16 
ROOT
HETATM    1  N   UNL     1      42.702 -14.746   3.928  1.00  0.00    -0.352 N 
HETATM    2  C   UNL     1      43.282 -15.518   2.936  1.00  0.00     0.254 C 
HETATM    3  O   UNL     1      43.680 -15.068   1.868  1.00  0.00    -0.268 OA
HETATM    4  H   UNL     1      42.278 -15.255   4.696  1.00  0.00     0.163 HD
ENDROOT
BRANCH   1   5
HETATM    5  C   UNL     1      42.278 -13.363   3.735  1.00  0.00     0.089 C 
HETATM    6  C   UNL     1      43.124 -12.275   4.411  1.00  0.00     0.063 C 
HETATM    7  C   UNL     1      43.027 -12.222   5.938  1.00  0.00     0.121 C 
HETATM    8  N   UNL     1      41.566 -12.198   6.345  1.00  0.00    -0.059 N 
HETATM    9  C   UNL     1      43.761 -13.350   6.669  1.00  0.00     0.046 C 
HETATM   10  C   UNL     1      43.629 -10.889   6.434  1.00  0.00     0.046 C 
HETATM   11  C   UNL     1      40.567 -13.118   5.676  1.00  0.00     0.121 C 
HETATM   12  H   UNL     1      41.234 -11.233   6.201  1.00  0.00     0.279 HD
HETATM   13  H   UNL     1      41.510 -12.330   7.366  1.00  0.00     0.279 HD
HETATM   14  C   UNL     1      40.589 -14.497   6.348  1.00  0.00     0.046 C 
HETATM   15  C   UNL     1      39.178 -12.501   5.939  1.00  0.00     0.046 C 
HETATM   16  C   UNL     1      40.814 -13.171   4.155  1.00  0.00     0.063 C 
ENDBRANCH   1   5
BRANCH   2  17
HETATM   17  C   UNL     1      43.546 -16.945   3.255  1.00  0.00     0.066 A 
HETATM   18  C   UNL     1      43.953 -17.281   4.556  1.00  0.00     0.081 A 
HETATM   19  C   UNL     1      44.129 -18.613   4.923  1.00  0.00     0.039 A 
HETATM   20  C   UNL     1      43.927 -19.622   3.983  1.00  0.00     0.026 A 
HETATM   21  C   UNL     1      43.559 -19.290   2.680  1.00  0.00     0.035 A 
HETATM   22 CL   UNL     1      43.321 -20.534   1.516  1.00  0.00    -0.084 Cl
HETATM   23  C   UNL     1      43.370 -17.958   2.307  1.00  0.00     0.043 A 
BRANCH  18  24
HETATM   24  O   UNL     1      44.182 -16.345   5.528  1.00  0.00    -0.360 OA
HETATM   25  H   UNL     1      43.874 -16.713   6.384  1.00  0.00     0.217 HD
ENDBRANCH  18  24
ENDBRANCH   2  17
TORSDOF 3
ENDMDL
MODEL 3
REMARK VINA RESULT:      -7.5      1.088      2.029
REMARK  3 active torsions:
REMARK  status: ('A' for Active; 'I' for Inactive)
REMARK    1  A    between atoms: C_11  and  N_12 
REMARK       I    between atoms: N_12  and  C_13 
REMARK    2  A    between atoms: C_13  and  C_14 
REMARK    3  A    between atoms: C_15  and  O_16 
ROOT
HETATM    1  N   UNL     1      42.107 -16.143   5.021  1.00  0.00    -0.352 N 
HETATM    2  C   UNL     1      43.169 -16.804   5.613  1.00  0.00     0.254 C 
HETATM    3  O   UNL     1      43.796 -16.365   6.570  1.00  0.00    -0.268 OA
HETATM    4  H   UNL     1      41.772 -16.534   4.148  1.00  0.00     0.163 HD
ENDROOT
BRANCH   1   5
HETATM    5  C   UNL     1      41.757 -14.754   5.303  1.00  0.00     0.089 C 
HETATM    6  C   UNL     1      40.394 -14.263   4.798  1.00  0.00     0.063 C 
HETATM    7  C   UNL     1      40.272 -14.115   3.279  1.00  0.00     0.121 C 
HETATM    8  N   UNL     1      41.443 -13.302   2.761  1.00  0.00    -0.059 N 
HETATM    9  C   UNL     1      40.164 -15.435   2.509  1.00  0.00     0.046 C 
HETATM   10  C   UNL     1      39.006 -13.292   2.954  1.00  0.00     0.046 C 
HETATM   11  C   UNL     1      42.846 -13.570   3.263  1.00  0.00     0.121 C 
HETATM   12  H   UNL     1      41.231 -12.314   2.964  1.00  0.00     0.279 HD
HETATM   13  H   UNL     1      41.442 -13.349   1.731  1.00  0.00     0.279 HD
HETATM   14  C   UNL     1      43.477 -14.723   2.473  1.00  0.00     0.046 C 
HETATM   15  C   UNL     1      43.661 -12.298   2.947  1.00  0.00     0.046 C 
HETATM   16  C   UNL     1      42.841 -13.797   4.788  1.00  0.00     0.063 C 
ENDBRANCH   1   5
BRANCH   2  17
HETATM   17  C   UNL     1      43.467 -18.177   5.130  1.00  0.00     0.066 A 
HETATM   18  C   UNL     1      43.548 -19.219   6.067  1.00  0.00     0.081 A 
HETATM   19  C   UNL     1      43.740 -20.535   5.652  1.00  0.00     0.039 A 
HETATM   20  C   UNL     1      43.882 -20.817   4.294  1.00  0.00     0.026 A 
HETATM   21  C   UNL     1      43.840 -19.780   3.363  1.00  0.00     0.035 A 
HETATM   22 CL   UNL     1      44.027 -20.126   1.689  1.00  0.00    -0.084 Cl
HETATM   23  C   UNL     1      43.636 -18.460   3.771  1.00  0.00     0.043 A 
BRANCH  18  24
HETATM   24  O   UNL     1      43.430 -19.016   7.415  1.00  0.00    -0.360 OA
HETATM   25  H   UNL     1      44.074 -18.322   7.676  1.00  0.00     0.217 HD
ENDBRANCH  18  24
ENDBRANCH   2  17
TORSDOF 3
ENDMDL
MODEL 4
REMARK VINA RESULT:      -7.3      4.173      7.109
REMARK  3 active torsions:
REMARK  status: ('A' for Active; 'I' for Inactive)
REMARK    1  A    between atoms: C_11  and  N_12 
REMARK       I    between atoms: N_12  and  C_13 
REMARK    2  A    between atoms: C_13  and  C_14 
REMARK    3  A    between atoms: C_15  and  O_16 
ROOT
HETATM    1  N   UNL     1      40.646 -14.551   1.639  1.00  0.00    -0.352 N 
HETATM    2  C   UNL     1      39.868 -13.514   1.153  1.00  0.00     0.254 C 
HETATM    3  O   UNL     1      39.201 -12.773   1.866  1.00  0.00    -0.268 OA
HETATM    4  H   UNL     1      41.026 -15.184   0.944  1.00  0.00     0.163 HD
ENDROOT
BRANCH   1   5
HETATM    5  C   UNL     1      40.585 -15.036   3.014  1.00  0.00     0.089 C 
HETATM    6  C   UNL     1      41.149 -14.113   4.103  1.00  0.00     0.063 C 
HETATM    7  C   UNL     1      42.671 -13.945   4.098  1.00  0.00     0.121 C 
HETATM    8  N   UNL     1      43.323 -15.314   4.062  1.00  0.00    -0.059 N 
HETATM    9  C   UNL     1      43.219 -13.069   2.968  1.00  0.00     0.046 C 
HETATM   10  C   UNL     1      43.110 -13.300   5.431  1.00  0.00     0.046 C 
HETATM   11  C   UNL     1      42.799 -16.391   3.136  1.00  0.00     0.121 C 
HETATM   12  H   UNL     1      43.278 -15.689   5.020  1.00  0.00     0.279 HD
HETATM   13  H   UNL     1      44.333 -15.190   3.892  1.00  0.00     0.279 HD
HETATM   14  C   UNL     1      43.401 -16.220   1.735  1.00  0.00     0.046 C 
HETATM   15  C   UNL     1      43.321 -17.729   3.700  1.00  0.00     0.046 C 
HETATM   16  C   UNL     1      41.258 -16.410   3.146  1.00  0.00     0.063 C 
ENDBRANCH   1   5
BRANCH   2  17
HETATM   17  C   UNL     1      39.960 -13.221  -0.299  1.00  0.00     0.066 A 
HETATM   18  C   UNL     1      39.532 -14.196  -1.214  1.00  0.00     0.081 A 
HETATM   19  C   UNL     1      39.520 -13.932  -2.581  1.00  0.00     0.039 A 
HETATM   20  C   UNL     1      39.964 -12.697  -3.051  1.00  0.00     0.026 A 
HETATM   21  C   UNL     1      40.425 -11.739  -2.149  1.00  0.00     0.035 A 
HETATM   22 CL   UNL     1      40.984 -10.219  -2.728  1.00  0.00    -0.084 Cl
HETATM   23  C   UNL     1      40.430 -11.992  -0.776  1.00  0.00     0.043 A 
BRANCH  18  24
HETATM   24  O   UNL     1      39.094 -15.434  -0.828  1.00  0.00    -0.360 OA
HETATM   25  H   UNL     1      39.882 -15.987  -0.630  1.00  0.00     0.217 HD
ENDBRANCH  18  24
ENDBRANCH   2  17
TORSDOF 3
ENDMDL
MODEL 5
REMARK VINA RESULT:      -7.3      2.784      3.926
REMARK  3 active torsions:
REMARK  status: ('A' for Active; 'I' for Inactive)
REMARK    1  A    between atoms: C_11  and  N_12 
REMARK       I    between atoms: N_12  and  C_13 
REMARK    2  A    between atoms: C_13  and  C_14 
REMARK    3  A    between atoms: C_15  and  O_16 
ROOT
HETATM    1  N   UNL     1      43.011 -13.482   4.027  1.00  0.00    -0.352 N 
HETATM    2  C   UNL     1      42.485 -14.376   3.110  1.00  0.00     0.254 C 
HETATM    3  O   UNL     1      41.816 -14.040   2.139  1.00  0.00    -0.268 OA
HETATM    4  H   UNL     1      43.412 -13.890   4.864  1.00  0.00     0.163 HD
ENDROOT
BRANCH   1   5
HETATM    5  C   UNL     1      42.643 -12.071   4.088  1.00  0.00     0.089 C 
HETATM    6  C   UNL     1      43.436 -11.186   5.060  1.00  0.00     0.063 C 
HETATM    7  C   UNL     1      43.175 -11.446   6.546  1.00  0.00     0.121 C 
HETATM    8  N   UNL     1      41.679 -11.441   6.798  1.00  0.00    -0.059 N 
HETATM    9  C   UNL     1      43.798 -12.734   7.094  1.00  0.00     0.046 C 
HETATM   10  C   UNL     1      43.749 -10.273   7.370  1.00  0.00     0.046 C 
HETATM   11  C   UNL     1      40.738 -12.156   5.852  1.00  0.00     0.121 C 
HETATM   12  H   UNL     1      41.387 -10.453   6.828  1.00  0.00     0.279 HD
HETATM   13  H   UNL     1      41.509 -11.778   7.758  1.00  0.00     0.279 HD
HETATM   14  C   UNL     1      40.654 -13.643   6.218  1.00  0.00     0.046 C 
HETATM   15  C   UNL     1      39.343 -11.544   6.097  1.00  0.00     0.046 C 
HETATM   16  C   UNL     1      41.147 -11.903   4.388  1.00  0.00     0.063 C 
ENDBRANCH   1   5
BRANCH   2  17
HETATM   17  C   UNL     1      42.870 -15.802   3.256  1.00  0.00     0.066 A 
HETATM   18  C   UNL     1      43.213 -16.530   2.106  1.00  0.00     0.081 A 
HETATM   19  C   UNL     1      43.662 -17.845   2.203  1.00  0.00     0.039 A 
HETATM   20  C   UNL     1      43.746 -18.455   3.454  1.00  0.00     0.026 A 
HETATM   21  C   UNL     1      43.370 -17.749   4.596  1.00  0.00     0.035 A 
HETATM   22 CL   UNL     1      43.461 -18.505   6.137  1.00  0.00    -0.084 Cl
HETATM   23  C   UNL     1      42.929 -16.427   4.507  1.00  0.00     0.043 A 
BRANCH  18  24
HETATM   24  O   UNL     1      43.145 -16.001   0.845  1.00  0.00    -0.360 OA
HETATM   25  H   UNL     1      43.226 -15.025   0.920  1.00  0.00     0.217 HD
ENDBRANCH  18  24
ENDBRANCH   2  17
TORSDOF 3
ENDMDL
MODEL 6
REMARK VINA RESULT:      -7.3      3.860      6.985
REMARK  3 active torsions:
REMARK  status: ('A' for Active; 'I' for Inactive)
REMARK    1  A    between atoms: C_11  and  N_12 
REMARK       I    between atoms: N_12  and  C_13 
REMARK    2  A    between atoms: C_13  and  C_14 
REMARK    3  A    between atoms: C_15  and  O_16 
ROOT
HETATM    1  N   UNL     1      40.574 -14.581   1.648  1.00  0.00    -0.352 N 
HETATM    2  C   UNL     1      39.816 -13.516   1.192  1.00  0.00     0.254 C 
HETATM    3  O   UNL     1      39.219 -12.740   1.929  1.00  0.00    -0.268 OA
HETATM    4  H   UNL     1      40.890 -15.235   0.941  1.00  0.00     0.163 HD
ENDROOT
BRANCH   1   5
HETATM    5  C   UNL     1      40.563 -15.051   3.029  1.00  0.00     0.089 C 
HETATM    6  C   UNL     1      41.151 -14.109   4.090  1.00  0.00     0.063 C 
HETATM    7  C   UNL     1      42.670 -13.925   4.034  1.00  0.00     0.121 C 
HETATM    8  N   UNL     1      43.337 -15.287   3.991  1.00  0.00    -0.059 N 
HETATM    9  C   UNL     1      43.171 -13.055   2.877  1.00  0.00     0.046 C 
HETATM   10  C   UNL     1      43.144 -13.260   5.344  1.00  0.00     0.046 C 
HETATM   11  C   UNL     1      42.795 -16.379   3.094  1.00  0.00     0.121 C 
HETATM   12  H   UNL     1      43.327 -15.652   4.955  1.00  0.00     0.279 HD
HETATM   13  H   UNL     1      44.339 -15.153   3.788  1.00  0.00     0.279 HD
HETATM   14  C   UNL     1      43.350 -16.217   1.673  1.00  0.00     0.046 C 
HETATM   15  C   UNL     1      43.351 -17.705   3.655  1.00  0.00     0.046 C 
HETATM   16  C   UNL     1      41.256 -16.416   3.154  1.00  0.00     0.063 C 
ENDBRANCH   1   5
BRANCH   2  17
HETATM   17  C   UNL     1      39.846 -13.238  -0.267  1.00  0.00     0.066 A 
HETATM   18  C   UNL     1      40.629 -12.171  -0.735  1.00  0.00     0.081 A 
HETATM   19  C   UNL     1      40.755 -11.926  -2.100  1.00  0.00     0.039 A 
HETATM   20  C   UNL     1      40.075 -12.732  -3.012  1.00  0.00     0.026 A 
HETATM   21  C   UNL     1      39.267 -13.771  -2.550  1.00  0.00     0.035 A 
HETATM   22 CL   UNL     1      38.419 -14.758  -3.674  1.00  0.00    -0.084 Cl
HETATM   23  C   UNL     1      39.145 -14.028  -1.184  1.00  0.00     0.043 A 
BRANCH  18  24
HETATM   24  O   UNL     1      41.314 -11.330   0.101  1.00  0.00    -0.360 OA
HETATM   25  H   UNL     1      42.244 -11.281  -0.212  1.00  0.00     0.217 HD
ENDBRANCH  18  24
ENDBRANCH   2  17
TORSDOF 3
ENDMDL
MODEL 7
REMARK VINA RESULT:      -7.2      7.204      9.505
REMARK  3 active torsions:
REMARK  status: ('A' for Active; 'I' for Inactive)
REMARK    1  A    between atoms: C_11  and  N_12 
REMARK       I    between atoms: N_12  and  C_13 
REMARK    2  A    between atoms: C_13  and  C_14 
REMARK    3  A    between atoms: C_15  and  O_16 
ROOT
HETATM    1  N   UNL     1      43.502  -8.683   9.974  1.00  0.00    -0.352 N 
HETATM    2  C   UNL     1      44.248  -8.496   8.823  1.00  0.00     0.254 C 
HETATM    3  O   UNL     1      44.784  -7.435   8.525  1.00  0.00    -0.268 OA
HETATM    4  H   UNL     1      42.986  -9.554  10.032  1.00  0.00     0.163 HD
ENDROOT
BRANCH   1   5
HETATM    5  C   UNL     1      43.064  -7.595  10.843  1.00  0.00     0.089 C 
HETATM    6  C   UNL     1      43.141  -7.839  12.357  1.00  0.00     0.063 C 
HETATM    7  C   UNL     1      42.134  -8.851  12.910  1.00  0.00     0.121 C 
HETATM    8  N   UNL     1      40.745  -8.491  12.420  1.00  0.00    -0.059 N 
HETATM    9  C   UNL     1      42.447 -10.315  12.584  1.00  0.00     0.046 C 
HETATM   10  C   UNL     1      42.089  -8.725  14.448  1.00  0.00     0.046 C 
HETATM   11  C   UNL     1      40.518  -8.092  10.977  1.00  0.00     0.121 C 
HETATM   12  H   UNL     1      40.417  -7.710  13.007  1.00  0.00     0.279 HD
HETATM   13  H   UNL     1      40.105  -9.264  12.658  1.00  0.00     0.279 HD
HETATM   14  C   UNL     1      40.350  -9.343  10.105  1.00  0.00     0.046 C 
HETATM   15  C   UNL     1      39.175  -7.332  10.952  1.00  0.00     0.046 C 
HETATM   16  C   UNL     1      41.637  -7.149  10.494  1.00  0.00     0.063 C 
ENDBRANCH   1   5
BRANCH   2  17
HETATM   17  C   UNL     1      44.510  -9.692   7.983  1.00  0.00     0.066 A 
HETATM   18  C   UNL     1      45.819  -9.928   7.534  1.00  0.00     0.081 A 
HETATM   19  C   UNL     1      46.128 -11.081   6.816  1.00  0.00     0.039 A 
HETATM   20  C   UNL     1      45.122 -11.998   6.516  1.00  0.00     0.026 A 
HETATM   21  C   UNL     1      43.813 -11.749   6.928  1.00  0.00     0.035 A 
HETATM   22 CL   UNL     1      42.569 -12.874   6.547  1.00  0.00    -0.084 Cl
HETATM   23  C   UNL     1      43.498 -10.601   7.657  1.00  0.00     0.043 A 
BRANCH  18  24
HETATM   24  O   UNL     1      46.855  -9.067   7.780  1.00  0.00    -0.360 OA
HETATM   25  H   UNL     1      47.665  -9.439   7.366  1.00  0.00     0.217 HD
ENDBRANCH  18  24
ENDBRANCH   2  17
TORSDOF 3
ENDMDL
MODEL 8
REMARK VINA RESULT:      -7.0      4.622      6.847
REMARK  3 active torsions:
REMARK  status: ('A' for Active; 'I' for Inactive)
REMARK    1  A    between atoms: C_11  and  N_12 
REMARK       I    between atoms: N_12  and  C_13 
REMARK    2  A    between atoms: C_13  and  C_14 
REMARK    3  A    between atoms: C_15  and  O_16 
ROOT
HETATM    1  N   UNL     1      42.952 -12.289   5.108  1.00  0.00    -0.352 N 
HETATM    2  C   UNL     1      44.115 -11.552   5.259  1.00  0.00     0.254 C 
HETATM    3  O   UNL     1      44.874 -11.282   4.336  1.00  0.00    -0.268 OA
HETATM    4  H   UNL     1      42.493 -12.574   5.966  1.00  0.00     0.163 HD
ENDROOT
BRANCH   1   5
HETATM    5  C   UNL     1      42.614 -13.029   3.897  1.00  0.00     0.089 C 
HETATM    6  C   UNL     1      41.444 -12.494   3.059  1.00  0.00     0.063 C 
HETATM    7  C   UNL     1      40.058 -12.651   3.691  1.00  0.00     0.121 C 
HETATM    8  N   UNL     1      39.876 -14.086   4.146  1.00  0.00    -0.059 N 
HETATM    9  C   UNL     1      39.765 -11.689   4.847  1.00  0.00     0.046 C 
HETATM   10  C   UNL     1      38.982 -12.407   2.610  1.00  0.00     0.046 C 
HETATM   11  C   UNL     1      40.991 -14.810   4.870  1.00  0.00     0.121 C 
HETATM   12  H   UNL     1      39.653 -14.637   3.304  1.00  0.00     0.279 HD
HETATM   13  H   UNL     1      39.017 -14.142   4.713  1.00  0.00     0.279 HD
HETATM   14  C   UNL     1      40.949 -14.477   6.367  1.00  0.00     0.046 C 
HETATM   15  C   UNL     1      40.685 -16.315   4.727  1.00  0.00     0.046 C 
HETATM   16  C   UNL     1      42.351 -14.509   4.209  1.00  0.00     0.063 C 
ENDBRANCH   1   5
BRANCH   2  17
HETATM   17  C   UNL     1      44.370 -10.956   6.595  1.00  0.00     0.066 A 
HETATM   18  C   UNL     1      45.699 -10.784   7.015  1.00  0.00     0.081 A 
HETATM   19  C   UNL     1      45.988 -10.152   8.222  1.00  0.00     0.039 A 
HETATM   20  C   UNL     1      44.946  -9.710   9.036  1.00  0.00     0.026 A 
HETATM   21  C   UNL     1      43.625  -9.911   8.641  1.00  0.00     0.035 A 
HETATM   22 CL   UNL     1      42.339  -9.376   9.651  1.00  0.00    -0.084 Cl
HETATM   23  C   UNL     1      43.328 -10.534   7.427  1.00  0.00     0.043 A 
BRANCH  18  24
HETATM   24  O   UNL     1      46.771 -11.204   6.274  1.00  0.00    -0.360 OA
HETATM   25  H   UNL     1      47.277 -11.852   6.811  1.00  0.00     0.217 HD
ENDBRANCH  18  24
ENDBRANCH   2  17
TORSDOF 3
ENDMDL
MODEL 9
REMARK VINA RESULT:      -7.0      3.743      6.686
REMARK  3 active torsions:
REMARK  status: ('A' for Active; 'I' for Inactive)
REMARK    1  A    between atoms: C_11  and  N_12 
REMARK       I    between atoms: N_12  and  C_13 
REMARK    2  A    between atoms: C_13  and  C_14 
REMARK    3  A    between atoms: C_15  and  O_16 
ROOT
HETATM    1  N   UNL     1      40.457 -14.893   2.570  1.00  0.00    -0.352 N 
HETATM    2  C   UNL     1      40.006 -15.042   1.269  1.00  0.00     0.254 C 
HETATM    3  O   UNL     1      39.559 -16.091   0.820  1.00  0.00    -0.268 OA
HETATM    4  H   UNL     1      40.941 -14.027   2.775  1.00  0.00     0.163 HD
ENDROOT
BRANCH   1   5
HETATM    5  C   UNL     1      40.678 -16.009   3.484  1.00  0.00     0.089 C 
HETATM    6  C   UNL     1      41.212 -15.669   4.882  1.00  0.00     0.063 C 
HETATM    7  C   UNL     1      42.663 -15.181   4.929  1.00  0.00     0.121 C 
HETATM    8  N   UNL     1      43.541 -16.151   4.160  1.00  0.00    -0.059 N 
HETATM    9  C   UNL     1      42.880 -13.753   4.418  1.00  0.00     0.046 C 
HETATM   10  C   UNL     1      43.161 -15.224   6.390  1.00  0.00     0.046 C 
HETATM   11  C   UNL     1      43.094 -16.693   2.819  1.00  0.00     0.121 C 
HETATM   12  H   UNL     1      43.698 -16.961   4.778  1.00  0.00     0.279 HD
HETATM   13  H   UNL     1      44.477 -15.732   4.057  1.00  0.00     0.279 HD
HETATM   14  C   UNL     1      43.454 -15.702   1.705  1.00  0.00     0.046 C 
HETATM   15  C   UNL     1      43.924 -17.972   2.580  1.00  0.00     0.046 C 
HETATM   16  C   UNL     1      41.599 -17.064   2.855  1.00  0.00     0.063 C 
ENDBRANCH   1   5
BRANCH   2  17
HETATM   17  C   UNL     1      39.948 -13.820   0.428  1.00  0.00     0.066 A 
HETATM   18  C   UNL     1      39.315 -12.677   0.941  1.00  0.00     0.081 A 
HETATM   19  C   UNL     1      39.311 -11.483   0.224  1.00  0.00     0.039 A 
HETATM   20  C   UNL     1      39.918 -11.429  -1.030  1.00  0.00     0.026 A 
HETATM   21  C   UNL     1      40.515 -12.572  -1.560  1.00  0.00     0.035 A 
HETATM   22 CL   UNL     1      41.252 -12.510  -3.113  1.00  0.00    -0.084 Cl
HETATM   23  C   UNL     1      40.532 -13.769  -0.842  1.00  0.00     0.043 A 
BRANCH  18  24
HETATM   24  O   UNL     1      38.689 -12.658   2.159  1.00  0.00    -0.360 OA
HETATM   25  H   UNL     1      38.962 -11.840   2.629  1.00  0.00     0.217 HD
ENDBRANCH  18  24
ENDBRANCH   2  17
TORSDOF 3
ENDMDL
MODEL 10
REMARK VINA RESULT:      -7.0     13.863     15.137
REMARK  3 active torsions:
REMARK  status: ('A' for Active; 'I' for Inactive)
REMARK    1  A    between atoms: C_11  and  N_12 
REMARK       I    between atoms: N_12  and  C_13 
REMARK    2  A    between atoms: C_13  and  C_14 
REMARK    3  A    between atoms: C_15  and  O_16 
ROOT
HETATM    1  N   UNL     1      45.592 -29.789   0.738  1.00  0.00    -0.352 N 
HETATM    2  C   UNL     1      45.607 -29.476   2.087  1.00  0.00     0.254 C 
HETATM    3  O   UNL     1      44.601 -29.217   2.737  1.00  0.00    -0.268 OA
HETATM    4  H   UNL     1      46.497 -29.832   0.283  1.00  0.00     0.163 HD
ENDROOT
BRANCH   1   5
HETATM    5  C   UNL     1      44.424 -29.621  -0.120  1.00  0.00     0.089 C 
HETATM    6  C   UNL     1      43.954 -30.853  -0.907  1.00  0.00     0.063 C 
HETATM    7  C   UNL     1      44.880 -31.298  -2.043  1.00  0.00     0.121 C 
HETATM    8  N   UNL     1      45.205 -30.103  -2.918  1.00  0.00    -0.059 N 
HETATM    9  C   UNL     1      46.170 -31.988  -1.589  1.00  0.00     0.046 C 
HETATM   10  C   UNL     1      44.122 -32.295  -2.946  1.00  0.00     0.046 C 
HETATM   11  C   UNL     1      45.558 -28.769  -2.297  1.00  0.00     0.121 C 
HETATM   12  H   UNL     1      44.387 -29.949  -3.525  1.00  0.00     0.279 HD
HETATM   13  H   UNL     1      45.953 -30.375  -3.575  1.00  0.00     0.279 HD
HETATM   14  C   UNL     1      47.048 -28.734  -1.936  1.00  0.00     0.046 C 
HETATM   15  C   UNL     1      45.329 -27.713  -3.399  1.00  0.00     0.046 C 
HETATM   16  C   UNL     1      44.627 -28.462  -1.107  1.00  0.00     0.063 C 
ENDBRANCH   1   5
BRANCH   2  17
HETATM   17  C   UNL     1      46.908 -29.590   2.795  1.00  0.00     0.066 A 
HETATM   18  C   UNL     1      47.864 -28.578   2.618  1.00  0.00     0.081 A 
HETATM   19  C   UNL     1      49.062 -28.599   3.327  1.00  0.00     0.039 A 
HETATM   20  C   UNL     1      49.329 -29.652   4.201  1.00  0.00     0.026 A 
HETATM   21  C   UNL     1      48.398 -30.679   4.353  1.00  0.00     0.035 A 
HETATM   22 CL   UNL     1      48.731 -31.984   5.422  1.00  0.00    -0.084 Cl
HETATM   23  C   UNL     1      47.190 -30.658   3.653  1.00  0.00     0.043 A 
BRANCH  18  24
HETATM   24  O   UNL     1      47.677 -27.521   1.768  1.00  0.00    -0.360 OA
HETATM   25  H   UNL     1      46.776 -27.595   1.382  1.00  0.00     0.217 HD
ENDBRANCH  18  24
ENDBRANCH   2  17
TORSDOF 3
ENDMDL
