MODEL 1
REMARK VINA RESULT:      -8.1      0.000      0.000
REMARK  4 active torsions:
REMARK  status: ('A' for Active; 'I' for Inactive)
REMARK    1  A    between atoms: O_2  and  C_3 
REMARK    2  A    between atoms: N_9  and  N_10 
REMARK       I    between atoms: N_10  and  C_11 
REMARK    3  A    between atoms: C_11  and  C_12 
REMARK    4  A    between atoms: C_13  and  O_14 
ROOT
HETATM    1  C   UNL     1      43.730 -16.876   4.563  1.00  0.00     0.069 A 
HETATM    2  C   UNL     1      43.396 -15.521   4.478  1.00  0.00     0.053 A 
HETATM    3  C   UNL     1      42.933 -15.042   3.262  1.00  0.00     0.029 A 
HETATM    4  C   UNL     1      42.499 -13.709   2.813  1.00  0.00     0.157 A 
HETATM    5  C   UNL     1      41.937 -13.914   1.389  1.00  0.00     0.277 A 
HETATM    6  O   UNL     1      41.426 -13.075   0.682  1.00  0.00    -0.266 OA
HETATM    7  N   UNL     1      42.538 -12.533   3.353  1.00  0.00    -0.166 NA
HETATM    8  C   UNL     1      42.734 -15.899   2.177  1.00  0.00     0.048 A 
HETATM    9  N   UNL     1      42.164 -15.239   1.096  1.00  0.00    -0.321 N 
HETATM   10  C   UNL     1      43.046 -17.240   2.240  1.00  0.00     0.033 A 
HETATM   11  C   UNL     1      43.562 -17.720   3.446  1.00  0.00     0.039 A 
HETATM   12  H   UNL     1      41.894 -15.653   0.216  1.00  0.00     0.169 HD
ENDROOT
BRANCH   7  13
HETATM   13  N   UNL     1      43.212 -12.354   4.521  1.00  0.00    -0.242 N 
HETATM   14  C   UNL     1      43.180 -11.120   5.154  1.00  0.00     0.274 C 
HETATM   15  O   UNL     1      42.462 -10.175   4.831  1.00  0.00    -0.266 OA
HETATM   16  H   UNL     1      43.846 -13.078   4.817  1.00  0.00     0.192 HD
BRANCH  14  17
HETATM   17  C   UNL     1      44.032 -10.969   6.369  1.00  0.00     0.068 A 
HETATM   18  C   UNL     1      45.430 -10.996   6.231  1.00  0.00     0.081 A 
HETATM   19  C   UNL     1      46.262 -10.810   7.334  1.00  0.00     0.039 A 
HETATM   20  C   UNL     1      45.709 -10.607   8.597  1.00  0.00     0.022 A 
HETATM   21  C   UNL     1      44.324 -10.606   8.747  1.00  0.00     0.012 A 
HETATM   22 BR   UNL     1      43.570 -10.341  10.461  1.00  0.00    -0.051 Br
HETATM   23  C   UNL     1      43.482 -10.795   7.648  1.00  0.00     0.039 A 
BRANCH  18  24
HETATM   24  O   UNL     1      46.063 -11.197   5.033  1.00  0.00    -0.360 OA
HETATM   25  H   UNL     1      45.831 -10.448   4.435  1.00  0.00     0.217 HD
ENDBRANCH  18  24
ENDBRANCH  14  17
ENDBRANCH   7  13
BRANCH   1  26
HETATM   26  O   UNL     1      44.218 -17.508   5.675  1.00  0.00    -0.356 OA
HETATM   27  C   UNL     1      43.349 -17.626   6.795  1.00  0.00     0.210 C 
ENDBRANCH   1  26
TORSDOF 4
ENDMDL
MODEL 2
REMARK VINA RESULT:      -8.1      4.356      6.333
REMARK  4 active torsions:
REMARK  status: ('A' for Active; 'I' for Inactive)
REMARK    1  A    between atoms: O_2  and  C_3 
REMARK    2  A    between atoms: N_9  and  N_10 
REMARK       I    between atoms: N_10  and  C_11 
REMARK    3  A    between atoms: C_11  and  C_12 
REMARK    4  A    between atoms: C_13  and  O_14 
ROOT
HETATM    1  C   UNL     1      43.822 -18.714   3.454  1.00  0.00     0.069 A 
HETATM    2  C   UNL     1      43.532 -17.391   3.804  1.00  0.00     0.053 A 
HETATM    3  C   UNL     1      43.340 -17.102   5.147  1.00  0.00     0.029 A 
HETATM    4  C   UNL     1      43.026 -15.857   5.866  1.00  0.00     0.157 A 
HETATM    5  C   UNL     1      43.130 -16.208   7.367  1.00  0.00     0.277 A 
HETATM    6  O   UNL     1      42.998 -15.450   8.301  1.00  0.00    -0.266 OA
HETATM    7  N   UNL     1      42.693 -14.667   5.479  1.00  0.00    -0.166 NA
HETATM    8  C   UNL     1      43.506 -18.084   6.127  1.00  0.00     0.048 A 
HETATM    9  N   UNL     1      43.376 -17.561   7.407  1.00  0.00    -0.321 N 
HETATM   10  C   UNL     1      43.802 -19.391   5.808  1.00  0.00     0.033 A 
HETATM   11  C   UNL     1      43.946 -19.702   4.453  1.00  0.00     0.039 A 
HETATM   12  H   UNL     1      43.490 -18.065   8.274  1.00  0.00     0.169 HD
ENDROOT
BRANCH   7  13
HETATM   13  N   UNL     1      42.422 -14.441   4.166  1.00  0.00    -0.242 N 
HETATM   14  C   UNL     1      41.211 -13.874   3.799  1.00  0.00     0.274 C 
HETATM   15  O   UNL     1      40.382 -13.403   4.578  1.00  0.00    -0.266 OA
HETATM   16  H   UNL     1      43.044 -14.836   3.480  1.00  0.00     0.192 HD
BRANCH  14  17
HETATM   17  C   UNL     1      40.941 -13.759   2.336  1.00  0.00     0.068 A 
HETATM   18  C   UNL     1      40.526 -14.898   1.626  1.00  0.00     0.081 A 
HETATM   19  C   UNL     1      40.217 -14.823   0.269  1.00  0.00     0.039 A 
HETATM   20  C   UNL     1      40.331 -13.608  -0.405  1.00  0.00     0.022 A 
HETATM   21  C   UNL     1      40.769 -12.479   0.285  1.00  0.00     0.012 A 
HETATM   22 BR   UNL     1      40.935 -10.832  -0.628  1.00  0.00    -0.051 Br
HETATM   23  C   UNL     1      41.083 -12.546   1.645  1.00  0.00     0.039 A 
BRANCH  18  24
HETATM   24  O   UNL     1      40.392 -16.134   2.202  1.00  0.00    -0.360 OA
HETATM   25  H   UNL     1      41.201 -16.657   1.995  1.00  0.00     0.217 HD
ENDBRANCH  18  24
ENDBRANCH  14  17
ENDBRANCH   7  13
BRANCH   1  26
HETATM   26  O   UNL     1      44.020 -19.176   2.181  1.00  0.00    -0.356 OA
HETATM   27  C   UNL     1      43.567 -20.491   1.884  1.00  0.00     0.210 C 
ENDBRANCH   1  26
TORSDOF 4
ENDMDL
MODEL 3
REMARK VINA RESULT:      -7.8      3.997      5.828
REMARK  4 active torsions:
REMARK  status: ('A' for Active; 'I' for Inactive)
REMARK    1  A    between atoms: O_2  and  C_3 
REMARK    2  A    between atoms: N_9  and  N_10 
REMARK       I    between atoms: N_10  and  C_11 
REMARK    3  A    between atoms: C_11  and  C_12 
REMARK    4  A    between atoms: C_13  and  O_14 
ROOT
HETATM    1  C   UNL     1      43.467 -18.217   3.513  1.00  0.00     0.069 A 
HETATM    2  C   UNL     1      43.167 -16.932   3.977  1.00  0.00     0.053 A 
HETATM    3  C   UNL     1      43.145 -16.726   5.348  1.00  0.00     0.029 A 
HETATM    4  C   UNL     1      42.875 -15.539   6.176  1.00  0.00     0.157 A 
HETATM    5  C   UNL     1      43.195 -15.964   7.626  1.00  0.00     0.277 A 
HETATM    6  O   UNL     1      43.156 -15.264   8.613  1.00  0.00    -0.266 OA
HETATM    7  N   UNL     1      42.440 -14.349   5.908  1.00  0.00    -0.166 NA
HETATM    8  C   UNL     1      43.485 -17.748   6.237  1.00  0.00     0.048 A 
HETATM    9  N   UNL     1      43.506 -17.302   7.552  1.00  0.00    -0.321 N 
HETATM   10  C   UNL     1      43.794 -19.019   5.804  1.00  0.00     0.033 A 
HETATM   11  C   UNL     1      43.768 -19.249   4.426  1.00  0.00     0.039 A 
HETATM   12  H   UNL     1      43.758 -17.845   8.365  1.00  0.00     0.169 HD
ENDROOT
BRANCH   7  13
HETATM   13  N   UNL     1      41.985 -14.068   4.658  1.00  0.00    -0.242 N 
HETATM   14  C   UNL     1      42.568 -13.045   3.925  1.00  0.00     0.274 C 
HETATM   15  O   UNL     1      43.588 -12.435   4.245  1.00  0.00    -0.266 OA
HETATM   16  H   UNL     1      41.131 -14.508   4.355  1.00  0.00     0.192 HD
BRANCH  14  17
HETATM   17  C   UNL     1      41.944 -12.723   2.610  1.00  0.00     0.068 A 
HETATM   18  C   UNL     1      42.031 -11.411   2.114  1.00  0.00     0.081 A 
HETATM   19  C   UNL     1      41.504 -11.080   0.867  1.00  0.00     0.039 A 
HETATM   20  C   UNL     1      40.867 -12.054   0.099  1.00  0.00     0.022 A 
HETATM   21  C   UNL     1      40.751 -13.351   0.595  1.00  0.00     0.012 A 
HETATM   22 BR   UNL     1      39.879 -14.672  -0.439  1.00  0.00    -0.051 Br
HETATM   23  C   UNL     1      41.274 -13.691   1.845  1.00  0.00     0.039 A 
BRANCH  18  24
HETATM   24  O   UNL     1      42.631 -10.388   2.799  1.00  0.00    -0.360 OA
HETATM   25  H   UNL     1      41.926  -9.870   3.255  1.00  0.00     0.217 HD
ENDBRANCH  18  24
ENDBRANCH  14  17
ENDBRANCH   7  13
BRANCH   1  26
HETATM   26  O   UNL     1      43.513 -18.599   2.200  1.00  0.00    -0.356 OA
HETATM   27  C   UNL     1      43.331 -19.981   1.914  1.00  0.00     0.210 C 
ENDBRANCH   1  26
TORSDOF 4
ENDMDL
MODEL 4
REMARK VINA RESULT:      -7.8      4.209      6.383
REMARK  4 active torsions:
REMARK  status: ('A' for Active; 'I' for Inactive)
REMARK    1  A    between atoms: O_2  and  C_3 
REMARK    2  A    between atoms: N_9  and  N_10 
REMARK       I    between atoms: N_10  and  C_11 
REMARK    3  A    between atoms: C_11  and  C_12 
REMARK    4  A    between atoms: C_13  and  O_14 
ROOT
HETATM    1  C   UNL     1      39.742 -13.417   1.760  1.00  0.00     0.069 A 
HETATM    2  C   UNL     1      39.749 -13.606   3.145  1.00  0.00     0.053 A 
HETATM    3  C   UNL     1      39.449 -12.519   3.951  1.00  0.00     0.029 A 
HETATM    4  C   UNL     1      39.363 -12.350   5.410  1.00  0.00     0.157 A 
HETATM    5  C   UNL     1      38.805 -10.927   5.631  1.00  0.00     0.277 A 
HETATM    6  O   UNL     1      38.532 -10.409   6.691  1.00  0.00    -0.266 OA
HETATM    7  N   UNL     1      39.672 -13.109   6.412  1.00  0.00    -0.166 NA
HETATM    8  C   UNL     1      39.076 -11.292   3.397  1.00  0.00     0.048 A 
HETATM    9  N   UNL     1      38.711 -10.375   4.374  1.00  0.00    -0.321 N 
HETATM   10  C   UNL     1      39.051 -11.083   2.035  1.00  0.00     0.033 A 
HETATM   11  C   UNL     1      39.402 -12.160   1.217  1.00  0.00     0.039 A 
HETATM   12  H   UNL     1      38.372  -9.437   4.218  1.00  0.00     0.169 HD
ENDROOT
BRANCH   7  13
HETATM   13  N   UNL     1      40.339 -14.274   6.190  1.00  0.00    -0.242 N 
HETATM   14  C   UNL     1      41.725 -14.294   6.234  1.00  0.00     0.274 C 
HETATM   15  O   UNL     1      42.437 -13.364   6.609  1.00  0.00    -0.266 OA
HETATM   16  H   UNL     1      39.814 -15.060   5.845  1.00  0.00     0.192 HD
BRANCH  14  17
HETATM   17  C   UNL     1      42.386 -15.581   5.872  1.00  0.00     0.068 A 
HETATM   18  C   UNL     1      42.949 -16.371   6.889  1.00  0.00     0.081 A 
HETATM   19  C   UNL     1      43.533 -17.603   6.599  1.00  0.00     0.039 A 
HETATM   20  C   UNL     1      43.578 -18.060   5.283  1.00  0.00     0.022 A 
HETATM   21  C   UNL     1      43.048 -17.270   4.265  1.00  0.00     0.012 A 
HETATM   22 BR   UNL     1      43.116 -17.882   2.477  1.00  0.00    -0.051 Br
HETATM   23  C   UNL     1      42.463 -16.033   4.546  1.00  0.00     0.039 A 
BRANCH  18  24
HETATM   24  O   UNL     1      42.958 -16.001   8.208  1.00  0.00    -0.360 OA
HETATM   25  H   UNL     1      43.212 -15.050   8.258  1.00  0.00     0.217 HD
ENDBRANCH  18  24
ENDBRANCH  14  17
ENDBRANCH   7  13
BRANCH   1  26
HETATM   26  O   UNL     1      40.032 -14.372   0.823  1.00  0.00    -0.356 OA
HETATM   27  C   UNL     1      40.065 -15.726   1.257  1.00  0.00     0.210 C 
ENDBRANCH   1  26
TORSDOF 4
ENDMDL
MODEL 5
REMARK VINA RESULT:      -7.8      3.165      6.777
REMARK  4 active torsions:
REMARK  status: ('A' for Active; 'I' for Inactive)
REMARK    1  A    between atoms: O_2  and  C_3 
REMARK    2  A    between atoms: N_9  and  N_10 
REMARK       I    between atoms: N_10  and  C_11 
REMARK    3  A    between atoms: C_11  and  C_12 
REMARK    4  A    between atoms: C_13  and  O_14 
ROOT
HETATM    1  C   UNL     1      42.848 -13.956   5.501  1.00  0.00     0.069 A 
HETATM    2  C   UNL     1      42.627 -14.608   4.283  1.00  0.00     0.053 A 
HETATM    3  C   UNL     1      43.197 -15.860   4.105  1.00  0.00     0.029 A 
HETATM    4  C   UNL     1      43.181 -16.815   2.986  1.00  0.00     0.157 A 
HETATM    5  C   UNL     1      43.868 -18.091   3.519  1.00  0.00     0.277 A 
HETATM    6  O   UNL     1      44.013 -19.139   2.930  1.00  0.00    -0.266 OA
HETATM    7  N   UNL     1      42.754 -16.746   1.765  1.00  0.00    -0.166 NA
HETATM    8  C   UNL     1      43.906 -16.484   5.135  1.00  0.00     0.048 A 
HETATM    9  N   UNL     1      44.295 -17.770   4.787  1.00  0.00    -0.321 N 
HETATM   10  C   UNL     1      44.127 -15.865   6.347  1.00  0.00     0.033 A 
HETATM   11  C   UNL     1      43.600 -14.583   6.516  1.00  0.00     0.039 A 
HETATM   12  H   UNL     1      44.785 -18.428   5.376  1.00  0.00     0.169 HD
ENDROOT
BRANCH   7  13
HETATM   13  N   UNL     1      42.332 -15.552   1.269  1.00  0.00    -0.242 N 
HETATM   14  C   UNL     1      40.977 -15.316   1.097  1.00  0.00     0.274 C 
HETATM   15  O   UNL     1      40.073 -16.049   1.495  1.00  0.00    -0.266 OA
HETATM   16  H   UNL     1      43.025 -14.925   0.892  1.00  0.00     0.192 HD
BRANCH  14  17
HETATM   17  C   UNL     1      40.598 -14.029   0.446  1.00  0.00     0.068 A 
HETATM   18  C   UNL     1      39.638 -14.038  -0.580  1.00  0.00     0.081 A 
HETATM   19  C   UNL     1      39.221 -12.851  -1.181  1.00  0.00     0.039 A 
HETATM   20  C   UNL     1      39.768 -11.635  -0.775  1.00  0.00     0.022 A 
HETATM   21  C   UNL     1      40.741 -11.619   0.222  1.00  0.00     0.012 A 
HETATM   22 BR   UNL     1      41.493  -9.973   0.769  1.00  0.00    -0.051 Br
HETATM   23  C   UNL     1      41.167 -12.804   0.828  1.00  0.00     0.039 A 
BRANCH  18  24
HETATM   24  O   UNL     1      39.052 -15.183  -1.049  1.00  0.00    -0.360 OA
HETATM   25  H   UNL     1      38.849 -15.053  -2.005  1.00  0.00     0.217 HD
ENDBRANCH  18  24
ENDBRANCH  14  17
ENDBRANCH   7  13
BRANCH   1  26
HETATM   26  O   UNL     1      42.379 -12.715   5.836  1.00  0.00    -0.356 OA
HETATM   27  C   UNL     1      43.247 -11.865   6.576  1.00  0.00     0.210 C 
ENDBRANCH   1  26
TORSDOF 4
ENDMDL
MODEL 6
REMARK VINA RESULT:      -7.5      3.510      6.908
REMARK  4 active torsions:
REMARK  status: ('A' for Active; 'I' for Inactive)
REMARK    1  A    between atoms: O_2  and  C_3 
REMARK    2  A    between atoms: N_9  and  N_10 
REMARK       I    between atoms: N_10  and  C_11 
REMARK    3  A    between atoms: C_11  and  C_12 
REMARK    4  A    between atoms: C_13  and  O_14 
ROOT
HETATM    1  C   UNL     1      43.892 -11.027   6.765  1.00  0.00     0.069 A 
HETATM    2  C   UNL     1      42.822 -11.701   6.167  1.00  0.00     0.053 A 
HETATM    3  C   UNL     1      41.541 -11.234   6.415  1.00  0.00     0.029 A 
HETATM    4  C   UNL     1      40.211 -11.680   5.969  1.00  0.00     0.157 A 
HETATM    5  C   UNL     1      39.223 -10.604   6.471  1.00  0.00     0.277 A 
HETATM    6  O   UNL     1      38.030 -10.563   6.270  1.00  0.00    -0.266 OA
HETATM    7  N   UNL     1      39.794 -12.721   5.322  1.00  0.00    -0.166 NA
HETATM    8  C   UNL     1      41.327 -10.082   7.176  1.00  0.00     0.048 A 
HETATM    9  N   UNL     1      39.984  -9.728   7.209  1.00  0.00    -0.321 N 
HETATM   10  C   UNL     1      42.365  -9.395   7.767  1.00  0.00     0.033 A 
HETATM   11  C   UNL     1      43.656  -9.888   7.564  1.00  0.00     0.039 A 
HETATM   12  H   UNL     1      39.590  -8.916   7.662  1.00  0.00     0.169 HD
ENDROOT
BRANCH   7  13
HETATM   13  N   UNL     1      40.657 -13.740   5.065  1.00  0.00    -0.242 N 
HETATM   14  C   UNL     1      40.666 -14.860   5.883  1.00  0.00     0.274 C 
HETATM   15  O   UNL     1      39.844 -15.100   6.767  1.00  0.00    -0.266 OA
HETATM   16  H   UNL     1      41.377 -13.588   4.378  1.00  0.00     0.192 HD
BRANCH  14  17
HETATM   17  C   UNL     1      41.713 -15.884   5.604  1.00  0.00     0.068 A 
HETATM   18  C   UNL     1      42.471 -16.396   6.672  1.00  0.00     0.081 A 
HETATM   19  C   UNL     1      43.426 -17.389   6.461  1.00  0.00     0.039 A 
HETATM   20  C   UNL     1      43.650 -17.879   5.175  1.00  0.00     0.022 A 
HETATM   21  C   UNL     1      42.923 -17.357   4.107  1.00  0.00     0.012 A 
HETATM   22 BR   UNL     1      43.231 -18.011   2.360  1.00  0.00    -0.051 Br
HETATM   23  C   UNL     1      41.966 -16.360   4.308  1.00  0.00     0.039 A 
BRANCH  18  24
HETATM   24  O   UNL     1      42.326 -15.972   7.966  1.00  0.00    -0.360 OA
HETATM   25  H   UNL     1      41.839 -15.115   7.954  1.00  0.00     0.217 HD
ENDBRANCH  18  24
ENDBRANCH  14  17
ENDBRANCH   7  13
BRANCH   1  26
HETATM   26  O   UNL     1      45.213 -11.362   6.644  1.00  0.00    -0.356 OA
HETATM   27  C   UNL     1      46.149 -10.631   7.428  1.00  0.00     0.210 C 
ENDBRANCH   1  26
TORSDOF 4
ENDMDL
MODEL 7
REMARK VINA RESULT:      -7.4      3.395      6.580
REMARK  4 active torsions:
REMARK  status: ('A' for Active; 'I' for Inactive)
REMARK    1  A    between atoms: O_2  and  C_3 
REMARK    2  A    between atoms: N_9  and  N_10 
REMARK       I    between atoms: N_10  and  C_11 
REMARK    3  A    between atoms: C_11  and  C_12 
REMARK    4  A    between atoms: C_13  and  O_14 
ROOT
HETATM    1  C   UNL     1      43.425 -11.848   6.411  1.00  0.00     0.069 A 
HETATM    2  C   UNL     1      42.734 -12.606   5.459  1.00  0.00     0.053 A 
HETATM    3  C   UNL     1      41.559 -12.083   4.942  1.00  0.00     0.029 A 
HETATM    4  C   UNL     1      40.593 -12.585   3.951  1.00  0.00     0.157 A 
HETATM    5  C   UNL     1      39.607 -11.421   3.707  1.00  0.00     0.277 A 
HETATM    6  O   UNL     1      38.688 -11.401   2.920  1.00  0.00    -0.266 OA
HETATM    7  N   UNL     1      40.447 -13.722   3.349  1.00  0.00    -0.166 NA
HETATM    8  C   UNL     1      41.117 -10.807   5.301  1.00  0.00     0.048 A 
HETATM    9  N   UNL     1      39.985 -10.434   4.588  1.00  0.00    -0.321 N 
HETATM   10  C   UNL     1      41.785 -10.038   6.229  1.00  0.00     0.033 A 
HETATM   11  C   UNL     1      42.943 -10.579   6.793  1.00  0.00     0.039 A 
HETATM   12  H   UNL     1      39.506  -9.548   4.647  1.00  0.00     0.169 HD
ENDROOT
BRANCH   7  13
HETATM   13  N   UNL     1      41.209 -14.783   3.727  1.00  0.00    -0.242 N 
HETATM   14  C   UNL     1      42.201 -15.256   2.882  1.00  0.00     0.274 C 
HETATM   15  O   UNL     1      42.574 -14.706   1.847  1.00  0.00    -0.266 OA
HETATM   16  H   UNL     1      40.930 -15.297   4.546  1.00  0.00     0.192 HD
BRANCH  14  17
HETATM   17  C   UNL     1      42.919 -16.489   3.317  1.00  0.00     0.068 A 
HETATM   18  C   UNL     1      43.560 -16.502   4.568  1.00  0.00     0.081 A 
HETATM   19  C   UNL     1      44.200 -17.649   5.033  1.00  0.00     0.039 A 
HETATM   20  C   UNL     1      44.223 -18.801   4.248  1.00  0.00     0.022 A 
HETATM   21  C   UNL     1      43.614 -18.789   2.995  1.00  0.00     0.012 A 
HETATM   22 BR   UNL     1      43.651 -20.346   1.922  1.00  0.00    -0.051 Br
HETATM   23  C   UNL     1      42.972 -17.642   2.519  1.00  0.00     0.039 A 
BRANCH  18  24
HETATM   24  O   UNL     1      43.597 -15.417   5.403  1.00  0.00    -0.360 OA
HETATM   25  H   UNL     1      44.521 -15.075   5.420  1.00  0.00     0.217 HD
ENDBRANCH  18  24
ENDBRANCH  14  17
ENDBRANCH   7  13
BRANCH   1  26
HETATM   26  O   UNL     1      44.584 -12.219   7.036  1.00  0.00    -0.356 OA
HETATM   27  C   UNL     1      45.618 -11.245   7.129  1.00  0.00     0.210 C 
ENDBRANCH   1  26
TORSDOF 4
ENDMDL
MODEL 8
REMARK VINA RESULT:      -7.3      4.044      6.431
REMARK  4 active torsions:
REMARK  status: ('A' for Active; 'I' for Inactive)
REMARK    1  A    between atoms: O_2  and  C_3 
REMARK    2  A    between atoms: N_9  and  N_10 
REMARK       I    between atoms: N_10  and  C_11 
REMARK    3  A    between atoms: C_11  and  C_12 
REMARK    4  A    between atoms: C_13  and  O_14 
ROOT
HETATM    1  C   UNL     1      39.838 -13.503  -1.512  1.00  0.00     0.069 A 
HETATM    2  C   UNL     1      40.399 -12.811  -0.434  1.00  0.00     0.053 A 
HETATM    3  C   UNL     1      40.965 -11.570  -0.684  1.00  0.00     0.029 A 
HETATM    4  C   UNL     1      41.631 -10.584   0.182  1.00  0.00     0.157 A 
HETATM    5  C   UNL     1      41.860  -9.341  -0.706  1.00  0.00     0.277 A 
HETATM    6  O   UNL     1      42.335  -8.281  -0.364  1.00  0.00    -0.266 OA
HETATM    7  N   UNL     1      42.027 -10.607   1.415  1.00  0.00    -0.166 NA
HETATM    8  C   UNL     1      40.910 -10.994  -1.955  1.00  0.00     0.048 A 
HETATM    9  N   UNL     1      41.435  -9.709  -1.962  1.00  0.00    -0.321 N 
HETATM   10  C   UNL     1      40.354 -11.652  -3.031  1.00  0.00     0.033 A 
HETATM   11  C   UNL     1      39.827 -12.925  -2.799  1.00  0.00     0.039 A 
HETATM   12  H   UNL     1      41.472  -9.081  -2.751  1.00  0.00     0.169 HD
ENDROOT
BRANCH   7  13
HETATM   13  N   UNL     1      41.986 -11.775   2.110  1.00  0.00    -0.242 N 
HETATM   14  C   UNL     1      43.036 -12.116   2.949  1.00  0.00     0.274 C 
HETATM   15  O   UNL     1      43.971 -11.375   3.252  1.00  0.00    -0.266 OA
HETATM   16  H   UNL     1      41.265 -12.439   1.877  1.00  0.00     0.192 HD
BRANCH  14  17
HETATM   17  C   UNL     1      42.972 -13.461   3.591  1.00  0.00     0.068 A 
HETATM   18  C   UNL     1      42.838 -13.546   4.987  1.00  0.00     0.081 A 
HETATM   19  C   UNL     1      42.725 -14.782   5.621  1.00  0.00     0.039 A 
HETATM   20  C   UNL     1      42.758 -15.956   4.870  1.00  0.00     0.022 A 
HETATM   21  C   UNL     1      42.918 -15.882   3.488  1.00  0.00     0.012 A 
HETATM   22 BR   UNL     1      42.974 -17.472   2.467  1.00  0.00    -0.051 Br
HETATM   23  C   UNL     1      43.035 -14.647   2.844  1.00  0.00     0.039 A 
BRANCH  18  24
HETATM   24  O   UNL     1      42.803 -12.449   5.806  1.00  0.00    -0.360 OA
HETATM   25  H   UNL     1      43.341 -11.737   5.387  1.00  0.00     0.217 HD
ENDBRANCH  18  24
ENDBRANCH  14  17
ENDBRANCH   7  13
BRANCH   1  26
HETATM   26  O   UNL     1      39.257 -14.741  -1.450  1.00  0.00    -0.356 OA
HETATM   27  C   UNL     1      38.713 -15.270  -2.653  1.00  0.00     0.210 C 
ENDBRANCH   1  26
TORSDOF 4
ENDMDL
MODEL 9
REMARK VINA RESULT:      -7.2      3.716      6.203
REMARK  4 active torsions:
REMARK  status: ('A' for Active; 'I' for Inactive)
REMARK    1  A    between atoms: O_2  and  C_3 
REMARK    2  A    between atoms: N_9  and  N_10 
REMARK       I    between atoms: N_10  and  C_11 
REMARK    3  A    between atoms: C_11  and  C_12 
REMARK    4  A    between atoms: C_13  and  O_14 
ROOT
HETATM    1  C   UNL     1      40.634 -13.709   0.753  1.00  0.00     0.069 A 
HETATM    2  C   UNL     1      41.038 -13.603   2.088  1.00  0.00     0.053 A 
HETATM    3  C   UNL     1      41.415 -12.353   2.554  1.00  0.00     0.029 A 
HETATM    4  C   UNL     1      41.886 -11.875   3.864  1.00  0.00     0.157 A 
HETATM    5  C   UNL     1      41.956 -10.337   3.744  1.00  0.00     0.277 A 
HETATM    6  O   UNL     1      42.248  -9.552   4.619  1.00  0.00    -0.266 OA
HETATM    7  N   UNL     1      42.232 -12.477   4.957  1.00  0.00    -0.166 NA
HETATM    8  C   UNL     1      41.323 -11.221   1.740  1.00  0.00     0.048 A 
HETATM    9  N   UNL     1      41.643 -10.061   2.433  1.00  0.00    -0.321 N 
HETATM   10  C   UNL     1      40.917 -11.299   0.426  1.00  0.00     0.033 A 
HETATM   11  C   UNL     1      40.584 -12.563  -0.067  1.00  0.00     0.039 A 
HETATM   12  H   UNL     1      41.613  -9.119   2.070  1.00  0.00     0.169 HD
ENDROOT
BRANCH   7  13
HETATM   13  N   UNL     1      42.344 -13.832   4.970  1.00  0.00    -0.242 N 
HETATM   14  C   UNL     1      43.181 -14.446   5.889  1.00  0.00     0.274 C 
HETATM   15  O   UNL     1      43.745 -13.881   6.825  1.00  0.00    -0.266 OA
HETATM   16  H   UNL     1      41.936 -14.347   4.207  1.00  0.00     0.192 HD
BRANCH  14  17
HETATM   17  C   UNL     1      43.337 -15.925   5.769  1.00  0.00     0.068 A 
HETATM   18  C   UNL     1      43.324 -16.711   6.934  1.00  0.00     0.081 A 
HETATM   19  C   UNL     1      43.418 -18.100   6.862  1.00  0.00     0.039 A 
HETATM   20  C   UNL     1      43.540 -18.726   5.623  1.00  0.00     0.022 A 
HETATM   21  C   UNL     1      43.582 -17.953   4.465  1.00  0.00     0.012 A 
HETATM   22 BR   UNL     1      43.757 -18.799   2.783  1.00  0.00    -0.051 Br
HETATM   23  C   UNL     1      43.491 -16.560   4.527  1.00  0.00     0.039 A 
BRANCH  18  24
HETATM   24  O   UNL     1      43.216 -16.184   8.194  1.00  0.00    -0.360 OA
HETATM   25  H   UNL     1      42.926 -15.245   8.109  1.00  0.00     0.217 HD
ENDBRANCH  18  24
ENDBRANCH  14  17
ENDBRANCH   7  13
BRANCH   1  26
HETATM   26  O   UNL     1      40.249 -14.863   0.127  1.00  0.00    -0.356 OA
HETATM   27  C   UNL     1      39.527 -14.737  -1.093  1.00  0.00     0.210 C 
ENDBRANCH   1  26
TORSDOF 4
ENDMDL
MODEL 10
REMARK VINA RESULT:      -7.2      4.374      7.579
REMARK  4 active torsions:
REMARK  status: ('A' for Active; 'I' for Inactive)
REMARK    1  A    between atoms: O_2  and  C_3 
REMARK    2  A    between atoms: N_9  and  N_10 
REMARK       I    between atoms: N_10  and  C_11 
REMARK    3  A    between atoms: C_11  and  C_12 
REMARK    4  A    between atoms: C_13  and  O_14 
ROOT
HETATM    1  C   UNL     1      41.463 -10.083  -1.338  1.00  0.00     0.069 A 
HETATM    2  C   UNL     1      41.225 -11.448  -1.145  1.00  0.00     0.053 A 
HETATM    3  C   UNL     1      40.142 -12.017  -1.797  1.00  0.00     0.029 A 
HETATM    4  C   UNL     1      39.600 -13.385  -1.828  1.00  0.00     0.157 A 
HETATM    5  C   UNL     1      38.486 -13.365  -2.896  1.00  0.00     0.277 A 
HETATM    6  O   UNL     1      37.822 -14.306  -3.271  1.00  0.00    -0.266 OA
HETATM    7  N   UNL     1      39.866 -14.461  -1.159  1.00  0.00    -0.166 NA
HETATM    8  C   UNL     1      39.357 -11.270  -2.678  1.00  0.00     0.048 A 
HETATM    9  N   UNL     1      38.397 -12.055  -3.305  1.00  0.00    -0.321 N 
HETATM   10  C   UNL     1      39.577  -9.927  -2.893  1.00  0.00     0.033 A 
HETATM   11  C   UNL     1      40.635  -9.334  -2.200  1.00  0.00     0.039 A 
HETATM   12  H   UNL     1      37.740 -11.749  -4.008  1.00  0.00     0.169 HD
ENDROOT
BRANCH   7  13
HETATM   13  N   UNL     1      40.713 -14.398  -0.097  1.00  0.00    -0.242 N 
HETATM   14  C   UNL     1      40.494 -15.205   1.009  1.00  0.00     0.274 C 
HETATM   15  O   UNL     1      39.664 -16.111   1.074  1.00  0.00    -0.266 OA
HETATM   16  H   UNL     1      41.390 -13.653  -0.075  1.00  0.00     0.192 HD
BRANCH  14  17
HETATM   17  C   UNL     1      41.399 -15.001   2.177  1.00  0.00     0.068 A 
HETATM   18  C   UNL     1      41.545 -13.708   2.710  1.00  0.00     0.081 A 
HETATM   19  C   UNL     1      42.343 -13.482   3.831  1.00  0.00     0.039 A 
HETATM   20  C   UNL     1      43.019 -14.543   4.431  1.00  0.00     0.022 A 
HETATM   21  C   UNL     1      42.902 -15.823   3.892  1.00  0.00     0.012 A 
HETATM   22 BR   UNL     1      43.825 -17.264   4.696  1.00  0.00    -0.051 Br
HETATM   23  C   UNL     1      42.107 -16.059   2.767  1.00  0.00     0.039 A 
BRANCH  18  24
HETATM   24  O   UNL     1      40.927 -12.605   2.185  1.00  0.00    -0.360 OA
HETATM   25  H   UNL     1      40.148 -12.910   1.663  1.00  0.00     0.217 HD
ENDBRANCH  18  24
ENDBRANCH  14  17
ENDBRANCH   7  13
BRANCH   1  26
HETATM   26  O   UNL     1      42.471  -9.360  -0.760  1.00  0.00    -0.356 OA
HETATM   27  C   UNL     1      42.934  -8.210  -1.458  1.00  0.00     0.210 C 
ENDBRANCH   1  26
TORSDOF 4
ENDMDL
