MODEL 1
REMARK VINA RESULT:      -8.8      0.000      0.000
REMARK  4 active torsions:
REMARK  status: ('A' for Active; 'I' for Inactive)
REMARK    1  A    between atoms: C_2  and  C_3 
REMARK       I    between atoms: C_3  and  N_4 
REMARK    2  A    between atoms: N_4  and  C_5 
REMARK    3  A    between atoms: C_12  and  C_13 
REMARK       I    between atoms: C_13  and  N_14 
REMARK    4  A    between atoms: C_19  and  C_20 
ROOT
HETATM    1  C   UNL     1      40.843 -15.485   1.913  1.00  0.00     0.036 A 
HETATM    2  C   UNL     1      40.510 -15.356   0.557  1.00  0.00     0.046 A 
HETATM    3  C   UNL     1      39.764 -14.237   0.127  1.00  0.00     0.030 A 
HETATM    4  C   UNL     1      39.393 -13.279   1.062  1.00  0.00     0.063 A 
HETATM    5  N   UNL     1      38.709 -12.329   0.357  1.00  0.00    -0.277 N 
HETATM    6  H   UNL     1      38.297 -11.475   0.718  1.00  0.00     0.189 HD
HETATM    7  N   UNL     1      38.579 -12.593  -0.953  1.00  0.00    -0.168 NA
HETATM    8  C   UNL     1      39.221 -13.774  -1.110  1.00  0.00     0.156 A 
HETATM    9  C   UNL     1      39.709 -13.375   2.419  1.00  0.00     0.034 A 
HETATM   10  C   UNL     1      40.430 -14.504   2.824  1.00  0.00     0.032 A 
ENDROOT
BRANCH   1  11
HETATM   11  N   UNL     1      41.566 -16.576   2.436  1.00  0.00    -0.323 N 
HETATM   12  C   UNL     1      42.902 -16.858   2.255  1.00  0.00     0.251 C 
HETATM   13  O   UNL     1      43.748 -16.177   1.692  1.00  0.00    -0.268 OA
HETATM   14  H   UNL     1      41.049 -17.219   3.020  1.00  0.00     0.169 HD
BRANCH  12  15
HETATM   15  C   UNL     1      43.310 -18.132   2.921  1.00  0.00     0.007 C 
HETATM   16  C   UNL     1      43.452 -19.291   1.983  1.00  0.00     0.054 C 
HETATM   17  C   UNL     1      43.499 -18.233   4.250  1.00  0.00     0.023 C 
BRANCH  17  18
HETATM   18  C   UNL     1      43.305 -17.185   5.264  1.00  0.00    -0.034 A 
HETATM   19  C   UNL     1      42.001 -16.783   5.583  1.00  0.00     0.035 A 
HETATM   20  C   UNL     1      41.791 -15.765   6.515  1.00  0.00     0.034 A 
HETATM   21 CL   UNL     1      40.184 -15.286   6.903  1.00  0.00    -0.084 Cl
HETATM   22  C   UNL     1      42.868 -15.130   7.129  1.00  0.00     0.024 A 
HETATM   23  C   UNL     1      44.168 -15.512   6.803  1.00  0.00     0.003 A 
HETATM   24  C   UNL     1      44.385 -16.527   5.868  1.00  0.00     0.011 A 
ENDBRANCH  17  18
ENDBRANCH  12  15
ENDBRANCH   1  11
BRANCH   8  25
HETATM   25  C   UNL     1      39.289 -14.432  -2.422  1.00  0.00     0.270 C 
HETATM   26  N   UNL     1      38.515 -15.555  -2.524  1.00  0.00    -0.365 N 
HETATM   27  H   UNL     1      37.981 -15.850  -1.715  1.00  0.00     0.159 HD
HETATM   28  H   UNL     1      38.516 -16.086  -3.380  1.00  0.00     0.159 HD
HETATM   29  O   UNL     1      39.976 -14.049  -3.363  1.00  0.00    -0.266 OA
ENDBRANCH   8  25
TORSDOF 4
ENDMDL
MODEL 2
REMARK VINA RESULT:      -8.5      1.700      2.134
REMARK  4 active torsions:
REMARK  status: ('A' for Active; 'I' for Inactive)
REMARK    1  A    between atoms: C_2  and  C_3 
REMARK       I    between atoms: C_3  and  N_4 
REMARK    2  A    between atoms: N_4  and  C_5 
REMARK    3  A    between atoms: C_12  and  C_13 
REMARK       I    between atoms: C_13  and  N_14 
REMARK    4  A    between atoms: C_19  and  C_20 
ROOT
HETATM    1  C   UNL     1      40.882 -14.725   0.800  1.00  0.00     0.036 A 
HETATM    2  C   UNL     1      40.180 -15.012  -0.380  1.00  0.00     0.046 A 
HETATM    3  C   UNL     1      39.729 -13.953  -1.196  1.00  0.00     0.030 A 
HETATM    4  C   UNL     1      40.010 -12.646  -0.816  1.00  0.00     0.063 A 
HETATM    5  N   UNL     1      39.469 -11.859  -1.794  1.00  0.00    -0.277 N 
HETATM    6  H   UNL     1      39.491 -10.847  -1.849  1.00  0.00     0.189 HD
HETATM    7  N   UNL     1      38.838 -12.535  -2.768  1.00  0.00    -0.168 NA
HETATM    8  C   UNL     1      38.985 -13.831  -2.409  1.00  0.00     0.156 A 
HETATM    9  C   UNL     1      40.707 -12.324   0.350  1.00  0.00     0.034 A 
HETATM   10  C   UNL     1      41.125 -13.391   1.153  1.00  0.00     0.032 A 
ENDROOT
BRANCH   1  11
HETATM   11  N   UNL     1      41.353 -15.715   1.686  1.00  0.00    -0.323 N 
HETATM   12  C   UNL     1      42.658 -16.107   1.884  1.00  0.00     0.251 C 
HETATM   13  O   UNL     1      43.675 -15.618   1.410  1.00  0.00    -0.268 OA
HETATM   14  H   UNL     1      40.656 -16.183   2.249  1.00  0.00     0.169 HD
BRANCH  12  15
HETATM   15  C   UNL     1      42.773 -17.226   2.868  1.00  0.00     0.007 C 
HETATM   16  C   UNL     1      43.057 -18.559   2.246  1.00  0.00     0.054 C 
HETATM   17  C   UNL     1      42.602 -17.053   4.192  1.00  0.00     0.023 C 
BRANCH  17  18
HETATM   18  C   UNL     1      42.240 -15.812   4.893  1.00  0.00    -0.034 A 
HETATM   19  C   UNL     1      43.261 -14.982   5.376  1.00  0.00     0.035 A 
HETATM   20  C   UNL     1      42.944 -13.818   6.077  1.00  0.00     0.034 A 
HETATM   21 CL   UNL     1      44.208 -12.804   6.658  1.00  0.00    -0.084 Cl
HETATM   22  C   UNL     1      41.616 -13.471   6.315  1.00  0.00     0.024 A 
HETATM   23  C   UNL     1      40.596 -14.299   5.854  1.00  0.00     0.003 A 
HETATM   24  C   UNL     1      40.907 -15.469   5.156  1.00  0.00     0.011 A 
ENDBRANCH  17  18
ENDBRANCH  12  15
ENDBRANCH   1  11
BRANCH   8  25
HETATM   25  C   UNL     1      38.405 -14.913  -3.218  1.00  0.00     0.270 C 
HETATM   26  N   UNL     1      38.247 -16.092  -2.543  1.00  0.00    -0.365 N 
HETATM   27  H   UNL     1      38.543 -16.139  -1.575  1.00  0.00     0.159 HD
HETATM   28  H   UNL     1      37.878 -16.896  -3.024  1.00  0.00     0.159 HD
HETATM   29  O   UNL     1      38.090 -14.812  -4.399  1.00  0.00    -0.266 OA
ENDBRANCH   8  25
TORSDOF 4
ENDMDL
MODEL 3
REMARK VINA RESULT:      -8.4      5.866      8.368
REMARK  4 active torsions:
REMARK  status: ('A' for Active; 'I' for Inactive)
REMARK    1  A    between atoms: C_2  and  C_3 
REMARK       I    between atoms: C_3  and  N_4 
REMARK    2  A    between atoms: N_4  and  C_5 
REMARK    3  A    between atoms: C_12  and  C_13 
REMARK       I    between atoms: C_13  and  N_14 
REMARK    4  A    between atoms: C_19  and  C_20 
ROOT
HETATM    1  C   UNL     1      43.367 -11.802   6.831  1.00  0.00     0.036 A 
HETATM    2  C   UNL     1      43.245 -10.554   7.458  1.00  0.00     0.046 A 
HETATM    3  C   UNL     1      44.405  -9.800   7.738  1.00  0.00     0.030 A 
HETATM    4  C   UNL     1      45.643 -10.310   7.366  1.00  0.00     0.063 A 
HETATM    5  N   UNL     1      46.554  -9.366   7.747  1.00  0.00    -0.277 N 
HETATM    6  H   UNL     1      47.560  -9.399   7.624  1.00  0.00     0.189 HD
HETATM    7  N   UNL     1      46.024  -8.294   8.357  1.00  0.00    -0.168 NA
HETATM    8  C   UNL     1      44.696  -8.550   8.365  1.00  0.00     0.156 A 
HETATM    9  C   UNL     1      45.801 -11.548   6.739  1.00  0.00     0.034 A 
HETATM   10  C   UNL     1      44.637 -12.286   6.492  1.00  0.00     0.032 A 
ENDROOT
BRANCH   1  11
HETATM   11  N   UNL     1      42.269 -12.633   6.531  1.00  0.00    -0.323 N 
HETATM   12  C   UNL     1      41.902 -13.121   5.297  1.00  0.00     0.251 C 
HETATM   13  O   UNL     1      42.501 -13.018   4.235  1.00  0.00    -0.268 OA
HETATM   14  H   UNL     1      41.690 -12.912   7.312  1.00  0.00     0.169 HD
BRANCH  12  15
HETATM   15  C   UNL     1      40.647 -13.930   5.354  1.00  0.00     0.007 C 
HETATM   16  C   UNL     1      39.394 -13.110   5.393  1.00  0.00     0.054 C 
HETATM   17  C   UNL     1      40.647 -15.276   5.401  1.00  0.00     0.023 C 
BRANCH  17  18
HETATM   18  C   UNL     1      41.814 -16.169   5.452  1.00  0.00    -0.034 A 
HETATM   19  C   UNL     1      42.295 -16.725   4.259  1.00  0.00     0.035 A 
HETATM   20  C   UNL     1      43.379 -17.606   4.284  1.00  0.00     0.034 A 
HETATM   21 CL   UNL     1      43.964 -18.276   2.812  1.00  0.00    -0.084 Cl
HETATM   22  C   UNL     1      43.986 -17.950   5.490  1.00  0.00     0.024 A 
HETATM   23  C   UNL     1      43.502 -17.415   6.682  1.00  0.00     0.003 A 
HETATM   24  C   UNL     1      42.415 -16.538   6.663  1.00  0.00     0.011 A 
ENDBRANCH  17  18
ENDBRANCH  12  15
ENDBRANCH   1  11
BRANCH   8  25
HETATM   25  C   UNL     1      43.745  -7.611   8.977  1.00  0.00     0.270 C 
HETATM   26  N   UNL     1      43.466  -7.875  10.290  1.00  0.00    -0.365 N 
HETATM   27  H   UNL     1      43.905  -8.677  10.726  1.00  0.00     0.159 HD
HETATM   28  H   UNL     1      42.806  -7.297  10.785  1.00  0.00     0.159 HD
HETATM   29  O   UNL     1      43.217  -6.670   8.394  1.00  0.00    -0.266 OA
ENDBRANCH   8  25
TORSDOF 4
ENDMDL
MODEL 4
REMARK VINA RESULT:      -8.4      2.505      3.654
REMARK  4 active torsions:
REMARK  status: ('A' for Active; 'I' for Inactive)
REMARK    1  A    between atoms: C_2  and  C_3 
REMARK       I    between atoms: C_3  and  N_4 
REMARK    2  A    between atoms: N_4  and  C_5 
REMARK    3  A    between atoms: C_12  and  C_13 
REMARK       I    between atoms: C_13  and  N_14 
REMARK    4  A    between atoms: C_19  and  C_20 
ROOT
HETATM    1  C   UNL     1      41.601 -14.620   2.571  1.00  0.00     0.036 A 
HETATM    2  C   UNL     1      41.555 -13.703   1.512  1.00  0.00     0.046 A 
HETATM    3  C   UNL     1      40.700 -13.949   0.415  1.00  0.00     0.030 A 
HETATM    4  C   UNL     1      39.909 -15.090   0.424  1.00  0.00     0.063 A 
HETATM    5  N   UNL     1      39.193 -15.045  -0.739  1.00  0.00    -0.277 N 
HETATM    6  H   UNL     1      38.505 -15.717  -1.062  1.00  0.00     0.189 HD
HETATM    7  N   UNL     1      39.463 -13.987  -1.519  1.00  0.00    -0.168 NA
HETATM    8  C   UNL     1      40.398 -13.301  -0.822  1.00  0.00     0.156 A 
HETATM    9  C   UNL     1      39.928 -16.024   1.462  1.00  0.00     0.034 A 
HETATM   10  C   UNL     1      40.800 -15.769   2.527  1.00  0.00     0.032 A 
ENDROOT
BRANCH   1  11
HETATM   11  N   UNL     1      42.438 -14.469   3.695  1.00  0.00    -0.323 N 
HETATM   12  C   UNL     1      42.068 -14.497   5.022  1.00  0.00     0.251 C 
HETATM   13  O   UNL     1      40.969 -14.752   5.495  1.00  0.00    -0.268 OA
HETATM   14  H   UNL     1      43.422 -14.337   3.509  1.00  0.00     0.169 HD
BRANCH  12  15
HETATM   15  C   UNL     1      43.221 -14.248   5.939  1.00  0.00     0.007 C 
HETATM   16  C   UNL     1      43.458 -12.800   6.242  1.00  0.00     0.054 C 
HETATM   17  C   UNL     1      43.997 -15.237   6.421  1.00  0.00     0.023 C 
BRANCH  17  18
HETATM   18  C   UNL     1      43.904 -16.674   6.121  1.00  0.00    -0.034 A 
HETATM   19  C   UNL     1      44.173 -17.114   4.818  1.00  0.00     0.035 A 
HETATM   20  C   UNL     1      44.055 -18.468   4.498  1.00  0.00     0.034 A 
HETATM   21 CL   UNL     1      44.395 -18.995   2.896  1.00  0.00    -0.084 Cl
HETATM   22  C   UNL     1      43.663 -19.394   5.461  1.00  0.00     0.024 A 
HETATM   23  C   UNL     1      43.377 -18.962   6.755  1.00  0.00     0.003 A 
HETATM   24  C   UNL     1      43.487 -17.608   7.079  1.00  0.00     0.011 A 
ENDBRANCH  17  18
ENDBRANCH  12  15
ENDBRANCH   1  11
BRANCH   8  25
HETATM   25  C   UNL     1      40.986 -12.064  -1.354  1.00  0.00     0.270 C 
HETATM   26  N   UNL     1      41.541 -12.199  -2.598  1.00  0.00    -0.365 N 
HETATM   27  H   UNL     1      41.521 -13.111  -3.040  1.00  0.00     0.159 HD
HETATM   28  H   UNL     1      41.988 -11.409  -3.033  1.00  0.00     0.159 HD
HETATM   29  O   UNL     1      41.010 -10.989  -0.763  1.00  0.00    -0.266 OA
ENDBRANCH   8  25
TORSDOF 4
ENDMDL
MODEL 5
REMARK VINA RESULT:      -8.0      2.595      4.092
REMARK  4 active torsions:
REMARK  status: ('A' for Active; 'I' for Inactive)
REMARK    1  A    between atoms: C_2  and  C_3 
REMARK       I    between atoms: C_3  and  N_4 
REMARK    2  A    between atoms: N_4  and  C_5 
REMARK    3  A    between atoms: C_12  and  C_13 
REMARK       I    between atoms: C_13  and  N_14 
REMARK    4  A    between atoms: C_19  and  C_20 
ROOT
HETATM    1  C   UNL     1      40.911 -13.828   1.936  1.00  0.00     0.036 A 
HETATM    2  C   UNL     1      40.058 -12.720   1.833  1.00  0.00     0.046 A 
HETATM    3  C   UNL     1      39.239 -12.577   0.693  1.00  0.00     0.030 A 
HETATM    4  C   UNL     1      39.286 -13.553  -0.294  1.00  0.00     0.063 A 
HETATM    5  N   UNL     1      38.388 -13.153  -1.244  1.00  0.00    -0.277 N 
HETATM    6  H   UNL     1      38.154 -13.632  -2.107  1.00  0.00     0.189 HD
HETATM    7  N   UNL     1      37.775 -11.989  -0.976  1.00  0.00    -0.168 NA
HETATM    8  C   UNL     1      38.295 -11.616   0.216  1.00  0.00     0.156 A 
HETATM    9  C   UNL     1      40.122 -14.669  -0.224  1.00  0.00     0.034 A 
HETATM   10  C   UNL     1      40.940 -14.778   0.907  1.00  0.00     0.032 A 
ENDROOT
BRANCH   1  11
HETATM   11  N   UNL     1      41.779 -14.044   3.026  1.00  0.00    -0.323 N 
HETATM   12  C   UNL     1      41.535 -14.800   4.152  1.00  0.00     0.251 C 
HETATM   13  O   UNL     1      40.568 -15.510   4.391  1.00  0.00    -0.268 OA
HETATM   14  H   UNL     1      42.687 -13.604   2.972  1.00  0.00     0.169 HD
BRANCH  12  15
HETATM   15  C   UNL     1      42.670 -14.756   5.122  1.00  0.00     0.007 C 
HETATM   16  C   UNL     1      42.763 -13.477   5.896  1.00  0.00     0.054 C 
HETATM   17  C   UNL     1      43.550 -15.766   5.263  1.00  0.00     0.023 C 
BRANCH  17  18
HETATM   18  C   UNL     1      43.600 -17.022   4.499  1.00  0.00    -0.034 A 
HETATM   19  C   UNL     1      43.917 -18.211   5.170  1.00  0.00     0.035 A 
HETATM   20  C   UNL     1      44.008 -19.411   4.462  1.00  0.00     0.034 A 
HETATM   21 CL   UNL     1      44.392 -20.865   5.298  1.00  0.00    -0.084 Cl
HETATM   22  C   UNL     1      43.795 -19.441   3.085  1.00  0.00     0.024 A 
HETATM   23  C   UNL     1      43.497 -18.261   2.409  1.00  0.00     0.003 A 
HETATM   24  C   UNL     1      43.410 -17.056   3.111  1.00  0.00     0.011 A 
ENDBRANCH  17  18
ENDBRANCH  12  15
ENDBRANCH   1  11
BRANCH   8  25
HETATM   25  C   UNL     1      37.893 -10.357   0.859  1.00  0.00     0.270 C 
HETATM   26  N   UNL     1      36.617 -10.365   1.352  1.00  0.00    -0.365 N 
HETATM   27  H   UNL     1      36.056 -11.201   1.231  1.00  0.00     0.159 HD
HETATM   28  H   UNL     1      36.246  -9.537   1.789  1.00  0.00     0.159 HD
HETATM   29  O   UNL     1      38.603  -9.362   0.954  1.00  0.00    -0.266 OA
ENDBRANCH   8  25
TORSDOF 4
ENDMDL
MODEL 6
REMARK VINA RESULT:      -8.0      2.348      3.676
REMARK  4 active torsions:
REMARK  status: ('A' for Active; 'I' for Inactive)
REMARK    1  A    between atoms: C_2  and  C_3 
REMARK       I    between atoms: C_3  and  N_4 
REMARK    2  A    between atoms: N_4  and  C_5 
REMARK    3  A    between atoms: C_12  and  C_13 
REMARK       I    between atoms: C_13  and  N_14 
REMARK    4  A    between atoms: C_19  and  C_20 
ROOT
HETATM    1  C   UNL     1      40.949 -13.189   3.448  1.00  0.00     0.036 A 
HETATM    2  C   UNL     1      40.797 -13.513   2.093  1.00  0.00     0.046 A 
HETATM    3  C   UNL     1      39.758 -12.916   1.347  1.00  0.00     0.030 A 
HETATM    4  C   UNL     1      38.920 -12.003   1.976  1.00  0.00     0.063 A 
HETATM    5  N   UNL     1      38.042 -11.593   1.012  1.00  0.00    -0.277 N 
HETATM    6  H   UNL     1      37.291 -10.919   1.114  1.00  0.00     0.189 HD
HETATM    7  N   UNL     1      38.216 -12.174  -0.185  1.00  0.00    -0.168 NA
HETATM    8  C   UNL     1      39.271 -13.000   0.007  1.00  0.00     0.156 A 
HETATM    9  C   UNL     1      39.044 -11.656   3.323  1.00  0.00     0.034 A 
HETATM   10  C   UNL     1      40.068 -12.279   4.046  1.00  0.00     0.032 A 
ENDROOT
BRANCH   1  11
HETATM   11  N   UNL     1      41.943 -13.750   4.276  1.00  0.00    -0.323 N 
HETATM   12  C   UNL     1      41.804 -14.802   5.154  1.00  0.00     0.251 C 
HETATM   13  O   UNL     1      40.829 -15.521   5.323  1.00  0.00    -0.268 OA
HETATM   14  H   UNL     1      42.866 -13.341   4.211  1.00  0.00     0.169 HD
BRANCH  12  15
HETATM   15  C   UNL     1      43.065 -15.087   5.903  1.00  0.00     0.007 C 
HETATM   16  C   UNL     1      43.374 -14.091   6.979  1.00  0.00     0.054 C 
HETATM   17  C   UNL     1      43.867 -16.129   5.614  1.00  0.00     0.023 C 
BRANCH  17  18
HETATM   18  C   UNL     1      43.701 -17.112   4.531  1.00  0.00    -0.034 A 
HETATM   19  C   UNL     1      43.925 -18.467   4.806  1.00  0.00     0.035 A 
HETATM   20  C   UNL     1      43.811 -19.416   3.788  1.00  0.00     0.034 A 
HETATM   21 CL   UNL     1      44.082 -21.078   4.140  1.00  0.00    -0.084 Cl
HETATM   22  C   UNL     1      43.485 -19.029   2.490  1.00  0.00     0.024 A 
HETATM   23  C   UNL     1      43.278 -17.682   2.205  1.00  0.00     0.003 A 
HETATM   24  C   UNL     1      43.396 -16.727   3.219  1.00  0.00     0.011 A 
ENDBRANCH  17  18
ENDBRANCH  12  15
ENDBRANCH   1  11
BRANCH   8  25
HETATM   25  C   UNL     1      39.775 -13.853  -1.079  1.00  0.00     0.270 C 
HETATM   26  N   UNL     1      40.876 -13.350  -1.718  1.00  0.00    -0.365 N 
HETATM   27  H   UNL     1      41.243 -12.455  -1.418  1.00  0.00     0.159 HD
HETATM   28  H   UNL     1      41.277 -13.855  -2.491  1.00  0.00     0.159 HD
HETATM   29  O   UNL     1      39.274 -14.918  -1.423  1.00  0.00    -0.266 OA
ENDBRANCH   8  25
TORSDOF 4
ENDMDL
MODEL 7
REMARK VINA RESULT:      -8.0      2.397      3.902
REMARK  4 active torsions:
REMARK  status: ('A' for Active; 'I' for Inactive)
REMARK    1  A    between atoms: C_2  and  C_3 
REMARK       I    between atoms: C_3  and  N_4 
REMARK    2  A    between atoms: N_4  and  C_5 
REMARK    3  A    between atoms: C_12  and  C_13 
REMARK       I    between atoms: C_13  and  N_14 
REMARK    4  A    between atoms: C_19  and  C_20 
ROOT
HETATM    1  C   UNL     1      41.197 -13.851   4.744  1.00  0.00     0.036 A 
HETATM    2  C   UNL     1      41.102 -13.966   3.350  1.00  0.00     0.046 A 
HETATM    3  C   UNL     1      40.168 -13.173   2.648  1.00  0.00     0.030 A 
HETATM    4  C   UNL     1      39.376 -12.281   3.360  1.00  0.00     0.063 A 
HETATM    5  N   UNL     1      38.600 -11.658   2.424  1.00  0.00    -0.277 N 
HETATM    6  H   UNL     1      37.906 -10.935   2.585  1.00  0.00     0.189 HD
HETATM    7  N   UNL     1      38.797 -12.081   1.165  1.00  0.00    -0.168 NA
HETATM    8  C   UNL     1      39.760 -13.023   1.288  1.00  0.00     0.156 A 
HETATM    9  C   UNL     1      39.445 -12.139   4.748  1.00  0.00     0.034 A 
HETATM   10  C   UNL     1      40.364 -12.952   5.423  1.00  0.00     0.032 A 
ENDROOT
BRANCH   1  11
HETATM   11  N   UNL     1      42.083 -14.615   5.530  1.00  0.00    -0.323 N 
HETATM   12  C   UNL     1      41.803 -15.773   6.221  1.00  0.00     0.251 C 
HETATM   13  O   UNL     1      40.767 -16.424   6.215  1.00  0.00    -0.268 OA
HETATM   14  H   UNL     1      43.036 -14.282   5.585  1.00  0.00     0.169 HD
BRANCH  12  15
HETATM   15  C   UNL     1      42.981 -16.276   6.989  1.00  0.00     0.007 C 
HETATM   16  C   UNL     1      43.137 -15.656   8.343  1.00  0.00     0.054 C 
HETATM   17  C   UNL     1      43.843 -17.184   6.492  1.00  0.00     0.023 C 
BRANCH  17  18
HETATM   18  C   UNL     1      43.830 -17.790   5.151  1.00  0.00    -0.034 A 
HETATM   19  C   UNL     1      43.561 -16.977   4.042  1.00  0.00     0.035 A 
HETATM   20  C   UNL     1      43.506 -17.534   2.763  1.00  0.00     0.034 A 
HETATM   21 CL   UNL     1      43.181 -16.524   1.409  1.00  0.00    -0.084 Cl
HETATM   22  C   UNL     1      43.707 -18.899   2.574  1.00  0.00     0.024 A 
HETATM   23  C   UNL     1      43.958 -19.717   3.673  1.00  0.00     0.003 A 
HETATM   24  C   UNL     1      44.008 -19.166   4.957  1.00  0.00     0.011 A 
ENDBRANCH  17  18
ENDBRANCH  12  15
ENDBRANCH   1  11
BRANCH   8  25
HETATM   25  C   UNL     1      40.254 -13.760   0.116  1.00  0.00     0.270 C 
HETATM   26  N   UNL     1      40.868 -12.974  -0.820  1.00  0.00    -0.365 N 
HETATM   27  H   UNL     1      40.925 -11.976  -0.652  1.00  0.00     0.159 HD
HETATM   28  H   UNL     1      41.218 -13.389  -1.668  1.00  0.00     0.159 HD
HETATM   29  O   UNL     1      40.133 -14.969  -0.052  1.00  0.00    -0.266 OA
ENDBRANCH   8  25
TORSDOF 4
ENDMDL
MODEL 8
REMARK VINA RESULT:      -7.9      2.270      3.215
REMARK  4 active torsions:
REMARK  status: ('A' for Active; 'I' for Inactive)
REMARK    1  A    between atoms: C_2  and  C_3 
REMARK       I    between atoms: C_3  and  N_4 
REMARK    2  A    between atoms: N_4  and  C_5 
REMARK    3  A    between atoms: C_12  and  C_13 
REMARK       I    between atoms: C_13  and  N_14 
REMARK    4  A    between atoms: C_19  and  C_20 
ROOT
HETATM    1  C   UNL     1      40.880 -14.879   1.032  1.00  0.00     0.036 A 
HETATM    2  C   UNL     1      41.233 -13.533   1.201  1.00  0.00     0.046 A 
HETATM    3  C   UNL     1      40.692 -12.557   0.336  1.00  0.00     0.030 A 
HETATM    4  C   UNL     1      39.803 -12.957  -0.654  1.00  0.00     0.063 A 
HETATM    5  N   UNL     1      39.446 -11.811  -1.306  1.00  0.00    -0.277 N 
HETATM    6  H   UNL     1      38.802 -11.723  -2.084  1.00  0.00     0.189 HD
HETATM    7  N   UNL     1      40.041 -10.699  -0.846  1.00  0.00    -0.168 NA
HETATM    8  C   UNL     1      40.820 -11.145   0.167  1.00  0.00     0.156 A 
HETATM    9  C   UNL     1      39.428 -14.288  -0.850  1.00  0.00     0.034 A 
HETATM   10  C   UNL     1      39.995 -15.239   0.007  1.00  0.00     0.032 A 
ENDROOT
BRANCH   1  11
HETATM   11  N   UNL     1      41.385 -15.923   1.833  1.00  0.00    -0.323 N 
HETATM   12  C   UNL     1      42.695 -16.333   1.944  1.00  0.00     0.251 C 
HETATM   13  O   UNL     1      43.691 -15.819   1.454  1.00  0.00    -0.268 OA
HETATM   14  H   UNL     1      40.711 -16.422   2.399  1.00  0.00     0.169 HD
BRANCH  12  15
HETATM   15  C   UNL     1      42.848 -17.510   2.851  1.00  0.00     0.007 C 
HETATM   16  C   UNL     1      43.171 -18.789   2.142  1.00  0.00     0.054 C 
HETATM   17  C   UNL     1      42.677 -17.431   4.185  1.00  0.00     0.023 C 
BRANCH  17  18
HETATM   18  C   UNL     1      42.278 -16.251   4.968  1.00  0.00    -0.034 A 
HETATM   19  C   UNL     1      43.262 -15.336   5.365  1.00  0.00     0.035 A 
HETATM   20  C   UNL     1      42.917 -14.228   6.140  1.00  0.00     0.034 A 
HETATM   21 CL   UNL     1      44.134 -13.109   6.615  1.00  0.00    -0.084 Cl
HETATM   22  C   UNL     1      41.597 -14.022   6.535  1.00  0.00     0.024 A 
HETATM   23  C   UNL     1      40.615 -14.936   6.160  1.00  0.00     0.003 A 
HETATM   24  C   UNL     1      40.957 -16.050   5.388  1.00  0.00     0.011 A 
ENDBRANCH  17  18
ENDBRANCH  12  15
ENDBRANCH   1  11
BRANCH   8  25
HETATM   25  C   UNL     1      41.670 -10.222   0.933  1.00  0.00     0.270 C 
HETATM   26  N   UNL     1      41.685  -8.943   0.448  1.00  0.00    -0.365 N 
HETATM   27  H   UNL     1      41.141  -8.734  -0.381  1.00  0.00     0.159 HD
HETATM   28  H   UNL     1      42.258  -8.247   0.895  1.00  0.00     0.159 HD
HETATM   29  O   UNL     1      42.334 -10.535   1.916  1.00  0.00    -0.266 OA
ENDBRANCH   8  25
TORSDOF 4
ENDMDL
MODEL 9
REMARK VINA RESULT:      -7.9      3.210      7.954
REMARK  4 active torsions:
REMARK  status: ('A' for Active; 'I' for Inactive)
REMARK    1  A    between atoms: C_2  and  C_3 
REMARK       I    between atoms: C_3  and  N_4 
REMARK    2  A    between atoms: N_4  and  C_5 
REMARK    3  A    between atoms: C_12  and  C_13 
REMARK       I    between atoms: C_13  and  N_14 
REMARK    4  A    between atoms: C_19  and  C_20 
ROOT
HETATM    1  C   UNL     1      41.549 -15.522   2.908  1.00  0.00     0.036 A 
HETATM    2  C   UNL     1      42.293 -15.715   4.080  1.00  0.00     0.046 A 
HETATM    3  C   UNL     1      43.096 -16.868   4.213  1.00  0.00     0.030 A 
HETATM    4  C   UNL     1      43.143 -17.777   3.164  1.00  0.00     0.063 A 
HETATM    5  N   UNL     1      43.999 -18.761   3.574  1.00  0.00    -0.277 N 
HETATM    6  H   UNL     1      44.279 -19.586   3.055  1.00  0.00     0.189 HD
HETATM    7  N   UNL     1      44.499 -18.586   4.808  1.00  0.00    -0.168 NA
HETATM    8  C   UNL     1      43.945 -17.423   5.219  1.00  0.00     0.156 A 
HETATM    9  C   UNL     1      42.417 -17.617   1.982  1.00  0.00     0.034 A 
HETATM   10  C   UNL     1      41.611 -16.476   1.884  1.00  0.00     0.032 A 
ENDROOT
BRANCH   1  11
HETATM   11  N   UNL     1      40.705 -14.413   2.694  1.00  0.00    -0.323 N 
HETATM   12  C   UNL     1      41.078 -13.130   2.363  1.00  0.00     0.251 C 
HETATM   13  O   UNL     1      42.197 -12.714   2.092  1.00  0.00    -0.268 OA
HETATM   14  H   UNL     1      39.712 -14.580   2.784  1.00  0.00     0.169 HD
BRANCH  12  15
HETATM   15  C   UNL     1      39.910 -12.204   2.269  1.00  0.00     0.007 C 
HETATM   16  C   UNL     1      39.374 -11.762   3.596  1.00  0.00     0.054 C 
HETATM   17  C   UNL     1      39.368 -11.828   1.095  1.00  0.00     0.023 C 
BRANCH  17  18
HETATM   18  C   UNL     1      39.761 -12.267  -0.253  1.00  0.00    -0.034 A 
HETATM   19  C   UNL     1      39.155 -13.407  -0.798  1.00  0.00     0.035 A 
HETATM   20  C   UNL     1      39.536 -13.867  -2.060  1.00  0.00     0.034 A 
HETATM   21 CL   UNL     1      38.779 -15.263  -2.722  1.00  0.00    -0.084 Cl
HETATM   22  C   UNL     1      40.526 -13.208  -2.786  1.00  0.00     0.024 A 
HETATM   23  C   UNL     1      41.146 -12.085  -2.243  1.00  0.00     0.003 A 
HETATM   24  C   UNL     1      40.772 -11.624  -0.978  1.00  0.00     0.011 A 
ENDBRANCH  17  18
ENDBRANCH  12  15
ENDBRANCH   1  11
BRANCH   8  25
HETATM   25  C   UNL     1      44.225 -16.880   6.556  1.00  0.00     0.270 C 
HETATM   26  N   UNL     1      43.322 -17.257   7.513  1.00  0.00    -0.365 N 
HETATM   27  H   UNL     1      42.547 -17.849   7.239  1.00  0.00     0.159 HD
HETATM   28  H   UNL     1      43.421 -16.914   8.454  1.00  0.00     0.159 HD
HETATM   29  O   UNL     1      45.165 -16.141   6.829  1.00  0.00    -0.266 OA
ENDBRANCH   8  25
TORSDOF 4
ENDMDL
MODEL 10
REMARK VINA RESULT:      -7.8      3.539      6.639
REMARK  4 active torsions:
REMARK  status: ('A' for Active; 'I' for Inactive)
REMARK    1  A    between atoms: C_2  and  C_3 
REMARK       I    between atoms: C_3  and  N_4 
REMARK    2  A    between atoms: N_4  and  C_5 
REMARK    3  A    between atoms: C_12  and  C_13 
REMARK       I    between atoms: C_13  and  N_14 
REMARK    4  A    between atoms: C_19  and  C_20 
ROOT
HETATM    1  C   UNL     1      43.217 -15.951   3.705  1.00  0.00     0.036 A 
HETATM    2  C   UNL     1      43.216 -17.186   3.043  1.00  0.00     0.046 A 
HETATM    3  C   UNL     1      43.567 -18.356   3.751  1.00  0.00     0.030 A 
HETATM    4  C   UNL     1      43.889 -18.252   5.099  1.00  0.00     0.063 A 
HETATM    5  N   UNL     1      44.164 -19.528   5.505  1.00  0.00    -0.277 N 
HETATM    6  H   UNL     1      44.429 -19.831   6.436  1.00  0.00     0.189 HD
HETATM    7  N   UNL     1      44.074 -20.453   4.537  1.00  0.00    -0.168 NA
HETATM    8  C   UNL     1      43.711 -19.743   3.444  1.00  0.00     0.156 A 
HETATM    9  C   UNL     1      43.899 -17.039   5.790  1.00  0.00     0.034 A 
HETATM   10  C   UNL     1      43.568 -15.891   5.060  1.00  0.00     0.032 A 
ENDROOT
BRANCH   1  11
HETATM   11  N   UNL     1      42.900 -14.730   3.076  1.00  0.00    -0.323 N 
HETATM   12  C   UNL     1      41.680 -14.090   3.057  1.00  0.00     0.251 C 
HETATM   13  O   UNL     1      40.658 -14.395   3.656  1.00  0.00    -0.268 OA
HETATM   14  H   UNL     1      43.656 -14.264   2.592  1.00  0.00     0.169 HD
BRANCH  12  15
HETATM   15  C   UNL     1      41.707 -12.838   2.243  1.00  0.00     0.007 C 
HETATM   16  C   UNL     1      41.383 -13.044   0.795  1.00  0.00     0.054 C 
HETATM   17  C   UNL     1      42.027 -11.637   2.761  1.00  0.00     0.023 C 
BRANCH  17  18
HETATM   18  C   UNL     1      42.440 -11.339   4.142  1.00  0.00    -0.034 A 
HETATM   19  C   UNL     1      43.788 -11.492   4.493  1.00  0.00     0.035 A 
HETATM   20  C   UNL     1      44.200 -11.252   5.806  1.00  0.00     0.034 A 
HETATM   21 CL   UNL     1      45.859 -11.437   6.223  1.00  0.00    -0.084 Cl
HETATM   22  C   UNL     1      43.281 -10.870   6.780  1.00  0.00     0.024 A 
HETATM   23  C   UNL     1      41.937 -10.733   6.442  1.00  0.00     0.003 A 
HETATM   24  C   UNL     1      41.517 -10.977   5.132  1.00  0.00     0.011 A 
ENDBRANCH  17  18
ENDBRANCH  12  15
ENDBRANCH   1  11
BRANCH   8  25
HETATM   25  C   UNL     1      43.526 -20.398   2.141  1.00  0.00     0.270 C 
HETATM   26  N   UNL     1      42.245 -20.337   1.663  1.00  0.00    -0.365 N 
HETATM   27  H   UNL     1      41.540 -19.875   2.225  1.00  0.00     0.159 HD
HETATM   28  H   UNL     1      42.018 -20.778   0.787  1.00  0.00     0.159 HD
HETATM   29  O   UNL     1      44.410 -20.970   1.513  1.00  0.00    -0.266 OA
ENDBRANCH   8  25
TORSDOF 4
ENDMDL
