MODEL 1
REMARK VINA RESULT:      -9.3      0.000      0.000
REMARK  7 active torsions:
REMARK  status: ('A' for Active; 'I' for Inactive)
REMARK    1  A    between atoms: C_2  and  N_3 
REMARK    2  A    between atoms: N_7  and  C_8 
REMARK    3  A    between atoms: C_11  and  N_12 
REMARK    4  A    between atoms: N_12  and  C_13 
REMARK    5  A    between atoms: C_13  and  N_14 
REMARK       I    between atoms: N_14  and  C_15 
REMARK    6  A    between atoms: C_15  and  C_16 
REMARK    7  A    between atoms: C_18  and  C_19 
ROOT
HETATM    1  C   UNL     1      39.979 -12.102   5.185  1.00  0.00     0.179 C 
HETATM    2  S   UNL     1      38.823 -11.186   5.996  1.00  0.00    -0.040 SA
ENDROOT
BRANCH   1   3
HETATM    3  N   UNL     1      39.766 -13.274   4.506  1.00  0.00    -0.333 N 
HETATM    4  H   UNL     1      39.215 -13.955   5.023  1.00  0.00     0.168 HD
BRANCH   3   5
HETATM    5  C   UNL     1      39.771 -13.408   3.098  1.00  0.00     0.034 A 
HETATM    6  C   UNL     1      40.168 -14.588   2.482  1.00  0.00     0.032 A 
HETATM    7  C   UNL     1      40.216 -14.684   1.083  1.00  0.00     0.031 A 
HETATM    8  C   UNL     1      39.901 -13.601   0.245  1.00  0.00     0.030 A 
HETATM    9  C   UNL     1      39.397 -12.462   0.899  1.00  0.00     0.031 A 
HETATM   10  C   UNL     1      39.333 -12.361   2.301  1.00  0.00     0.032 A 
BRANCH   8  11
HETATM   11  N   UNL     1      40.046 -13.677  -1.154  1.00  0.00    -0.378 N 
HETATM   12  C   UNL     1      40.576 -12.487  -1.864  1.00  0.00     0.150 C 
HETATM   13  C   UNL     1      39.462 -11.428  -2.036  1.00  0.00     0.254 C 
HETATM   14  N   UNL     1      38.261 -12.026  -2.792  1.00  0.00    -0.068 N 
HETATM   15  H   UNL     1      38.588 -12.270  -3.735  1.00  0.00     0.280 HD
HETATM   16  C   UNL     1      37.790 -13.342  -2.138  1.00  0.00     0.254 C 
HETATM   17  C   UNL     1      38.974 -14.320  -1.947  1.00  0.00     0.150 C 
BRANCH  14  18
HETATM   18  C   UNL     1      37.105 -11.060  -2.928  1.00  0.00     0.230 C 
HETATM   19  C   UNL     1      37.552  -9.634  -2.667  1.00  0.00     0.034 C 
ENDBRANCH  14  18
ENDBRANCH   8  11
ENDBRANCH   3   5
ENDBRANCH   1   3
BRANCH   1  20
HETATM   20  N   UNL     1      41.267 -11.606   5.234  1.00  0.00    -0.298 N 
HETATM   21  C   UNL     1      42.580 -12.049   5.067  1.00  0.00     0.281 C 
HETATM   22  O   UNL     1      43.368 -11.206   4.626  1.00  0.00    -0.265 OA
HETATM   23  H   UNL     1      41.257 -10.604   5.078  1.00  0.00     0.171 HD
BRANCH  21  24
HETATM   24  C   UNL     1      43.016 -13.390   5.385  1.00  0.00     0.144 A 
HETATM   25  O   UNL     1      43.110 -14.394   4.453  1.00  0.00    -0.304 OA
HETATM   26  C   UNL     1      43.422 -15.542   5.134  1.00  0.00     0.086 A 
HETATM   27  C   UNL     1      43.541 -15.284   6.482  1.00  0.00     0.041 A 
HETATM   28  C   UNL     1      43.294 -13.907   6.641  1.00  0.00     0.046 A 
BRANCH  26  29
HETATM   29  C   UNL     1      43.519 -16.765   4.358  1.00  0.00    -0.001 A 
HETATM   30  C   UNL     1      43.924 -17.962   4.957  1.00  0.00     0.040 A 
HETATM   31  C   UNL     1      43.997 -19.142   4.208  1.00  0.00     0.056 A 
HETATM   32 CL   UNL     1      44.530 -20.574   5.019  1.00  0.00    -0.083 Cl
HETATM   33  C   UNL     1      43.650 -19.135   2.853  1.00  0.00     0.055 A 
HETATM   34 CL   UNL     1      43.721 -20.554   1.871  1.00  0.00    -0.083 Cl
HETATM   35  C   UNL     1      43.228 -17.946   2.254  1.00  0.00     0.026 A 
HETATM   36  C   UNL     1      43.162 -16.769   3.004  1.00  0.00     0.016 A 
ENDBRANCH  26  29
ENDBRANCH  21  24
ENDBRANCH   1  20
TORSDOF 7
ENDMDL
MODEL 2
REMARK VINA RESULT:      -8.9      1.250      2.239
REMARK  7 active torsions:
REMARK  status: ('A' for Active; 'I' for Inactive)
REMARK    1  A    between atoms: C_2  and  N_3 
REMARK    2  A    between atoms: N_7  and  C_8 
REMARK    3  A    between atoms: C_11  and  N_12 
REMARK    4  A    between atoms: N_12  and  C_13 
REMARK    5  A    between atoms: C_13  and  N_14 
REMARK       I    between atoms: N_14  and  C_15 
REMARK    6  A    between atoms: C_15  and  C_16 
REMARK    7  A    between atoms: C_18  and  C_19 
ROOT
HETATM    1  C   UNL     1      40.012 -12.336   4.993  1.00  0.00     0.179 C 
HETATM    2  S   UNL     1      38.954 -11.388   5.896  1.00  0.00    -0.040 SA
ENDROOT
BRANCH   1   3
HETATM    3  N   UNL     1      39.681 -13.404   4.200  1.00  0.00    -0.333 N 
HETATM    4  H   UNL     1      39.110 -14.103   4.668  1.00  0.00     0.168 HD
BRANCH   3   5
HETATM    5  C   UNL     1      39.607 -13.374   2.788  1.00  0.00     0.034 A 
HETATM    6  C   UNL     1      39.289 -12.209   2.101  1.00  0.00     0.032 A 
HETATM    7  C   UNL     1      39.170 -12.212   0.704  1.00  0.00     0.031 A 
HETATM    8  C   UNL     1      39.331 -13.379  -0.062  1.00  0.00     0.030 A 
HETATM    9  C   UNL     1      39.761 -14.511   0.654  1.00  0.00     0.031 A 
HETATM   10  C   UNL     1      39.897 -14.515   2.055  1.00  0.00     0.032 A 
BRANCH   8  11
HETATM   11  N   UNL     1      39.113 -13.393  -1.452  1.00  0.00    -0.378 N 
HETATM   12  C   UNL     1      40.289 -13.571  -2.340  1.00  0.00     0.150 C 
HETATM   13  C   UNL     1      41.063 -12.239  -2.474  1.00  0.00     0.254 C 
HETATM   14  N   UNL     1      40.139 -11.128  -3.007  1.00  0.00    -0.068 N 
HETATM   15  H   UNL     1      39.852 -11.403  -3.956  1.00  0.00     0.280 HD
HETATM   16  C   UNL     1      38.846 -11.030  -2.171  1.00  0.00     0.254 C 
HETATM   17  C   UNL     1      38.168 -12.414  -2.035  1.00  0.00     0.150 C 
BRANCH  14  18
HETATM   18  C   UNL     1      40.819  -9.780  -3.091  1.00  0.00     0.230 C 
HETATM   19  C   UNL     1      40.551  -9.116  -4.429  1.00  0.00     0.034 C 
ENDBRANCH  14  18
ENDBRANCH   8  11
ENDBRANCH   3   5
ENDBRANCH   1   3
BRANCH   1  20
HETATM   20  N   UNL     1      41.345 -11.986   5.087  1.00  0.00    -0.298 N 
HETATM   21  C   UNL     1      42.541 -12.176   4.395  1.00  0.00     0.281 C 
HETATM   22  O   UNL     1      43.351 -11.247   4.477  1.00  0.00    -0.265 OA
HETATM   23  H   UNL     1      41.443 -11.146   5.648  1.00  0.00     0.171 HD
BRANCH  21  24
HETATM   24  C   UNL     1      42.842 -13.368   3.633  1.00  0.00     0.144 A 
HETATM   25  O   UNL     1      42.877 -14.626   4.184  1.00  0.00    -0.304 OA
HETATM   26  C   UNL     1      43.321 -15.477   3.205  1.00  0.00     0.086 A 
HETATM   27  C   UNL     1      43.557 -14.785   2.038  1.00  0.00     0.041 A 
HETATM   28  C   UNL     1      43.239 -13.440   2.308  1.00  0.00     0.046 A 
BRANCH  26  29
HETATM   29  C   UNL     1      43.497 -16.870   3.572  1.00  0.00    -0.001 A 
HETATM   30  C   UNL     1      43.443 -17.877   2.602  1.00  0.00     0.040 A 
HETATM   31  C   UNL     1      43.632 -19.218   2.959  1.00  0.00     0.056 A 
HETATM   32 CL   UNL     1      43.525 -20.403   1.704  1.00  0.00    -0.083 Cl
HETATM   33  C   UNL     1      43.893 -19.559   4.289  1.00  0.00     0.055 A 
HETATM   34 CL   UNL     1      44.133 -21.192   4.797  1.00  0.00    -0.083 Cl
HETATM   35  C   UNL     1      43.967 -18.556   5.259  1.00  0.00     0.026 A 
HETATM   36  C   UNL     1      43.771 -17.220   4.900  1.00  0.00     0.016 A 
ENDBRANCH  26  29
ENDBRANCH  21  24
ENDBRANCH   1  20
TORSDOF 7
ENDMDL
MODEL 3
REMARK VINA RESULT:      -8.9      0.946      1.268
REMARK  7 active torsions:
REMARK  status: ('A' for Active; 'I' for Inactive)
REMARK    1  A    between atoms: C_2  and  N_3 
REMARK    2  A    between atoms: N_7  and  C_8 
REMARK    3  A    between atoms: C_11  and  N_12 
REMARK    4  A    between atoms: N_12  and  C_13 
REMARK    5  A    between atoms: C_13  and  N_14 
REMARK       I    between atoms: N_14  and  C_15 
REMARK    6  A    between atoms: C_15  and  C_16 
REMARK    7  A    between atoms: C_18  and  C_19 
ROOT
HETATM    1  C   UNL     1      39.770 -11.954   5.349  1.00  0.00     0.179 C 
HETATM    2  S   UNL     1      38.801 -10.654   5.799  1.00  0.00    -0.040 SA
ENDROOT
BRANCH   1   3
HETATM    3  N   UNL     1      39.377 -13.063   4.646  1.00  0.00    -0.333 N 
HETATM    4  H   UNL     1      38.653 -13.608   5.108  1.00  0.00     0.168 HD
BRANCH   3   5
HETATM    5  C   UNL     1      39.477 -13.212   3.243  1.00  0.00     0.034 A 
HETATM    6  C   UNL     1      39.711 -14.450   2.658  1.00  0.00     0.032 A 
HETATM    7  C   UNL     1      39.858 -14.569   1.269  1.00  0.00     0.031 A 
HETATM    8  C   UNL     1      39.810 -13.458   0.410  1.00  0.00     0.030 A 
HETATM    9  C   UNL     1      39.460 -12.240   1.024  1.00  0.00     0.031 A 
HETATM   10  C   UNL     1      39.298 -12.114   2.416  1.00  0.00     0.032 A 
BRANCH   8  11
HETATM   11  N   UNL     1      40.056 -13.573  -0.971  1.00  0.00    -0.378 N 
HETATM   12  C   UNL     1      40.608 -12.393  -1.681  1.00  0.00     0.150 C 
HETATM   13  C   UNL     1      39.485 -11.368  -1.966  1.00  0.00     0.254 C 
HETATM   14  N   UNL     1      38.355 -12.020  -2.785  1.00  0.00    -0.068 N 
HETATM   15  H   UNL     1      38.754 -12.285  -3.695  1.00  0.00     0.280 HD
HETATM   16  C   UNL     1      37.869 -13.327  -2.123  1.00  0.00     0.254 C 
HETATM   17  C   UNL     1      39.059 -14.268  -1.817  1.00  0.00     0.150 C 
BRANCH  14  18
HETATM   18  C   UNL     1      37.190 -11.089  -3.035  1.00  0.00     0.230 C 
HETATM   19  C   UNL     1      37.490  -9.691  -2.527  1.00  0.00     0.034 C 
ENDBRANCH  14  18
ENDBRANCH   8  11
ENDBRANCH   3   5
ENDBRANCH   1   3
BRANCH   1  20
HETATM   20  N   UNL     1      41.088 -11.875   5.752  1.00  0.00    -0.298 N 
HETATM   21  C   UNL     1      42.368 -12.073   5.232  1.00  0.00     0.281 C 
HETATM   22  O   UNL     1      43.249 -11.352   5.713  1.00  0.00    -0.265 OA
HETATM   23  H   UNL     1      41.171 -11.247   6.544  1.00  0.00     0.171 HD
BRANCH  21  24
HETATM   24  C   UNL     1      42.672 -13.049   4.210  1.00  0.00     0.144 A 
HETATM   25  O   UNL     1      42.702 -14.402   4.443  1.00  0.00    -0.304 OA
HETATM   26  C   UNL     1      43.151 -14.995   3.292  1.00  0.00     0.086 A 
HETATM   27  C   UNL     1      43.396 -14.045   2.326  1.00  0.00     0.041 A 
HETATM   28  C   UNL     1      43.078 -12.803   2.908  1.00  0.00     0.046 A 
BRANCH  26  29
HETATM   29  C   UNL     1      43.322 -16.436   3.315  1.00  0.00    -0.001 A 
HETATM   30  C   UNL     1      43.457 -17.121   4.527  1.00  0.00     0.040 A 
HETATM   31  C   UNL     1      43.603 -18.513   4.545  1.00  0.00     0.056 A 
HETATM   32 CL   UNL     1      43.789 -19.280   6.084  1.00  0.00    -0.083 Cl
HETATM   33  C   UNL     1      43.599 -19.233   3.346  1.00  0.00     0.055 A 
HETATM   34 CL   UNL     1      43.777 -20.950   3.296  1.00  0.00    -0.083 Cl
HETATM   35  C   UNL     1      43.446 -18.557   2.133  1.00  0.00     0.026 A 
HETATM   36  C   UNL     1      43.307 -17.167   2.120  1.00  0.00     0.016 A 
ENDBRANCH  26  29
ENDBRANCH  21  24
ENDBRANCH   1  20
TORSDOF 7
ENDMDL
MODEL 4
REMARK VINA RESULT:      -8.9      1.772      2.976
REMARK  7 active torsions:
REMARK  status: ('A' for Active; 'I' for Inactive)
REMARK    1  A    between atoms: C_2  and  N_3 
REMARK    2  A    between atoms: N_7  and  C_8 
REMARK    3  A    between atoms: C_11  and  N_12 
REMARK    4  A    between atoms: N_12  and  C_13 
REMARK    5  A    between atoms: C_13  and  N_14 
REMARK       I    between atoms: N_14  and  C_15 
REMARK    6  A    between atoms: C_15  and  C_16 
REMARK    7  A    between atoms: C_18  and  C_19 
ROOT
HETATM    1  C   UNL     1      40.818 -11.018   4.216  1.00  0.00     0.179 C 
HETATM    2  S   UNL     1      39.847 -12.009   5.168  1.00  0.00    -0.040 SA
ENDROOT
BRANCH   1   3
HETATM    3  N   UNL     1      40.394 -10.052   3.340  1.00  0.00    -0.333 N 
HETATM    4  H   UNL     1      40.621  -9.104   3.633  1.00  0.00     0.168 HD
BRANCH   3   5
HETATM    5  C   UNL     1      40.176 -10.249   1.958  1.00  0.00     0.034 A 
HETATM    6  C   UNL     1      41.227 -10.247   1.048  1.00  0.00     0.032 A 
HETATM    7  C   UNL     1      40.984 -10.392  -0.325  1.00  0.00     0.031 A 
HETATM    8  C   UNL     1      39.687 -10.515  -0.851  1.00  0.00     0.030 A 
HETATM    9  C   UNL     1      38.660 -10.625   0.105  1.00  0.00     0.031 A 
HETATM   10  C   UNL     1      38.895 -10.494   1.486  1.00  0.00     0.032 A 
BRANCH   8  11
HETATM   11  N   UNL     1      39.447 -10.562  -2.237  1.00  0.00    -0.378 N 
HETATM   12  C   UNL     1      38.050 -10.757  -2.696  1.00  0.00     0.150 C 
HETATM   13  C   UNL     1      37.652 -12.246  -2.576  1.00  0.00     0.254 C 
HETATM   14  N   UNL     1      38.621 -13.131  -3.383  1.00  0.00    -0.068 N 
HETATM   15  H   UNL     1      38.514 -12.873  -4.372  1.00  0.00     0.280 HD
HETATM   16  C   UNL     1      40.089 -12.834  -3.010  1.00  0.00     0.254 C 
HETATM   17  C   UNL     1      40.386 -11.318  -3.097  1.00  0.00     0.150 C 
BRANCH  14  18
HETATM   18  C   UNL     1      38.329 -14.608  -3.247  1.00  0.00     0.230 C 
HETATM   19  C   UNL     1      39.014 -15.189  -2.024  1.00  0.00     0.034 C 
ENDBRANCH  14  18
ENDBRANCH   8  11
ENDBRANCH   3   5
ENDBRANCH   1   3
BRANCH   1  20
HETATM   20  N   UNL     1      42.178 -11.228   4.340  1.00  0.00    -0.298 N 
HETATM   21  C   UNL     1      43.191 -11.988   3.754  1.00  0.00     0.281 C 
HETATM   22  O   UNL     1      44.310 -11.464   3.755  1.00  0.00    -0.265 OA
HETATM   23  H   UNL     1      42.612 -10.425   4.784  1.00  0.00     0.171 HD
BRANCH  21  24
HETATM   24  C   UNL     1      42.976 -13.300   3.185  1.00  0.00     0.144 A 
HETATM   25  O   UNL     1      43.271 -14.466   3.848  1.00  0.00    -0.304 OA
HETATM   26  C   UNL     1      43.065 -15.491   2.960  1.00  0.00     0.086 A 
HETATM   27  C   UNL     1      42.633 -14.998   1.749  1.00  0.00     0.041 A 
HETATM   28  C   UNL     1      42.565 -13.599   1.897  1.00  0.00     0.046 A 
BRANCH  26  29
HETATM   29  C   UNL     1      43.369 -16.833   3.420  1.00  0.00    -0.001 A 
HETATM   30  C   UNL     1      43.394 -17.908   2.525  1.00  0.00     0.040 A 
HETATM   31  C   UNL     1      43.706 -19.198   2.971  1.00  0.00     0.056 A 
HETATM   32 CL   UNL     1      43.691 -20.474   1.804  1.00  0.00    -0.083 Cl
HETATM   33  C   UNL     1      44.012 -19.418   4.317  1.00  0.00     0.055 A 
HETATM   34 CL   UNL     1      44.404 -20.983   4.934  1.00  0.00    -0.083 Cl
HETATM   35  C   UNL     1      44.008 -18.346   5.213  1.00  0.00     0.026 A 
HETATM   36  C   UNL     1      43.689 -17.062   4.765  1.00  0.00     0.016 A 
ENDBRANCH  26  29
ENDBRANCH  21  24
ENDBRANCH   1  20
TORSDOF 7
ENDMDL
MODEL 5
REMARK VINA RESULT:      -8.6      2.348      3.351
REMARK  7 active torsions:
REMARK  status: ('A' for Active; 'I' for Inactive)
REMARK    1  A    between atoms: C_2  and  N_3 
REMARK    2  A    between atoms: N_7  and  C_8 
REMARK    3  A    between atoms: C_11  and  N_12 
REMARK    4  A    between atoms: N_12  and  C_13 
REMARK    5  A    between atoms: C_13  and  N_14 
REMARK       I    between atoms: N_14  and  C_15 
REMARK    6  A    between atoms: C_15  and  C_16 
REMARK    7  A    between atoms: C_18  and  C_19 
ROOT
HETATM    1  C   UNL     1      41.817  -9.797   7.594  1.00  0.00     0.179 C 
HETATM    2  S   UNL     1      42.292  -8.183   7.578  1.00  0.00    -0.040 SA
ENDROOT
BRANCH   1   3
HETATM    3  N   UNL     1      40.550 -10.280   7.390  1.00  0.00    -0.333 N 
HETATM    4  H   UNL     1      39.854  -9.888   8.018  1.00  0.00     0.168 HD
BRANCH   3   5
HETATM    5  C   UNL     1      40.070 -10.806   6.168  1.00  0.00     0.034 A 
HETATM    6  C   UNL     1      39.890 -12.172   5.985  1.00  0.00     0.032 A 
HETATM    7  C   UNL     1      39.461 -12.677   4.749  1.00  0.00     0.031 A 
HETATM    8  C   UNL     1      39.225 -11.849   3.639  1.00  0.00     0.030 A 
HETATM    9  C   UNL     1      39.309 -10.467   3.893  1.00  0.00     0.031 A 
HETATM   10  C   UNL     1      39.725  -9.950   5.133  1.00  0.00     0.032 A 
BRANCH   8  11
HETATM   11  N   UNL     1      38.890 -12.374   2.377  1.00  0.00    -0.378 N 
HETATM   12  C   UNL     1      39.902 -13.205   1.678  1.00  0.00     0.150 C 
HETATM   13  C   UNL     1      40.971 -12.302   1.019  1.00  0.00     0.254 C 
HETATM   14  N   UNL     1      40.312 -11.307   0.045  1.00  0.00    -0.068 N 
HETATM   15  H   UNL     1      39.884 -11.860  -0.708  1.00  0.00     0.280 HD
HETATM   16  C   UNL     1      39.163 -10.536   0.729  1.00  0.00     0.254 C 
HETATM   17  C   UNL     1      38.173 -11.509   1.413  1.00  0.00     0.150 C 
BRANCH  14  18
HETATM   18  C   UNL     1      41.298 -10.344  -0.577  1.00  0.00     0.230 C 
HETATM   19  C   UNL     1      40.718  -8.945  -0.658  1.00  0.00     0.034 C 
ENDBRANCH  14  18
ENDBRANCH   8  11
ENDBRANCH   3   5
ENDBRANCH   1   3
BRANCH   1  20
HETATM   20  N   UNL     1      42.824 -10.706   7.853  1.00  0.00    -0.298 N 
HETATM   21  C   UNL     1      43.734 -11.505   7.160  1.00  0.00     0.281 C 
HETATM   22  O   UNL     1      44.807 -11.705   7.739  1.00  0.00    -0.265 OA
HETATM   23  H   UNL     1      43.193 -10.557   8.787  1.00  0.00     0.171 HD
BRANCH  21  24
HETATM   24  C   UNL     1      43.465 -12.077   5.859  1.00  0.00     0.144 A 
HETATM   25  O   UNL     1      43.407 -13.429   5.627  1.00  0.00    -0.304 OA
HETATM   26  C   UNL     1      43.268 -13.595   4.273  1.00  0.00     0.086 A 
HETATM   27  C   UNL     1      43.224 -12.372   3.641  1.00  0.00     0.041 A 
HETATM   28  C   UNL     1      43.336 -11.402   4.656  1.00  0.00     0.046 A 
BRANCH  26  29
HETATM   29  C   UNL     1      43.242 -14.958   3.774  1.00  0.00    -0.001 A 
HETATM   30  C   UNL     1      43.460 -16.039   4.635  1.00  0.00     0.040 A 
HETATM   31  C   UNL     1      43.415 -17.352   4.152  1.00  0.00     0.056 A 
HETATM   32 CL   UNL     1      43.721 -18.630   5.276  1.00  0.00    -0.083 Cl
HETATM   33  C   UNL     1      43.134 -17.593   2.803  1.00  0.00     0.055 A 
HETATM   34 CL   UNL     1      43.066 -19.187   2.142  1.00  0.00    -0.083 Cl
HETATM   35  C   UNL     1      42.896 -16.519   1.943  1.00  0.00     0.026 A 
HETATM   36  C   UNL     1      42.949 -15.210   2.428  1.00  0.00     0.016 A 
ENDBRANCH  26  29
ENDBRANCH  21  24
ENDBRANCH   1  20
TORSDOF 7
ENDMDL
MODEL 6
REMARK VINA RESULT:      -8.4      5.734      9.638
REMARK  7 active torsions:
REMARK  status: ('A' for Active; 'I' for Inactive)
REMARK    1  A    between atoms: C_2  and  N_3 
REMARK    2  A    between atoms: N_7  and  C_8 
REMARK    3  A    between atoms: C_11  and  N_12 
REMARK    4  A    between atoms: N_12  and  C_13 
REMARK    5  A    between atoms: C_13  and  N_14 
REMARK       I    between atoms: N_14  and  C_15 
REMARK    6  A    between atoms: C_15  and  C_16 
REMARK    7  A    between atoms: C_18  and  C_19 
ROOT
HETATM    1  C   UNL     1      43.857 -11.075   7.721  1.00  0.00     0.179 C 
HETATM    2  S   UNL     1      45.163 -11.234   6.672  1.00  0.00    -0.040 SA
ENDROOT
BRANCH   1   3
HETATM    3  N   UNL     1      43.870 -11.261   9.079  1.00  0.00    -0.333 N 
HETATM    4  H   UNL     1      44.447 -12.042   9.382  1.00  0.00     0.168 HD
BRANCH   3   5
HETATM    5  C   UNL     1      43.624 -10.252  10.039  1.00  0.00     0.034 A 
HETATM    6  C   UNL     1      43.461 -10.554  11.386  1.00  0.00     0.032 A 
HETATM    7  C   UNL     1      43.167  -9.545  12.314  1.00  0.00     0.031 A 
HETATM    8  C   UNL     1      42.992  -8.203  11.936  1.00  0.00     0.030 A 
HETATM    9  C   UNL     1      43.274  -7.918  10.587  1.00  0.00     0.031 A 
HETATM   10  C   UNL     1      43.583  -8.921   9.651  1.00  0.00     0.032 A 
BRANCH   8  11
HETATM   11  N   UNL     1      42.600  -7.215  12.859  1.00  0.00    -0.378 N 
HETATM   12  C   UNL     1      42.031  -7.659  14.155  1.00  0.00     0.150 C 
HETATM   13  C   UNL     1      40.553  -8.076  13.974  1.00  0.00     0.254 C 
HETATM   14  N   UNL     1      39.731  -6.913  13.386  1.00  0.00    -0.068 N 
HETATM   15  H   UNL     1      39.744  -6.154  14.078  1.00  0.00     0.280 HD
HETATM   16  C   UNL     1      40.395  -6.352  12.110  1.00  0.00     0.254 C 
HETATM   17  C   UNL     1      41.884  -6.018  12.361  1.00  0.00     0.150 C 
BRANCH  14  18
HETATM   18  C   UNL     1      38.290  -7.282  13.115  1.00  0.00     0.230 C 
HETATM   19  C   UNL     1      37.548  -6.134  12.457  1.00  0.00     0.034 C 
ENDBRANCH  14  18
ENDBRANCH   8  11
ENDBRANCH   3   5
ENDBRANCH   1   3
BRANCH   1  20
HETATM   20  N   UNL     1      42.659 -10.730   7.126  1.00  0.00    -0.298 N 
HETATM   21  C   UNL     1      41.793 -11.200   6.137  1.00  0.00     0.281 C 
HETATM   22  O   UNL     1      40.599 -10.943   6.318  1.00  0.00    -0.265 OA
HETATM   23  H   UNL     1      42.123 -10.135   7.749  1.00  0.00     0.171 HD
BRANCH  21  24
HETATM   24  C   UNL     1      42.236 -11.930   4.971  1.00  0.00     0.144 A 
HETATM   25  O   UNL     1      42.279 -13.301   4.911  1.00  0.00    -0.304 OA
HETATM   26  C   UNL     1      42.869 -13.630   3.718  1.00  0.00     0.086 A 
HETATM   27  C   UNL     1      43.191 -12.492   3.012  1.00  0.00     0.041 A 
HETATM   28  C   UNL     1      42.775 -11.407   3.807  1.00  0.00     0.046 A 
BRANCH  26  29
HETATM   29  C   UNL     1      43.079 -15.041   3.451  1.00  0.00    -0.001 A 
HETATM   30  C   UNL     1      43.232 -15.952   4.501  1.00  0.00     0.040 A 
HETATM   31  C   UNL     1      43.415 -17.315   4.239  1.00  0.00     0.056 A 
HETATM   32 CL   UNL     1      43.622 -18.371   5.592  1.00  0.00    -0.083 Cl
HETATM   33  C   UNL     1      43.429 -17.779   2.919  1.00  0.00     0.055 A 
HETATM   34 CL   UNL     1      43.653 -19.445   2.525  1.00  0.00    -0.083 Cl
HETATM   35  C   UNL     1      43.257 -16.876   1.867  1.00  0.00     0.026 A 
HETATM   36  C   UNL     1      43.082 -15.516   2.133  1.00  0.00     0.016 A 
ENDBRANCH  26  29
ENDBRANCH  21  24
ENDBRANCH   1  20
TORSDOF 7
ENDMDL
MODEL 7
REMARK VINA RESULT:      -8.4      6.515     10.238
REMARK  7 active torsions:
REMARK  status: ('A' for Active; 'I' for Inactive)
REMARK    1  A    between atoms: C_2  and  N_3 
REMARK    2  A    between atoms: N_7  and  C_8 
REMARK    3  A    between atoms: C_11  and  N_12 
REMARK    4  A    between atoms: N_12  and  C_13 
REMARK    5  A    between atoms: C_13  and  N_14 
REMARK       I    between atoms: N_14  and  C_15 
REMARK    6  A    between atoms: C_15  and  C_16 
REMARK    7  A    between atoms: C_18  and  C_19 
ROOT
HETATM    1  C   UNL     1      43.571 -10.134   8.917  1.00  0.00     0.179 C 
HETATM    2  S   UNL     1      42.716  -8.970   8.051  1.00  0.00    -0.040 SA
ENDROOT
BRANCH   1   3
HETATM    3  N   UNL     1      43.307 -10.564  10.191  1.00  0.00    -0.333 N 
HETATM    4  H   UNL     1      43.883 -11.349  10.487  1.00  0.00     0.168 HD
BRANCH   3   5
HETATM    5  C   UNL     1      42.755  -9.767  11.219  1.00  0.00     0.034 A 
HETATM    6  C   UNL     1      41.415  -9.865  11.575  1.00  0.00     0.032 A 
HETATM    7  C   UNL     1      40.874  -9.028  12.562  1.00  0.00     0.031 A 
HETATM    8  C   UNL     1      41.635  -8.042  13.212  1.00  0.00     0.030 A 
HETATM    9  C   UNL     1      43.009  -8.048  12.908  1.00  0.00     0.031 A 
HETATM   10  C   UNL     1      43.564  -8.892  11.928  1.00  0.00     0.032 A 
BRANCH   8  11
HETATM   11  N   UNL     1      41.060  -7.143  14.130  1.00  0.00    -0.378 N 
HETATM   12  C   UNL     1      39.631  -6.785  13.952  1.00  0.00     0.150 C 
HETATM   13  C   UNL     1      39.480  -5.734  12.827  1.00  0.00     0.254 C 
HETATM   14  N   UNL     1      40.323  -4.483  13.140  1.00  0.00    -0.068 N 
HETATM   15  H   UNL     1      39.935  -4.063  13.994  1.00  0.00     0.280 HD
HETATM   16  C   UNL     1      41.784  -4.862  13.464  1.00  0.00     0.254 C 
HETATM   17  C   UNL     1      41.842  -5.959  14.553  1.00  0.00     0.150 C 
BRANCH  14  18
HETATM   18  C   UNL     1      40.276  -3.446  12.041  1.00  0.00     0.230 C 
HETATM   19  C   UNL     1      41.603  -3.366  11.309  1.00  0.00     0.034 C 
ENDBRANCH  14  18
ENDBRANCH   8  11
ENDBRANCH   3   5
ENDBRANCH   1   3
BRANCH   1  20
HETATM   20  N   UNL     1      44.649 -10.687   8.255  1.00  0.00    -0.298 N 
HETATM   21  C   UNL     1      44.914 -11.483   7.140  1.00  0.00     0.281 C 
HETATM   22  O   UNL     1      45.992 -11.262   6.579  1.00  0.00    -0.265 OA
HETATM   23  H   UNL     1      45.491 -10.160   8.465  1.00  0.00     0.171 HD
BRANCH  21  24
HETATM   24  C   UNL     1      44.012 -12.505   6.657  1.00  0.00     0.144 A 
HETATM   25  O   UNL     1      44.303 -13.846   6.693  1.00  0.00    -0.304 OA
HETATM   26  C   UNL     1      43.287 -14.492   6.037  1.00  0.00     0.086 A 
HETATM   27  C   UNL     1      42.349 -13.587   5.595  1.00  0.00     0.041 A 
HETATM   28  C   UNL     1      42.805 -12.318   6.002  1.00  0.00     0.046 A 
BRANCH  26  29
HETATM   29  C   UNL     1      43.404 -15.932   5.895  1.00  0.00    -0.001 A 
HETATM   30  C   UNL     1      43.651 -16.509   4.645  1.00  0.00     0.040 A 
HETATM   31  C   UNL     1      43.782 -17.897   4.517  1.00  0.00     0.056 A 
HETATM   32 CL   UNL     1      44.062 -18.532   2.933  1.00  0.00    -0.083 Cl
HETATM   33  C   UNL     1      43.680 -18.718   5.644  1.00  0.00     0.055 A 
HETATM   34 CL   UNL     1      43.828 -20.436   5.557  1.00  0.00    -0.083 Cl
HETATM   35  C   UNL     1      43.452 -18.145   6.898  1.00  0.00     0.026 A 
HETATM   36  C   UNL     1      43.316 -16.761   7.021  1.00  0.00     0.016 A 
ENDBRANCH  26  29
ENDBRANCH  21  24
ENDBRANCH   1  20
TORSDOF 7
ENDMDL
MODEL 8
REMARK VINA RESULT:      -8.3      1.694      2.132
REMARK  7 active torsions:
REMARK  status: ('A' for Active; 'I' for Inactive)
REMARK    1  A    between atoms: C_2  and  N_3 
REMARK    2  A    between atoms: N_7  and  C_8 
REMARK    3  A    between atoms: C_11  and  N_12 
REMARK    4  A    between atoms: N_12  and  C_13 
REMARK    5  A    between atoms: C_13  and  N_14 
REMARK       I    between atoms: N_14  and  C_15 
REMARK    6  A    between atoms: C_15  and  C_16 
REMARK    7  A    between atoms: C_18  and  C_19 
ROOT
HETATM    1  C   UNL     1      42.038 -10.717   5.339  1.00  0.00     0.179 C 
HETATM    2  S   UNL     1      42.861 -10.333   6.756  1.00  0.00    -0.040 SA
ENDROOT
BRANCH   1   3
HETATM    3  N   UNL     1      42.234 -10.161   4.102  1.00  0.00    -0.333 N 
HETATM    4  H   UNL     1      42.967  -9.455   4.080  1.00  0.00     0.168 HD
BRANCH   3   5
HETATM    5  C   UNL     1      41.928 -10.788   2.873  1.00  0.00     0.034 A 
HETATM    6  C   UNL     1      41.306 -10.098   1.839  1.00  0.00     0.032 A 
HETATM    7  C   UNL     1      40.963 -10.751   0.646  1.00  0.00     0.031 A 
HETATM    8  C   UNL     1      41.198 -12.122   0.446  1.00  0.00     0.030 A 
HETATM    9  C   UNL     1      41.928 -12.761   1.466  1.00  0.00     0.031 A 
HETATM   10  C   UNL     1      42.287 -12.111   2.661  1.00  0.00     0.032 A 
BRANCH   8  11
HETATM   11  N   UNL     1      40.763 -12.790  -0.714  1.00  0.00    -0.378 N 
HETATM   12  C   UNL     1      41.033 -12.153  -2.027  1.00  0.00     0.150 C 
HETATM   13  C   UNL     1      40.010 -11.024  -2.293  1.00  0.00     0.254 C 
HETATM   14  N   UNL     1      38.572 -11.573  -2.237  1.00  0.00    -0.068 N 
HETATM   15  H   UNL     1      38.477 -12.248  -3.006  1.00  0.00     0.280 HD
HETATM   16  C   UNL     1      38.326 -12.358  -0.931  1.00  0.00     0.254 C 
HETATM   17  C   UNL     1      39.425 -13.425  -0.711  1.00  0.00     0.150 C 
BRANCH  14  18
HETATM   18  C   UNL     1      37.521 -10.501  -2.417  1.00  0.00     0.230 C 
HETATM   19  C   UNL     1      36.705 -10.320  -1.151  1.00  0.00     0.034 C 
ENDBRANCH  14  18
ENDBRANCH   8  11
ENDBRANCH   3   5
ENDBRANCH   1   3
BRANCH   1  20
HETATM   20  N   UNL     1      41.063 -11.687   5.467  1.00  0.00    -0.298 N 
HETATM   21  C   UNL     1      40.925 -12.996   5.930  1.00  0.00     0.281 C 
HETATM   22  O   UNL     1      39.816 -13.276   6.396  1.00  0.00    -0.265 OA
HETATM   23  H   UNL     1      40.145 -11.254   5.487  1.00  0.00     0.171 HD
BRANCH  21  24
HETATM   24  C   UNL     1      41.985 -13.978   5.874  1.00  0.00     0.144 A 
HETATM   25  O   UNL     1      42.038 -14.978   4.934  1.00  0.00    -0.304 OA
HETATM   26  C   UNL     1      43.094 -15.785   5.270  1.00  0.00     0.086 A 
HETATM   27  C   UNL     1      43.722 -15.309   6.400  1.00  0.00     0.041 A 
HETATM   28  C   UNL     1      43.021 -14.147   6.778  1.00  0.00     0.046 A 
BRANCH  26  29
HETATM   29  C   UNL     1      43.318 -16.957   4.445  1.00  0.00    -0.001 A 
HETATM   30  C   UNL     1      43.756 -18.158   5.012  1.00  0.00     0.040 A 
HETATM   31  C   UNL     1      43.952 -19.292   4.214  1.00  0.00     0.056 A 
HETATM   32 CL   UNL     1      44.519 -20.729   4.991  1.00  0.00    -0.083 Cl
HETATM   33  C   UNL     1      43.695 -19.235   2.841  1.00  0.00     0.055 A 
HETATM   34 CL   UNL     1      43.917 -20.594   1.799  1.00  0.00    -0.083 Cl
HETATM   35  C   UNL     1      43.239 -18.043   2.272  1.00  0.00     0.026 A 
HETATM   36  C   UNL     1      43.051 -16.913   3.070  1.00  0.00     0.016 A 
ENDBRANCH  26  29
ENDBRANCH  21  24
ENDBRANCH   1  20
TORSDOF 7
ENDMDL
MODEL 9
REMARK VINA RESULT:      -8.3      1.900      3.030
REMARK  7 active torsions:
REMARK  status: ('A' for Active; 'I' for Inactive)
REMARK    1  A    between atoms: C_2  and  N_3 
REMARK    2  A    between atoms: N_7  and  C_8 
REMARK    3  A    between atoms: C_11  and  N_12 
REMARK    4  A    between atoms: N_12  and  C_13 
REMARK    5  A    between atoms: C_13  and  N_14 
REMARK       I    between atoms: N_14  and  C_15 
REMARK    6  A    between atoms: C_15  and  C_16 
REMARK    7  A    between atoms: C_18  and  C_19 
ROOT
HETATM    1  C   UNL     1      40.194 -10.447   6.901  1.00  0.00     0.179 C 
HETATM    2  S   UNL     1      39.506  -9.165   7.747  1.00  0.00    -0.040 SA
ENDROOT
BRANCH   1   3
HETATM    3  N   UNL     1      39.564 -11.267   6.001  1.00  0.00    -0.333 N 
HETATM    4  H   UNL     1      38.801 -11.807   6.402  1.00  0.00     0.168 HD
BRANCH   3   5
HETATM    5  C   UNL     1      39.520 -11.056   4.604  1.00  0.00     0.034 A 
HETATM    6  C   UNL     1      39.422 -12.116   3.711  1.00  0.00     0.032 A 
HETATM    7  C   UNL     1      39.432 -11.889   2.327  1.00  0.00     0.031 A 
HETATM    8  C   UNL     1      39.569 -10.603   1.777  1.00  0.00     0.030 A 
HETATM    9  C   UNL     1      39.552  -9.548   2.708  1.00  0.00     0.031 A 
HETATM   10  C   UNL     1      39.530  -9.764   4.098  1.00  0.00     0.032 A 
BRANCH   8  11
HETATM   11  N   UNL     1      39.676 -10.395   0.389  1.00  0.00    -0.378 N 
HETATM   12  C   UNL     1      38.486 -10.675  -0.451  1.00  0.00     0.150 C 
HETATM   13  C   UNL     1      38.347 -12.197  -0.689  1.00  0.00     0.254 C 
HETATM   14  N   UNL     1      39.623 -12.760  -1.344  1.00  0.00    -0.068 N 
HETATM   15  H   UNL     1      39.707 -12.320  -2.269  1.00  0.00     0.280 HD
HETATM   16  C   UNL     1      40.882 -12.354  -0.549  1.00  0.00     0.254 C 
HETATM   17  C   UNL     1      40.912 -10.827  -0.303  1.00  0.00     0.150 C 
BRANCH  14  18
HETATM   18  C   UNL     1      39.579 -14.259  -1.536  1.00  0.00     0.230 C 
HETATM   19  C   UNL     1      39.844 -14.985  -0.230  1.00  0.00     0.034 C 
ENDBRANCH  14  18
ENDBRANCH   8  11
ENDBRANCH   3   5
ENDBRANCH   1   3
BRANCH   1  20
HETATM   20  N   UNL     1      41.529 -10.682   7.168  1.00  0.00    -0.298 N 
HETATM   21  C   UNL     1      42.722 -10.913   6.482  1.00  0.00     0.281 C 
HETATM   22  O   UNL     1      43.741 -10.497   7.043  1.00  0.00    -0.265 OA
HETATM   23  H   UNL     1      41.766 -10.323   8.087  1.00  0.00     0.171 HD
BRANCH  21  24
HETATM   24  C   UNL     1      42.790 -11.594   5.209  1.00  0.00     0.144 A 
HETATM   25  O   UNL     1      42.749 -12.961   5.082  1.00  0.00    -0.304 OA
HETATM   26  C   UNL     1      42.971 -13.245   3.759  1.00  0.00     0.086 A 
HETATM   27  C   UNL     1      43.142 -12.083   3.040  1.00  0.00     0.041 A 
HETATM   28  C   UNL     1      43.013 -11.028   3.964  1.00  0.00     0.046 A 
BRANCH  26  29
HETATM   29  C   UNL     1      43.031 -14.646   3.385  1.00  0.00    -0.001 A 
HETATM   30  C   UNL     1      43.196 -15.639   4.356  1.00  0.00     0.040 A 
HETATM   31  C   UNL     1      43.233 -16.991   3.992  1.00  0.00     0.056 A 
HETATM   32 CL   UNL     1      43.465 -18.153   5.251  1.00  0.00    -0.083 Cl
HETATM   33  C   UNL     1      43.090 -17.359   2.651  1.00  0.00     0.055 A 
HETATM   34 CL   UNL     1      43.129 -19.006   2.133  1.00  0.00    -0.083 Cl
HETATM   35  C   UNL     1      42.906 -16.373   1.678  1.00  0.00     0.026 A 
HETATM   36  C   UNL     1      42.876 -15.025   2.045  1.00  0.00     0.016 A 
ENDBRANCH  26  29
ENDBRANCH  21  24
ENDBRANCH   1  20
TORSDOF 7
ENDMDL
MODEL 10
REMARK VINA RESULT:      -8.2      7.648     11.431
REMARK  7 active torsions:
REMARK  status: ('A' for Active; 'I' for Inactive)
REMARK    1  A    between atoms: C_2  and  N_3 
REMARK    2  A    between atoms: N_7  and  C_8 
REMARK    3  A    between atoms: C_11  and  N_12 
REMARK    4  A    between atoms: N_12  and  C_13 
REMARK    5  A    between atoms: C_13  and  N_14 
REMARK       I    between atoms: N_14  and  C_15 
REMARK    6  A    between atoms: C_15  and  C_16 
REMARK    7  A    between atoms: C_18  and  C_19 
ROOT
HETATM    1  C   UNL     1      41.917 -10.405   6.316  1.00  0.00     0.179 C 
HETATM    2  S   UNL     1      41.433  -9.641   4.896  1.00  0.00    -0.040 SA
ENDROOT
BRANCH   1   3
HETATM    3  N   UNL     1      41.203 -10.494   7.483  1.00  0.00    -0.333 N 
HETATM    4  H   UNL     1      41.414 -11.325   8.031  1.00  0.00     0.168 HD
BRANCH   3   5
HETATM    5  C   UNL     1      40.660  -9.396   8.188  1.00  0.00     0.034 A 
HETATM    6  C   UNL     1      39.548  -9.537   9.008  1.00  0.00     0.032 A 
HETATM    7  C   UNL     1      38.993  -8.425   9.659  1.00  0.00     0.031 A 
HETATM    8  C   UNL     1      39.503  -7.127   9.495  1.00  0.00     0.030 A 
HETATM    9  C   UNL     1      40.693  -7.039   8.749  1.00  0.00     0.031 A 
HETATM   10  C   UNL     1      41.265  -8.151   8.103  1.00  0.00     0.032 A 
BRANCH   8  11
HETATM   11  N   UNL     1      38.880  -6.004  10.073  1.00  0.00    -0.378 N 
HETATM   12  C   UNL     1      39.533  -4.682   9.904  1.00  0.00     0.150 C 
HETATM   13  C   UNL     1      40.712  -4.539  10.894  1.00  0.00     0.254 C 
HETATM   14  N   UNL     1      40.227  -4.728  12.344  1.00  0.00    -0.068 N 
HETATM   15  H   UNL     1      39.573  -3.961  12.546  1.00  0.00     0.280 HD
HETATM   16  C   UNL     1      39.425  -6.038  12.496  1.00  0.00     0.254 C 
HETATM   17  C   UNL     1      38.306  -6.130  11.432  1.00  0.00     0.150 C 
BRANCH  14  18
HETATM   18  C   UNL     1      41.348  -4.673  13.357  1.00  0.00     0.230 C 
HETATM   19  C   UNL     1      42.540  -3.911  12.811  1.00  0.00     0.034 C 
ENDBRANCH  14  18
ENDBRANCH   8  11
ENDBRANCH   3   5
ENDBRANCH   1   3
BRANCH   1  20
HETATM   20  N   UNL     1      43.171 -10.984   6.277  1.00  0.00    -0.298 N 
HETATM   21  C   UNL     1      44.190 -11.364   7.151  1.00  0.00     0.281 C 
HETATM   22  O   UNL     1      44.853 -12.343   6.793  1.00  0.00    -0.265 OA
HETATM   23  H   UNL     1      43.272 -11.531   5.428  1.00  0.00     0.171 HD
BRANCH  21  24
HETATM   24  C   UNL     1      44.477 -10.676   8.389  1.00  0.00     0.144 A 
HETATM   25  O   UNL     1      43.552 -10.509   9.391  1.00  0.00    -0.304 OA
HETATM   26  C   UNL     1      44.132  -9.705  10.338  1.00  0.00     0.086 A 
HETATM   27  C   UNL     1      45.413  -9.367   9.963  1.00  0.00     0.041 A 
HETATM   28  C   UNL     1      45.638  -9.998   8.724  1.00  0.00     0.046 A 
BRANCH  26  29
HETATM   29  C   UNL     1      43.316  -9.337  11.481  1.00  0.00    -0.001 A 
HETATM   30  C   UNL     1      42.137 -10.030  11.771  1.00  0.00     0.040 A 
HETATM   31  C   UNL     1      41.364  -9.683  12.885  1.00  0.00     0.056 A 
HETATM   32 CL   UNL     1      39.907 -10.575  13.159  1.00  0.00    -0.083 Cl
HETATM   33  C   UNL     1      41.776  -8.647  13.728  1.00  0.00     0.055 A 
HETATM   34 CL   UNL     1      40.869  -8.166  15.117  1.00  0.00    -0.083 Cl
HETATM   35  C   UNL     1      42.963  -7.962  13.454  1.00  0.00     0.026 A 
HETATM   36  C   UNL     1      43.727  -8.308  12.338  1.00  0.00     0.016 A 
ENDBRANCH  26  29
ENDBRANCH  21  24
ENDBRANCH   1  20
TORSDOF 7
ENDMDL
