MODEL 1
REMARK VINA RESULT:      -7.9      0.000      0.000
REMARK  6 active torsions:
REMARK  status: ('A' for Active; 'I' for Inactive)
REMARK    1  A    between atoms: C_2  and  C_3 
REMARK    2  A    between atoms: C_3  and  N_4 
REMARK       I    between atoms: N_4  and  C_5 
REMARK    3  A    between atoms: C_5  and  C_6 
REMARK    4  A    between atoms: C_11  and  C_12 
REMARK    5  A    between atoms: C_15  and  O_16 
REMARK    6  A    between atoms: C_21  and  C_22 
ROOT
HETATM    1  C   UNL     1      40.722 -13.728   1.095  1.00  0.00     0.170 A 
HETATM    2  N   UNL     1      41.759 -14.520   1.468  1.00  0.00    -0.163 NA
HETATM    3  N   UNL     1      41.517 -14.782   2.763  1.00  0.00    -0.238 N 
HETATM    4  C   UNL     1      40.432 -14.113   3.267  1.00  0.00     0.145 A 
HETATM    5  N   UNL     1      40.141 -14.146   4.594  1.00  0.00    -0.365 N 
HETATM    6  C   UNL     1      41.149 -14.595   5.555  1.00  0.00     0.118 C 
HETATM    7  C   UNL     1      41.852 -15.829   4.967  1.00  0.00     0.066 C 
HETATM    8  C   UNL     1      42.456 -15.535   3.579  1.00  0.00     0.221 C 
HETATM    9  C   UNL     1      39.861 -13.464   2.196  1.00  0.00     0.115 A 
HETATM   10 CL   UNL     1      38.475 -12.485   2.228  1.00  0.00    -0.077 Cl
HETATM   11  H   UNL     1      39.460 -13.484   4.967  1.00  0.00     0.162 HD
ENDROOT
BRANCH   6  12
HETATM   12  C   UNL     1      42.118 -13.499   5.984  1.00  0.00    -0.035 A 
HETATM   13  C   UNL     1      43.413 -13.757   6.460  1.00  0.00     0.012 A 
HETATM   14  C   UNL     1      44.256 -12.713   6.855  1.00  0.00     0.037 A 
HETATM   15  C   UNL     1      43.837 -11.386   6.779  1.00  0.00     0.068 A 
HETATM   16  C   UNL     1      42.561 -11.110   6.293  1.00  0.00     0.037 A 
HETATM   17  C   UNL     1      41.716 -12.155   5.896  1.00  0.00     0.012 A 
BRANCH  15  18
HETATM   18  O   UNL     1      44.759 -10.471   7.200  1.00  0.00    -0.356 OA
HETATM   19  C   UNL     1      46.113 -10.898   7.254  1.00  0.00     0.210 C 
ENDBRANCH  15  18
ENDBRANCH   6  12
BRANCH   8  20
HETATM   20  C   UNL     1      42.853 -16.836   2.916  1.00  0.00     0.409 C 
HETATM   21  F   UNL     1      43.770 -16.681   1.938  1.00  0.00    -0.169 F 
HETATM   22  F   UNL     1      43.417 -17.665   3.834  1.00  0.00    -0.169 F 
HETATM   23  F   UNL     1      41.793 -17.497   2.400  1.00  0.00    -0.169 F 
ENDBRANCH   8  20
BRANCH   1  24
HETATM   24  C   UNL     1      40.626 -13.219  -0.282  1.00  0.00     0.273 C 
HETATM   25  N   UNL     1      40.176 -14.171  -1.174  1.00  0.00    -0.356 N 
HETATM   26  H   UNL     1      40.019 -15.096  -0.781  1.00  0.00     0.162 HD
HETATM   27  O   UNL     1      40.940 -12.081  -0.614  1.00  0.00    -0.266 OA
BRANCH  25  28
HETATM   28  C   UNL     1      40.166 -13.970  -2.603  1.00  0.00     0.122 C 
BRANCH  28  29
HETATM   29  C   UNL     1      38.814 -14.306  -3.230  1.00  0.00     0.015 C 
HETATM   30  C   UNL     1      37.679 -13.465  -2.663  1.00  0.00     0.006 C 
ENDBRANCH  28  29
ENDBRANCH  25  28
ENDBRANCH   1  24
TORSDOF 6
ENDMDL
MODEL 2
REMARK VINA RESULT:      -7.7      3.338      7.037
REMARK  6 active torsions:
REMARK  status: ('A' for Active; 'I' for Inactive)
REMARK    1  A    between atoms: C_2  and  C_3 
REMARK    2  A    between atoms: C_3  and  N_4 
REMARK       I    between atoms: N_4  and  C_5 
REMARK    3  A    between atoms: C_5  and  C_6 
REMARK    4  A    between atoms: C_11  and  C_12 
REMARK    5  A    between atoms: C_15  and  O_16 
REMARK    6  A    between atoms: C_21  and  C_22 
ROOT
HETATM    1  C   UNL     1      42.722 -15.461   4.762  1.00  0.00     0.170 A 
HETATM    2  N   UNL     1      43.181 -14.295   4.241  1.00  0.00    -0.163 NA
HETATM    3  N   UNL     1      42.066 -13.578   4.022  1.00  0.00    -0.238 N 
HETATM    4  C   UNL     1      40.909 -14.266   4.279  1.00  0.00     0.145 A 
HETATM    5  N   UNL     1      39.695 -13.741   3.964  1.00  0.00    -0.365 N 
HETATM    6  C   UNL     1      39.602 -12.607   3.045  1.00  0.00     0.118 C 
HETATM    7  C   UNL     1      40.718 -11.612   3.400  1.00  0.00     0.066 C 
HETATM    8  C   UNL     1      42.109 -12.278   3.370  1.00  0.00     0.221 C 
HETATM    9  C   UNL     1      41.301 -15.472   4.814  1.00  0.00     0.115 A 
HETATM   10 CL   UNL     1      40.283 -16.727   5.332  1.00  0.00    -0.077 Cl
HETATM   11  H   UNL     1      38.876 -14.349   3.979  1.00  0.00     0.162 HD
ENDROOT
BRANCH   6  12
HETATM   12  C   UNL     1      39.602 -13.010   1.574  1.00  0.00    -0.035 A 
HETATM   13  C   UNL     1      39.951 -14.292   1.125  1.00  0.00     0.012 A 
HETATM   14  C   UNL     1      39.948 -14.602  -0.239  1.00  0.00     0.037 A 
HETATM   15  C   UNL     1      39.591 -13.648  -1.190  1.00  0.00     0.068 A 
HETATM   16  C   UNL     1      39.226 -12.375  -0.761  1.00  0.00     0.037 A 
HETATM   17  C   UNL     1      39.226 -12.062   0.605  1.00  0.00     0.012 A 
BRANCH  15  18
HETATM   18  O   UNL     1      39.636 -14.086  -2.483  1.00  0.00    -0.356 OA
HETATM   19  C   UNL     1      38.654 -15.034  -2.878  1.00  0.00     0.210 C 
ENDBRANCH  15  18
ENDBRANCH   6  12
BRANCH   8  20
HETATM   20  C   UNL     1      43.121 -11.361   4.020  1.00  0.00     0.409 C 
HETATM   21  F   UNL     1      44.333 -11.394   3.425  1.00  0.00    -0.169 F 
HETATM   22  F   UNL     1      42.694 -10.073   3.936  1.00  0.00    -0.169 F 
HETATM   23  F   UNL     1      43.290 -11.627   5.334  1.00  0.00    -0.169 F 
ENDBRANCH   8  20
BRANCH   1  24
HETATM   24  C   UNL     1      43.659 -16.531   5.140  1.00  0.00     0.273 C 
HETATM   25  N   UNL     1      43.640 -17.594   4.261  1.00  0.00    -0.356 N 
HETATM   26  H   UNL     1      42.959 -17.523   3.507  1.00  0.00     0.162 HD
HETATM   27  O   UNL     1      44.363 -16.501   6.144  1.00  0.00    -0.266 OA
BRANCH  25  28
HETATM   28  C   UNL     1      44.334 -18.834   4.508  1.00  0.00     0.122 C 
BRANCH  28  29
HETATM   29  C   UNL     1      43.922 -19.938   3.535  1.00  0.00     0.015 C 
HETATM   30  C   UNL     1      43.302 -19.393   2.256  1.00  0.00     0.006 C 
ENDBRANCH  28  29
ENDBRANCH  25  28
ENDBRANCH   1  24
TORSDOF 6
ENDMDL
MODEL 3
REMARK VINA RESULT:      -7.6      1.302      1.803
REMARK  6 active torsions:
REMARK  status: ('A' for Active; 'I' for Inactive)
REMARK    1  A    between atoms: C_2  and  C_3 
REMARK    2  A    between atoms: C_3  and  N_4 
REMARK       I    between atoms: N_4  and  C_5 
REMARK    3  A    between atoms: C_5  and  C_6 
REMARK    4  A    between atoms: C_11  and  C_12 
REMARK    5  A    between atoms: C_15  and  O_16 
REMARK    6  A    between atoms: C_21  and  C_22 
ROOT
HETATM    1  C   UNL     1      40.459 -13.851   1.012  1.00  0.00     0.170 A 
HETATM    2  N   UNL     1      41.481 -14.698   1.291  1.00  0.00    -0.163 NA
HETATM    3  N   UNL     1      41.380 -14.902   2.615  1.00  0.00    -0.238 N 
HETATM    4  C   UNL     1      40.408 -14.145   3.216  1.00  0.00     0.145 A 
HETATM    5  N   UNL     1      40.278 -14.115   4.569  1.00  0.00    -0.365 N 
HETATM    6  C   UNL     1      41.363 -14.600   5.422  1.00  0.00     0.118 C 
HETATM    7  C   UNL     1      41.911 -15.898   4.805  1.00  0.00     0.066 C 
HETATM    8  C   UNL     1      42.361 -15.690   3.345  1.00  0.00     0.221 C 
HETATM    9  C   UNL     1      39.755 -13.494   2.195  1.00  0.00     0.115 A 
HETATM   10 CL   UNL     1      38.448 -12.423   2.351  1.00  0.00    -0.077 Cl
HETATM   11  H   UNL     1      39.689 -13.398   4.993  1.00  0.00     0.162 HD
ENDROOT
BRANCH   6  12
HETATM   12  C   UNL     1      42.444 -13.559   5.690  1.00  0.00    -0.035 A 
HETATM   13  C   UNL     1      43.541 -13.785   6.535  1.00  0.00     0.012 A 
HETATM   14  C   UNL     1      44.496 -12.788   6.757  1.00  0.00     0.037 A 
HETATM   15  C   UNL     1      44.390 -11.545   6.138  1.00  0.00     0.068 A 
HETATM   16  C   UNL     1      43.317 -11.307   5.282  1.00  0.00     0.037 A 
HETATM   17  C   UNL     1      42.359 -12.305   5.058  1.00  0.00     0.012 A 
BRANCH  15  18
HETATM   18  O   UNL     1      45.389 -10.666   6.447  1.00  0.00    -0.356 OA
HETATM   19  C   UNL     1      45.904 -10.715   7.771  1.00  0.00     0.210 C 
ENDBRANCH  15  18
ENDBRANCH   6  12
BRANCH   8  20
HETATM   20  C   UNL     1      42.592 -17.035   2.692  1.00  0.00     0.409 C 
HETATM   21  F   UNL     1      41.476 -17.569   2.154  1.00  0.00    -0.169 F 
HETATM   22  F   UNL     1      43.477 -16.901   1.668  1.00  0.00    -0.169 F 
HETATM   23  F   UNL     1      43.123 -17.938   3.545  1.00  0.00    -0.169 F 
ENDBRANCH   8  20
BRANCH   1  24
HETATM   24  C   UNL     1      40.231 -13.381  -0.364  1.00  0.00     0.273 C 
HETATM   25  N   UNL     1      41.275 -12.621  -0.849  1.00  0.00    -0.356 N 
HETATM   26  H   UNL     1      42.030 -12.447  -0.189  1.00  0.00     0.162 HD
HETATM   27  O   UNL     1      39.211 -13.611  -1.005  1.00  0.00    -0.266 OA
BRANCH  25  28
HETATM   28  C   UNL     1      41.214 -11.904  -2.100  1.00  0.00     0.122 C 
BRANCH  28  29
HETATM   29  C   UNL     1      40.817 -10.440  -1.914  1.00  0.00     0.015 C 
HETATM   30  C   UNL     1      41.932  -9.603  -1.302  1.00  0.00     0.006 C 
ENDBRANCH  28  29
ENDBRANCH  25  28
ENDBRANCH   1  24
TORSDOF 6
ENDMDL
MODEL 4
REMARK VINA RESULT:      -7.3      3.107      7.417
REMARK  6 active torsions:
REMARK  status: ('A' for Active; 'I' for Inactive)
REMARK    1  A    between atoms: C_2  and  C_3 
REMARK    2  A    between atoms: C_3  and  N_4 
REMARK       I    between atoms: N_4  and  C_5 
REMARK    3  A    between atoms: C_5  and  C_6 
REMARK    4  A    between atoms: C_11  and  C_12 
REMARK    5  A    between atoms: C_15  and  O_16 
REMARK    6  A    between atoms: C_21  and  C_22 
ROOT
HETATM    1  C   UNL     1      40.112 -11.851   6.221  1.00  0.00     0.170 A 
HETATM    2  N   UNL     1      39.954 -13.198   6.191  1.00  0.00    -0.163 NA
HETATM    3  N   UNL     1      40.946 -13.623   5.391  1.00  0.00    -0.238 N 
HETATM    4  C   UNL     1      41.668 -12.607   4.823  1.00  0.00     0.145 A 
HETATM    5  N   UNL     1      42.606 -12.859   3.871  1.00  0.00    -0.365 N 
HETATM    6  C   UNL     1      42.628 -14.152   3.187  1.00  0.00     0.118 C 
HETATM    7  C   UNL     1      42.389 -15.251   4.235  1.00  0.00     0.066 C 
HETATM    8  C   UNL     1      41.079 -15.022   5.015  1.00  0.00     0.221 C 
HETATM    9  C   UNL     1      41.189 -11.446   5.384  1.00  0.00     0.115 A 
HETATM   10 CL   UNL     1      41.724  -9.869   5.059  1.00  0.00    -0.077 Cl
HETATM   11  H   UNL     1      42.979 -12.081   3.326  1.00  0.00     0.162 HD
ENDROOT
BRANCH   6  12
HETATM   12  C   UNL     1      41.671 -14.235   2.003  1.00  0.00    -0.035 A 
HETATM   13  C   UNL     1      40.920 -15.380   1.696  1.00  0.00     0.012 A 
HETATM   14  C   UNL     1      40.068 -15.406   0.586  1.00  0.00     0.037 A 
HETATM   15  C   UNL     1      39.935 -14.292  -0.241  1.00  0.00     0.068 A 
HETATM   16  C   UNL     1      40.661 -13.142   0.058  1.00  0.00     0.037 A 
HETATM   17  C   UNL     1      41.513 -13.113   1.169  1.00  0.00     0.012 A 
BRANCH  15  18
HETATM   18  O   UNL     1      39.074 -14.458  -1.288  1.00  0.00    -0.356 OA
HETATM   19  C   UNL     1      39.598 -14.249  -2.593  1.00  0.00     0.210 C 
ENDBRANCH  15  18
ENDBRANCH   6  12
BRANCH   8  20
HETATM   20  C   UNL     1      41.045 -15.931   6.224  1.00  0.00     0.409 C 
HETATM   21  F   UNL     1      39.795 -16.221   6.641  1.00  0.00    -0.169 F 
HETATM   22  F   UNL     1      41.627 -17.121   5.918  1.00  0.00    -0.169 F 
HETATM   23  F   UNL     1      41.732 -15.423   7.271  1.00  0.00    -0.169 F 
ENDBRANCH   8  20
BRANCH   1  24
HETATM   24  C   UNL     1      39.198 -11.007   7.006  1.00  0.00     0.273 C 
HETATM   25  N   UNL     1      39.802 -10.451   8.115  1.00  0.00    -0.356 N 
HETATM   26  H   UNL     1      40.769 -10.730   8.269  1.00  0.00     0.162 HD
HETATM   27  O   UNL     1      38.016 -10.836   6.728  1.00  0.00    -0.266 OA
BRANCH  25  28
HETATM   28  C   UNL     1      39.075  -9.733   9.133  1.00  0.00     0.122 C 
BRANCH  28  29
HETATM   29  C   UNL     1      39.856  -9.623  10.441  1.00  0.00     0.015 C 
HETATM   30  C   UNL     1      41.259  -9.067  10.242  1.00  0.00     0.006 C 
ENDBRANCH  28  29
ENDBRANCH  25  28
ENDBRANCH   1  24
TORSDOF 6
ENDMDL
MODEL 5
REMARK VINA RESULT:      -7.2      2.783      7.523
REMARK  6 active torsions:
REMARK  status: ('A' for Active; 'I' for Inactive)
REMARK    1  A    between atoms: C_2  and  C_3 
REMARK    2  A    between atoms: C_3  and  N_4 
REMARK       I    between atoms: N_4  and  C_5 
REMARK    3  A    between atoms: C_5  and  C_6 
REMARK    4  A    between atoms: C_11  and  C_12 
REMARK    5  A    between atoms: C_15  and  O_16 
REMARK    6  A    between atoms: C_21  and  C_22 
ROOT
HETATM    1  C   UNL     1      42.345 -11.989   5.850  1.00  0.00     0.170 A 
HETATM    2  N   UNL     1      41.359 -12.914   5.956  1.00  0.00    -0.163 NA
HETATM    3  N   UNL     1      41.750 -13.901   5.132  1.00  0.00    -0.238 N 
HETATM    4  C   UNL     1      42.886 -13.608   4.424  1.00  0.00     0.145 A 
HETATM    5  N   UNL     1      43.330 -14.431   3.437  1.00  0.00    -0.365 N 
HETATM    6  C   UNL     1      42.441 -15.448   2.875  1.00  0.00     0.118 C 
HETATM    7  C   UNL     1      41.673 -16.105   4.034  1.00  0.00     0.066 C 
HETATM    8  C   UNL     1      40.912 -15.062   4.878  1.00  0.00     0.221 C 
HETATM    9  C   UNL     1      43.329 -12.398   4.908  1.00  0.00     0.115 A 
HETATM   10 CL   UNL     1      44.709 -11.551   4.402  1.00  0.00    -0.077 Cl
HETATM   11  H   UNL     1      44.051 -14.093   2.799  1.00  0.00     0.162 HD
ENDROOT
BRANCH   6  12
HETATM   12  C   UNL     1      41.529 -14.923   1.772  1.00  0.00    -0.035 A 
HETATM   13  C   UNL     1      40.498 -15.682   1.196  1.00  0.00     0.012 A 
HETATM   14  C   UNL     1      39.701 -15.155   0.175  1.00  0.00     0.037 A 
HETATM   15  C   UNL     1      39.901 -13.857  -0.293  1.00  0.00     0.068 A 
HETATM   16  C   UNL     1      40.908 -13.084   0.278  1.00  0.00     0.037 A 
HETATM   17  C   UNL     1      41.708 -13.610   1.302  1.00  0.00     0.012 A 
BRANCH  15  18
HETATM   18  O   UNL     1      39.054 -13.474  -1.293  1.00  0.00    -0.356 OA
HETATM   19  C   UNL     1      38.819 -14.413  -2.334  1.00  0.00     0.210 C 
ENDBRANCH  15  18
ENDBRANCH   6  12
BRANCH   8  20
HETATM   20  C   UNL     1      40.440 -15.702   6.165  1.00  0.00     0.409 C 
HETATM   21  F   UNL     1      39.573 -14.934   6.859  1.00  0.00    -0.169 F 
HETATM   22  F   UNL     1      39.780 -16.858   5.886  1.00  0.00    -0.169 F 
HETATM   23  F   UNL     1      41.463 -16.029   6.984  1.00  0.00    -0.169 F 
ENDBRANCH   8  20
BRANCH   1  24
HETATM   24  C   UNL     1      42.280 -10.734   6.616  1.00  0.00     0.273 C 
HETATM   25  N   UNL     1      43.041 -10.769   7.766  1.00  0.00    -0.356 N 
HETATM   26  H   UNL     1      43.500 -11.657   7.957  1.00  0.00     0.162 HD
HETATM   27  O   UNL     1      41.600  -9.768   6.288  1.00  0.00    -0.266 OA
BRANCH  25  28
HETATM   28  C   UNL     1      43.001  -9.733   8.769  1.00  0.00     0.122 C 
BRANCH  28  29
HETATM   29  C   UNL     1      44.368  -9.482   9.404  1.00  0.00     0.015 C 
HETATM   30  C   UNL     1      45.310  -8.715   8.486  1.00  0.00     0.006 C 
ENDBRANCH  28  29
ENDBRANCH  25  28
ENDBRANCH   1  24
TORSDOF 6
ENDMDL
MODEL 6
REMARK VINA RESULT:      -6.9      5.423      9.133
REMARK  6 active torsions:
REMARK  status: ('A' for Active; 'I' for Inactive)
REMARK    1  A    between atoms: C_2  and  C_3 
REMARK    2  A    between atoms: C_3  and  N_4 
REMARK       I    between atoms: N_4  and  C_5 
REMARK    3  A    between atoms: C_5  and  C_6 
REMARK    4  A    between atoms: C_11  and  C_12 
REMARK    5  A    between atoms: C_15  and  O_16 
REMARK    6  A    between atoms: C_21  and  C_22 
ROOT
HETATM    1  C   UNL     1      42.193  -9.502   8.844  1.00  0.00     0.170 A 
HETATM    2  N   UNL     1      43.434 -10.040   8.940  1.00  0.00    -0.163 NA
HETATM    3  N   UNL     1      43.726 -10.406   7.681  1.00  0.00    -0.238 N 
HETATM    4  C   UNL     1      42.692 -10.225   6.801  1.00  0.00     0.145 A 
HETATM    5  N   UNL     1      42.767 -10.685   5.524  1.00  0.00    -0.365 N 
HETATM    6  C   UNL     1      43.783 -11.672   5.158  1.00  0.00     0.118 C 
HETATM    7  C   UNL     1      45.106 -11.266   5.829  1.00  0.00     0.066 C 
HETATM    8  C   UNL     1      44.950 -11.122   7.357  1.00  0.00     0.221 C 
HETATM    9  C   UNL     1      41.701  -9.587   7.513  1.00  0.00     0.115 A 
HETATM   10 CL   UNL     1      40.185  -9.102   6.924  1.00  0.00    -0.077 Cl
HETATM   11  H   UNL     1      41.917 -10.717   4.959  1.00  0.00     0.162 HD
ENDROOT
BRANCH   6  12
HETATM   12  C   UNL     1      43.376 -13.110   5.455  1.00  0.00    -0.035 A 
HETATM   13  C   UNL     1      43.685 -13.767   6.656  1.00  0.00     0.012 A 
HETATM   14  C   UNL     1      43.300 -15.095   6.870  1.00  0.00     0.037 A 
HETATM   15  C   UNL     1      42.591 -15.800   5.900  1.00  0.00     0.068 A 
HETATM   16  C   UNL     1      42.261 -15.159   4.709  1.00  0.00     0.037 A 
HETATM   17  C   UNL     1      42.645 -13.829   4.493  1.00  0.00     0.012 A 
BRANCH  15  18
HETATM   18  O   UNL     1      42.283 -17.087   6.239  1.00  0.00    -0.356 OA
HETATM   19  C   UNL     1      43.367 -17.999   6.355  1.00  0.00     0.210 C 
ENDBRANCH  15  18
ENDBRANCH   6  12
BRANCH   8  20
HETATM   20  C   UNL     1      46.169 -10.429   7.925  1.00  0.00     0.409 C 
HETATM   21  F   UNL     1      47.331 -10.870   7.399  1.00  0.00    -0.169 F 
HETATM   22  F   UNL     1      46.110  -9.099   7.648  1.00  0.00    -0.169 F 
HETATM   23  F   UNL     1      46.245 -10.540   9.270  1.00  0.00    -0.169 F 
ENDBRANCH   8  20
BRANCH   1  24
HETATM   24  C   UNL     1      41.512  -8.975  10.038  1.00  0.00     0.273 C 
HETATM   25  N   UNL     1      42.303  -8.112  10.768  1.00  0.00    -0.356 N 
HETATM   26  H   UNL     1      43.251  -7.992  10.420  1.00  0.00     0.162 HD
HETATM   27  O   UNL     1      40.374  -9.289  10.370  1.00  0.00    -0.266 OA
BRANCH  25  28
HETATM   28  C   UNL     1      41.927  -7.605  12.065  1.00  0.00     0.122 C 
BRANCH  28  29
HETATM   29  C   UNL     1      42.827  -8.133  13.181  1.00  0.00     0.015 C 
HETATM   30  C   UNL     1      43.156  -7.073  14.222  1.00  0.00     0.006 C 
ENDBRANCH  28  29
ENDBRANCH  25  28
ENDBRANCH   1  24
TORSDOF 6
ENDMDL
MODEL 7
REMARK VINA RESULT:      -6.9      3.688      6.441
REMARK  6 active torsions:
REMARK  status: ('A' for Active; 'I' for Inactive)
REMARK    1  A    between atoms: C_2  and  C_3 
REMARK    2  A    between atoms: C_3  and  N_4 
REMARK       I    between atoms: N_4  and  C_5 
REMARK    3  A    between atoms: C_5  and  C_6 
REMARK    4  A    between atoms: C_11  and  C_12 
REMARK    5  A    between atoms: C_15  and  O_16 
REMARK    6  A    between atoms: C_21  and  C_22 
ROOT
HETATM    1  C   UNL     1      41.469 -15.931   3.233  1.00  0.00     0.170 A 
HETATM    2  N   UNL     1      41.673 -14.921   4.116  1.00  0.00    -0.163 NA
HETATM    3  N   UNL     1      40.671 -14.062   3.863  1.00  0.00    -0.238 N 
HETATM    4  C   UNL     1      39.897 -14.421   2.791  1.00  0.00     0.145 A 
HETATM    5  N   UNL     1      38.939 -13.586   2.307  1.00  0.00    -0.365 N 
HETATM    6  C   UNL     1      38.940 -12.172   2.681  1.00  0.00     0.118 C 
HETATM    7  C   UNL     1      39.250 -12.076   4.184  1.00  0.00     0.066 C 
HETATM    8  C   UNL     1      40.576 -12.778   4.539  1.00  0.00     0.221 C 
HETATM    9  C   UNL     1      40.353 -15.657   2.395  1.00  0.00     0.115 A 
HETATM   10 CL   UNL     1      39.753 -16.593   1.113  1.00  0.00    -0.077 Cl
HETATM   11  H   UNL     1      38.522 -13.788   1.398  1.00  0.00     0.162 HD
ENDROOT
BRANCH   6  12
HETATM   12  C   UNL     1      39.861 -11.312   1.822  1.00  0.00    -0.035 A 
HETATM   13  C   UNL     1      40.266 -10.018   2.182  1.00  0.00     0.012 A 
HETATM   14  C   UNL     1      41.101  -9.267   1.348  1.00  0.00     0.037 A 
HETATM   15  C   UNL     1      41.560  -9.786   0.140  1.00  0.00     0.068 A 
HETATM   16  C   UNL     1      41.182 -11.075  -0.227  1.00  0.00     0.037 A 
HETATM   17  C   UNL     1      40.347 -11.829   0.608  1.00  0.00     0.012 A 
BRANCH  15  18
HETATM   18  O   UNL     1      42.363  -8.943  -0.575  1.00  0.00    -0.356 OA
HETATM   19  C   UNL     1      41.967  -8.652  -1.909  1.00  0.00     0.210 C 
ENDBRANCH  15  18
ENDBRANCH   6  12
BRANCH   8  20
HETATM   20  C   UNL     1      40.679 -12.930   6.041  1.00  0.00     0.409 C 
HETATM   21  F   UNL     1      41.952 -12.995   6.487  1.00  0.00    -0.169 F 
HETATM   22  F   UNL     1      40.121 -11.850   6.650  1.00  0.00    -0.169 F 
HETATM   23  F   UNL     1      40.017 -14.015   6.497  1.00  0.00    -0.169 F 
ENDBRANCH   8  20
BRANCH   1  24
HETATM   24  C   UNL     1      42.378 -17.087   3.196  1.00  0.00     0.273 C 
HETATM   25  N   UNL     1      43.110 -17.230   4.356  1.00  0.00    -0.356 N 
HETATM   26  H   UNL     1      42.965 -16.503   5.054  1.00  0.00     0.162 HD
HETATM   27  O   UNL     1      42.499 -17.831   2.228  1.00  0.00    -0.266 OA
BRANCH  25  28
HETATM   28  C   UNL     1      44.190 -18.176   4.496  1.00  0.00     0.122 C 
BRANCH  28  29
HETATM   29  C   UNL     1      43.880 -19.270   5.516  1.00  0.00     0.015 C 
HETATM   30  C   UNL     1      43.989 -20.670   4.928  1.00  0.00     0.006 C 
ENDBRANCH  28  29
ENDBRANCH  25  28
ENDBRANCH   1  24
TORSDOF 6
ENDMDL
MODEL 8
REMARK VINA RESULT:      -6.7      4.273      7.737
REMARK  6 active torsions:
REMARK  status: ('A' for Active; 'I' for Inactive)
REMARK    1  A    between atoms: C_2  and  C_3 
REMARK    2  A    between atoms: C_3  and  N_4 
REMARK       I    between atoms: N_4  and  C_5 
REMARK    3  A    between atoms: C_5  and  C_6 
REMARK    4  A    between atoms: C_11  and  C_12 
REMARK    5  A    between atoms: C_15  and  O_16 
REMARK    6  A    between atoms: C_21  and  C_22 
ROOT
HETATM    1  C   UNL     1      40.711 -14.183   1.179  1.00  0.00     0.170 A 
HETATM    2  N   UNL     1      39.887 -14.501   0.149  1.00  0.00    -0.163 NA
HETATM    3  N   UNL     1      39.851 -13.383  -0.595  1.00  0.00    -0.238 N 
HETATM    4  C   UNL     1      40.527 -12.330  -0.038  1.00  0.00     0.145 A 
HETATM    5  N   UNL     1      40.461 -11.086  -0.583  1.00  0.00    -0.365 N 
HETATM    6  C   UNL     1      39.413 -10.764  -1.551  1.00  0.00     0.118 C 
HETATM    7  C   UNL     1      39.273 -11.953  -2.516  1.00  0.00     0.066 C 
HETATM    8  C   UNL     1      38.991 -13.269  -1.763  1.00  0.00     0.221 C 
HETATM    9  C   UNL     1      41.143 -12.831   1.086  1.00  0.00     0.115 A 
HETATM   10 CL   UNL     1      42.130 -11.972   2.167  1.00  0.00    -0.077 Cl
HETATM   11  H   UNL     1      40.802 -10.290  -0.041  1.00  0.00     0.162 HD
ENDROOT
BRANCH   6  12
HETATM   12  C   UNL     1      38.093 -10.351  -0.912  1.00  0.00    -0.035 A 
HETATM   13  C   UNL     1      37.908 -10.239   0.475  1.00  0.00     0.012 A 
HETATM   14  C   UNL     1      36.669  -9.872   1.009  1.00  0.00     0.037 A 
HETATM   15  C   UNL     1      35.584  -9.597   0.178  1.00  0.00     0.068 A 
HETATM   16  C   UNL     1      35.753  -9.686  -1.201  1.00  0.00     0.037 A 
HETATM   17  C   UNL     1      36.994 -10.054  -1.738  1.00  0.00     0.012 A 
BRANCH  15  18
HETATM   18  O   UNL     1      34.436  -9.254   0.833  1.00  0.00    -0.356 OA
HETATM   19  C   UNL     1      33.592  -8.301   0.200  1.00  0.00     0.210 C 
ENDBRANCH  15  18
ENDBRANCH   6  12
BRANCH   8  20
HETATM   20  C   UNL     1      39.172 -14.438  -2.705  1.00  0.00     0.409 C 
HETATM   21  F   UNL     1      38.532 -14.281  -3.883  1.00  0.00    -0.169 F 
HETATM   22  F   UNL     1      40.490 -14.583  -3.008  1.00  0.00    -0.169 F 
HETATM   23  F   UNL     1      38.771 -15.608  -2.159  1.00  0.00    -0.169 F 
ENDBRANCH   8  20
BRANCH   1  24
HETATM   24  C   UNL     1      41.008 -15.167   2.231  1.00  0.00     0.273 C 
HETATM   25  N   UNL     1      42.342 -15.518   2.274  1.00  0.00    -0.356 N 
HETATM   26  H   UNL     1      42.926 -15.095   1.556  1.00  0.00     0.162 HD
HETATM   27  O   UNL     1      40.161 -15.651   2.974  1.00  0.00    -0.266 OA
BRANCH  25  28
HETATM   28  C   UNL     1      42.849 -16.589   3.096  1.00  0.00     0.122 C 
BRANCH  28  29
HETATM   29  C   UNL     1      42.860 -17.931   2.366  1.00  0.00     0.015 C 
HETATM   30  C   UNL     1      43.970 -18.854   2.849  1.00  0.00     0.006 C 
ENDBRANCH  28  29
ENDBRANCH  25  28
ENDBRANCH   1  24
TORSDOF 6
ENDMDL
MODEL 9
REMARK VINA RESULT:      -6.6     16.309     18.368
REMARK  6 active torsions:
REMARK  status: ('A' for Active; 'I' for Inactive)
REMARK    1  A    between atoms: C_2  and  C_3 
REMARK    2  A    between atoms: C_3  and  N_4 
REMARK       I    between atoms: N_4  and  C_5 
REMARK    3  A    between atoms: C_5  and  C_6 
REMARK    4  A    between atoms: C_11  and  C_12 
REMARK    5  A    between atoms: C_15  and  O_16 
REMARK    6  A    between atoms: C_21  and  C_22 
ROOT
HETATM    1  C   UNL     1      44.342 -30.786   1.914  1.00  0.00     0.170 A 
HETATM    2  N   UNL     1      45.613 -30.907   1.457  1.00  0.00    -0.163 NA
HETATM    3  N   UNL     1      45.743 -29.891   0.587  1.00  0.00    -0.238 N 
HETATM    4  C   UNL     1      44.585 -29.188   0.386  1.00  0.00     0.145 A 
HETATM    5  N   UNL     1      44.503 -28.229  -0.574  1.00  0.00    -0.365 N 
HETATM    6  C   UNL     1      45.512 -28.161  -1.631  1.00  0.00     0.118 C 
HETATM    7  C   UNL     1      46.892 -28.387  -0.989  1.00  0.00     0.066 C 
HETATM    8  C   UNL     1      46.948 -29.715  -0.208  1.00  0.00     0.221 C 
HETATM    9  C   UNL     1      43.671 -29.708   1.274  1.00  0.00     0.115 A 
HETATM   10 CL   UNL     1      42.061 -29.211   1.476  1.00  0.00    -0.077 Cl
HETATM   11  H   UNL     1      43.585 -27.869  -0.836  1.00  0.00     0.162 HD
ENDROOT
BRANCH   6  12
HETATM   12  C   UNL     1      45.236 -29.096  -2.803  1.00  0.00    -0.035 A 
HETATM   13  C   UNL     1      46.203 -29.953  -3.352  1.00  0.00     0.012 A 
HETATM   14  C   UNL     1      45.899 -30.779  -4.439  1.00  0.00     0.037 A 
HETATM   15  C   UNL     1      44.624 -30.782  -5.001  1.00  0.00     0.068 A 
HETATM   16  C   UNL     1      43.647 -29.951  -4.460  1.00  0.00     0.037 A 
HETATM   17  C   UNL     1      43.950 -29.123  -3.371  1.00  0.00     0.012 A 
BRANCH  15  18
HETATM   18  O   UNL     1      44.469 -31.633  -6.058  1.00  0.00    -0.356 OA
HETATM   19  C   UNL     1      43.950 -31.080  -7.260  1.00  0.00     0.210 C 
ENDBRANCH  15  18
ENDBRANCH   6  12
BRANCH   8  20
HETATM   20  C   UNL     1      48.193 -29.743   0.651  1.00  0.00     0.409 C 
HETATM   21  F   UNL     1      48.546 -30.986   1.043  1.00  0.00    -0.169 F 
HETATM   22  F   UNL     1      49.248 -29.256  -0.056  1.00  0.00    -0.169 F 
HETATM   23  F   UNL     1      48.077 -28.970   1.753  1.00  0.00    -0.169 F 
ENDBRANCH   8  20
BRANCH   1  24
HETATM   24  C   UNL     1      43.809 -31.736   2.904  1.00  0.00     0.273 C 
HETATM   25  N   UNL     1      43.311 -31.112   4.029  1.00  0.00    -0.356 N 
HETATM   26  H   UNL     1      43.419 -30.100   4.050  1.00  0.00     0.162 HD
HETATM   27  O   UNL     1      43.829 -32.954   2.763  1.00  0.00    -0.266 OA
BRANCH  25  28
HETATM   28  C   UNL     1      42.897 -31.829   5.211  1.00  0.00     0.122 C 
BRANCH  28  29
HETATM   29  C   UNL     1      41.494 -31.439   5.670  1.00  0.00     0.015 C 
HETATM   30  C   UNL     1      40.575 -31.080   4.510  1.00  0.00     0.006 C 
ENDBRANCH  28  29
ENDBRANCH  25  28
ENDBRANCH   1  24
TORSDOF 6
ENDMDL
MODEL 10
REMARK VINA RESULT:      -6.5     16.184     18.802
REMARK  6 active torsions:
REMARK  status: ('A' for Active; 'I' for Inactive)
REMARK    1  A    between atoms: C_2  and  C_3 
REMARK    2  A    between atoms: C_3  and  N_4 
REMARK       I    between atoms: N_4  and  C_5 
REMARK    3  A    between atoms: C_5  and  C_6 
REMARK    4  A    between atoms: C_11  and  C_12 
REMARK    5  A    between atoms: C_15  and  O_16 
REMARK    6  A    between atoms: C_21  and  C_22 
ROOT
HETATM    1  C   UNL     1      45.137 -31.064   2.442  1.00  0.00     0.170 A 
HETATM    2  N   UNL     1      46.193 -30.601   1.727  1.00  0.00    -0.163 NA
HETATM    3  N   UNL     1      45.640 -29.744   0.852  1.00  0.00    -0.238 N 
HETATM    4  C   UNL     1      44.271 -29.714   0.902  1.00  0.00     0.145 A 
HETATM    5  N   UNL     1      43.550 -29.018  -0.018  1.00  0.00    -0.365 N 
HETATM    6  C   UNL     1      44.179 -28.579  -1.264  1.00  0.00     0.118 C 
HETATM    7  C   UNL     1      45.580 -28.042  -0.929  1.00  0.00     0.066 C 
HETATM    8  C   UNL     1      46.429 -29.090  -0.180  1.00  0.00     0.221 C 
HETATM    9  C   UNL     1      43.916 -30.517   1.961  1.00  0.00     0.115 A 
HETATM   10 CL   UNL     1      42.340 -30.842   2.500  1.00  0.00    -0.077 Cl
HETATM   11  H   UNL     1      42.544 -29.175  -0.078  1.00  0.00     0.162 HD
ENDROOT
BRANCH   6  12
HETATM   12  C   UNL     1      44.189 -29.645  -2.353  1.00  0.00    -0.035 A 
HETATM   13  C   UNL     1      44.168 -31.023  -2.086  1.00  0.00     0.012 A 
HETATM   14  C   UNL     1      44.195 -31.958  -3.125  1.00  0.00     0.037 A 
HETATM   15  C   UNL     1      44.235 -31.549  -4.456  1.00  0.00     0.068 A 
HETATM   16  C   UNL     1      44.239 -30.186  -4.741  1.00  0.00     0.037 A 
HETATM   17  C   UNL     1      44.211 -29.247  -3.702  1.00  0.00     0.012 A 
BRANCH  15  18
HETATM   18  O   UNL     1      44.262 -32.567  -5.366  1.00  0.00    -0.356 OA
HETATM   19  C   UNL     1      43.914 -33.862  -4.895  1.00  0.00     0.210 C 
ENDBRANCH  15  18
ENDBRANCH   6  12
BRANCH   8  20
HETATM   20  C   UNL     1      47.659 -28.425   0.396  1.00  0.00     0.409 C 
HETATM   21  F   UNL     1      48.721 -29.253   0.493  1.00  0.00    -0.169 F 
HETATM   22  F   UNL     1      48.049 -27.404  -0.414  1.00  0.00    -0.169 F 
HETATM   23  F   UNL     1      47.432 -27.886   1.614  1.00  0.00    -0.169 F 
ENDBRANCH   8  20
BRANCH   1  24
HETATM   24  C   UNL     1      45.337 -32.045   3.520  1.00  0.00     0.273 C 
HETATM   25  N   UNL     1      45.058 -31.532   4.770  1.00  0.00    -0.356 N 
HETATM   26  H   UNL     1      44.803 -30.547   4.788  1.00  0.00     0.162 HD
HETATM   27  O   UNL     1      45.737 -33.190   3.337  1.00  0.00    -0.266 OA
BRANCH  25  28
HETATM   28  C   UNL     1      45.345 -32.238   5.995  1.00  0.00     0.122 C 
BRANCH  28  29
HETATM   29  C   UNL     1      46.580 -31.692   6.709  1.00  0.00     0.015 C 
HETATM   30  C   UNL     1      47.848 -32.456   6.357  1.00  0.00     0.006 C 
ENDBRANCH  28  29
ENDBRANCH  25  28
ENDBRANCH   1  24
TORSDOF 6
ENDMDL
