MODEL 1
REMARK VINA RESULT:      -8.1      0.000      0.000
REMARK  2 active torsions:
REMARK  status: ('A' for Active; 'I' for Inactive)
REMARK    1  A    between atoms: C_2  and  C_3 
REMARK    2  A    between atoms: C_6  and  C_7 
ROOT
HETATM    1  C   UNL     1      42.738 -14.915   4.301  1.00  0.00     0.119 C 
HETATM    2  S   UNL     1      42.816 -13.586   3.082  1.00  0.00    -0.141 SA
HETATM    3  C   UNL     1      41.187 -13.766   2.304  1.00  0.00     0.136 C 
HETATM    4  C   UNL     1      41.283 -13.302   0.853  1.00  0.00     0.031 C 
HETATM    5  C   UNL     1      40.185 -12.939   3.071  1.00  0.00     0.236 C 
HETATM    6  O   UNL     1      39.532 -12.014   2.607  1.00  0.00    -0.272 OA
HETATM    7  N   UNL     1      39.835 -13.261   4.416  1.00  0.00    -0.311 N 
HETATM    8  C   UNL     1      40.357 -14.237   5.242  1.00  0.00     0.134 A 
HETATM    9  C   UNL     1      41.537 -14.965   5.199  1.00  0.00     0.032 A 
HETATM   10  N   UNL     1      39.712 -14.628   6.388  1.00  0.00    -0.262 N 
HETATM   11  H   UNL     1      38.827 -14.293   6.755  1.00  0.00     0.191 HD
HETATM   12  N   UNL     1      40.330 -15.594   7.063  1.00  0.00    -0.178 NA
HETATM   13  C   UNL     1      41.456 -15.797   6.376  1.00  0.00     0.062 A 
HETATM   14  C   UNL     1      42.436 -16.799   6.883  1.00  0.00     0.073 C 
HETATM   15  H   UNL     1      39.064 -12.693   4.755  1.00  0.00     0.170 HD
ENDROOT
BRANCH   1  16
HETATM   16  C   UNL     1      42.982 -16.291   3.694  1.00  0.00    -0.040 A 
HETATM   17  C   UNL     1      44.063 -17.049   4.186  1.00  0.00     0.009 A 
HETATM   18  C   UNL     1      44.337 -18.328   3.697  1.00  0.00     0.007 A 
HETATM   19  C   UNL     1      43.549 -18.882   2.686  1.00  0.00    -0.059 A 
HETATM   20  C   UNL     1      42.484 -18.133   2.174  1.00  0.00     0.007 A 
HETATM   21  C   UNL     1      42.204 -16.855   2.670  1.00  0.00     0.009 A 
BRANCH  19  22
HETATM   22  C   UNL     1      43.829 -20.273   2.172  1.00  0.00     0.034 C 
HETATM   23  C   UNL     1      43.990 -21.279   3.303  1.00  0.00     0.010 C 
ENDBRANCH  19  22
ENDBRANCH   1  16
TORSDOF 2
ENDMDL
MODEL 2
REMARK VINA RESULT:      -7.6      3.112      4.663
REMARK  2 active torsions:
REMARK  status: ('A' for Active; 'I' for Inactive)
REMARK    1  A    between atoms: C_2  and  C_3 
REMARK    2  A    between atoms: C_6  and  C_7 
ROOT
HETATM    1  C   UNL     1      40.799 -12.730   0.525  1.00  0.00     0.119 C 
HETATM    2  S   UNL     1      40.666 -12.894  -1.268  1.00  0.00    -0.141 SA
HETATM    3  C   UNL     1      39.086 -13.776  -1.395  1.00  0.00     0.136 C 
HETATM    4  C   UNL     1      39.107 -14.642  -2.652  1.00  0.00     0.031 C 
HETATM    5  C   UNL     1      37.966 -12.767  -1.452  1.00  0.00     0.236 C 
HETATM    6  O   UNL     1      37.176 -12.644  -2.378  1.00  0.00    -0.272 OA
HETATM    7  N   UNL     1      37.672 -11.925  -0.339  1.00  0.00    -0.311 N 
HETATM    8  C   UNL     1      38.341 -11.805   0.862  1.00  0.00     0.134 A 
HETATM    9  C   UNL     1      39.622 -12.162   1.259  1.00  0.00     0.032 A 
HETATM   10  N   UNL     1      37.766 -11.190   1.947  1.00  0.00    -0.262 N 
HETATM   11  H   UNL     1      36.840 -10.782   2.017  1.00  0.00     0.191 HD
HETATM   12  N   UNL     1      38.529 -11.174   3.036  1.00  0.00    -0.178 NA
HETATM   13  C   UNL     1      39.673 -11.733   2.637  1.00  0.00     0.062 A 
HETATM   14  C   UNL     1      40.799 -11.838   3.608  1.00  0.00     0.073 C 
HETATM   15  H   UNL     1      36.820 -11.390  -0.482  1.00  0.00     0.170 HD
ENDROOT
BRANCH   1  16
HETATM   16  C   UNL     1      41.258 -14.014   1.204  1.00  0.00    -0.040 A 
HETATM   17  C   UNL     1      42.626 -14.146   1.514  1.00  0.00     0.009 A 
HETATM   18  C   UNL     1      43.119 -15.283   2.158  1.00  0.00     0.007 A 
HETATM   19  C   UNL     1      42.262 -16.332   2.496  1.00  0.00    -0.059 A 
HETATM   20  C   UNL     1      40.904 -16.223   2.177  1.00  0.00     0.007 A 
HETATM   21  C   UNL     1      40.408 -15.081   1.539  1.00  0.00     0.009 A 
BRANCH  19  22
HETATM   22  C   UNL     1      42.789 -17.551   3.212  1.00  0.00     0.034 C 
HETATM   23  C   UNL     1      43.154 -18.669   2.246  1.00  0.00     0.010 C 
ENDBRANCH  19  22
ENDBRANCH   1  16
TORSDOF 2
ENDMDL
MODEL 3
REMARK VINA RESULT:      -7.5      2.861      4.266
REMARK  2 active torsions:
REMARK  status: ('A' for Active; 'I' for Inactive)
REMARK    1  A    between atoms: C_2  and  C_3 
REMARK    2  A    between atoms: C_6  and  C_7 
ROOT
HETATM    1  C   UNL     1      40.822 -13.834   2.961  1.00  0.00     0.119 C 
HETATM    2  S   UNL     1      40.978 -13.067   4.588  1.00  0.00    -0.141 SA
HETATM    3  C   UNL     1      42.551 -12.188   4.381  1.00  0.00     0.136 C 
HETATM    4  C   UNL     1      43.240 -12.088   5.739  1.00  0.00     0.031 C 
HETATM    5  C   UNL     1      42.273 -10.817   3.814  1.00  0.00     0.236 C 
HETATM    6  O   UNL     1      42.552  -9.759   4.361  1.00  0.00    -0.272 OA
HETATM    7  N   UNL     1      41.741 -10.653   2.501  1.00  0.00    -0.311 N 
HETATM    8  C   UNL     1      41.325 -11.616   1.603  1.00  0.00     0.134 A 
HETATM    9  C   UNL     1      40.974 -12.950   1.759  1.00  0.00     0.032 A 
HETATM   10  N   UNL     1      41.134 -11.326   0.276  1.00  0.00    -0.262 N 
HETATM   11  H   UNL     1      41.271 -10.440  -0.198  1.00  0.00     0.191 HD
HETATM   12  N   UNL     1      40.754 -12.366  -0.463  1.00  0.00    -0.178 NA
HETATM   13  C   UNL     1      40.623 -13.358   0.419  1.00  0.00     0.062 A 
HETATM   14  C   UNL     1      40.153 -14.689  -0.060  1.00  0.00     0.073 C 
HETATM   15  H   UNL     1      41.725  -9.678   2.216  1.00  0.00     0.170 HD
ENDROOT
BRANCH   1  16
HETATM   16  C   UNL     1      41.698 -15.070   2.803  1.00  0.00    -0.040 A 
HETATM   17  C   UNL     1      41.312 -16.245   3.478  1.00  0.00     0.009 A 
HETATM   18  C   UNL     1      42.050 -17.425   3.363  1.00  0.00     0.007 A 
HETATM   19  C   UNL     1      43.208 -17.463   2.584  1.00  0.00    -0.059 A 
HETATM   20  C   UNL     1      43.614 -16.298   1.924  1.00  0.00     0.007 A 
HETATM   21  C   UNL     1      42.870 -15.118   2.031  1.00  0.00     0.009 A 
BRANCH  19  22
HETATM   22  C   UNL     1      43.994 -18.743   2.441  1.00  0.00     0.034 C 
HETATM   23  C   UNL     1      43.108 -19.916   2.045  1.00  0.00     0.010 C 
ENDBRANCH  19  22
ENDBRANCH   1  16
TORSDOF 2
ENDMDL
MODEL 4
REMARK VINA RESULT:      -7.4      3.255      4.584
REMARK  2 active torsions:
REMARK  status: ('A' for Active; 'I' for Inactive)
REMARK    1  A    between atoms: C_2  and  C_3 
REMARK    2  A    between atoms: C_6  and  C_7 
ROOT
HETATM    1  C   UNL     1      40.448 -13.887   2.013  1.00  0.00     0.119 C 
HETATM    2  S   UNL     1      40.775 -12.520   3.145  1.00  0.00    -0.141 SA
HETATM    3  C   UNL     1      42.206 -11.761   2.328  1.00  0.00     0.136 C 
HETATM    4  C   UNL     1      43.082 -11.099   3.389  1.00  0.00     0.031 C 
HETATM    5  C   UNL     1      41.715 -10.748   1.323  1.00  0.00     0.236 C 
HETATM    6  O   UNL     1      41.972  -9.552   1.345  1.00  0.00    -0.272 OA
HETATM    7  N   UNL     1      40.976 -11.148   0.171  1.00  0.00    -0.311 N 
HETATM    8  C   UNL     1      40.523 -12.404  -0.180  1.00  0.00     0.134 A 
HETATM    9  C   UNL     1      40.329 -13.567   0.553  1.00  0.00     0.032 A 
HETATM   10  N   UNL     1      40.104 -12.687  -1.456  1.00  0.00    -0.262 N 
HETATM   11  H   UNL     1      40.082 -12.067  -2.259  1.00  0.00     0.191 HD
HETATM   12  N   UNL     1      39.718 -13.946  -1.640  1.00  0.00    -0.178 NA
HETATM   13  C   UNL     1      39.818 -14.495  -0.428  1.00  0.00     0.062 A 
HETATM   14  C   UNL     1      39.411 -15.917  -0.247  1.00  0.00     0.073 C 
HETATM   15  H   UNL     1      40.823 -10.375  -0.470  1.00  0.00     0.170 HD
ENDROOT
BRANCH   1  16
HETATM   16  C   UNL     1      41.403 -15.058   2.205  1.00  0.00    -0.040 A 
HETATM   17  C   UNL     1      41.055 -16.049   3.144  1.00  0.00     0.009 A 
HETATM   18  C   UNL     1      41.868 -17.164   3.360  1.00  0.00     0.007 A 
HETATM   19  C   UNL     1      43.065 -17.314   2.657  1.00  0.00    -0.059 A 
HETATM   20  C   UNL     1      43.433 -16.327   1.735  1.00  0.00     0.007 A 
HETATM   21  C   UNL     1      42.615 -15.214   1.513  1.00  0.00     0.009 A 
BRANCH  19  22
HETATM   22  C   UNL     1      43.933 -18.529   2.872  1.00  0.00     0.034 C 
HETATM   23  C   UNL     1      43.384 -19.757   2.160  1.00  0.00     0.010 C 
ENDBRANCH  19  22
ENDBRANCH   1  16
TORSDOF 2
ENDMDL
MODEL 5
REMARK VINA RESULT:      -7.4      2.119      2.882
REMARK  2 active torsions:
REMARK  status: ('A' for Active; 'I' for Inactive)
REMARK    1  A    between atoms: C_2  and  C_3 
REMARK    2  A    between atoms: C_6  and  C_7 
ROOT
HETATM    1  C   UNL     1      41.630 -12.786   2.371  1.00  0.00     0.119 C 
HETATM    2  S   UNL     1      41.129 -12.118   0.770  1.00  0.00    -0.141 SA
HETATM    3  C   UNL     1      39.403 -12.674   0.715  1.00  0.00     0.136 C 
HETATM    4  C   UNL     1      39.002 -12.885  -0.742  1.00  0.00     0.031 C 
HETATM    5  C   UNL     1      38.532 -11.629   1.369  1.00  0.00     0.236 C 
HETATM    6  O   UNL     1      37.626 -11.021   0.817  1.00  0.00    -0.272 OA
HETATM    7  N   UNL     1      38.639 -11.344   2.763  1.00  0.00    -0.311 N 
HETATM    8  C   UNL     1      39.533 -11.846   3.688  1.00  0.00     0.134 A 
HETATM    9  C   UNL     1      40.760 -12.480   3.554  1.00  0.00     0.032 A 
HETATM   10  N   UNL     1      39.317 -11.720   5.037  1.00  0.00    -0.262 N 
HETATM   11  H   UNL     1      38.529 -11.288   5.508  1.00  0.00     0.191 HD
HETATM   12  N   UNL     1      40.258 -12.273   5.797  1.00  0.00    -0.178 NA
HETATM   13  C   UNL     1      41.160 -12.717   4.921  1.00  0.00     0.062 A 
HETATM   14  C   UNL     1      42.401 -13.365   5.432  1.00  0.00     0.073 C 
HETATM   15  H   UNL     1      37.909 -10.712   3.079  1.00  0.00     0.170 HD
ENDROOT
BRANCH   1  16
HETATM   16  C   UNL     1      41.925 -14.279   2.324  1.00  0.00    -0.040 A 
HETATM   17  C   UNL     1      43.207 -14.687   1.905  1.00  0.00     0.009 A 
HETATM   18  C   UNL     1      43.562 -16.037   1.858  1.00  0.00     0.007 A 
HETATM   19  C   UNL     1      42.639 -17.024   2.211  1.00  0.00    -0.059 A 
HETATM   20  C   UNL     1      41.356 -16.634   2.610  1.00  0.00     0.007 A 
HETATM   21  C   UNL     1      41.003 -15.281   2.666  1.00  0.00     0.009 A 
BRANCH  19  22
HETATM   22  C   UNL     1      43.027 -18.481   2.182  1.00  0.00     0.034 C 
HETATM   23  C   UNL     1      44.051 -18.821   3.256  1.00  0.00     0.010 C 
ENDBRANCH  19  22
ENDBRANCH   1  16
TORSDOF 2
ENDMDL
MODEL 6
REMARK VINA RESULT:      -7.2      4.255      5.349
REMARK  2 active torsions:
REMARK  status: ('A' for Active; 'I' for Inactive)
REMARK    1  A    between atoms: C_2  and  C_3 
REMARK    2  A    between atoms: C_6  and  C_7 
ROOT
HETATM    1  C   UNL     1      42.653 -10.558   5.490  1.00  0.00     0.119 C 
HETATM    2  S   UNL     1      41.157  -9.632   5.083  1.00  0.00    -0.141 SA
HETATM    3  C   UNL     1      39.981 -10.396   6.234  1.00  0.00     0.136 C 
HETATM    4  C   UNL     1      38.585 -10.336   5.621  1.00  0.00     0.031 C 
HETATM    5  C   UNL     1      40.028  -9.651   7.546  1.00  0.00     0.236 C 
HETATM    6  O   UNL     1      39.082  -9.069   8.059  1.00  0.00    -0.272 OA
HETATM    7  N   UNL     1      41.196  -9.666   8.364  1.00  0.00    -0.311 N 
HETATM    8  C   UNL     1      42.431 -10.229   8.109  1.00  0.00     0.134 A 
HETATM    9  C   UNL     1      43.045 -10.642   6.935  1.00  0.00     0.032 A 
HETATM   10  N   UNL     1      43.348 -10.433   9.109  1.00  0.00    -0.262 N 
HETATM   11  H   UNL     1      43.252 -10.228  10.098  1.00  0.00     0.191 HD
HETATM   12  N   UNL     1      44.480 -11.004   8.706  1.00  0.00    -0.178 NA
HETATM   13  C   UNL     1      44.333 -11.116   7.385  1.00  0.00     0.062 A 
HETATM   14  C   UNL     1      45.454 -11.682   6.582  1.00  0.00     0.073 C 
HETATM   15  H   UNL     1      41.035  -9.226   9.266  1.00  0.00     0.170 HD
ENDROOT
BRANCH   1  16
HETATM   16  C   UNL     1      42.675 -11.949   4.870  1.00  0.00    -0.040 A 
HETATM   17  C   UNL     1      43.187 -12.083   3.564  1.00  0.00     0.009 A 
HETATM   18  C   UNL     1      43.262 -13.329   2.937  1.00  0.00     0.007 A 
HETATM   19  C   UNL     1      42.811 -14.478   3.590  1.00  0.00    -0.059 A 
HETATM   20  C   UNL     1      42.282 -14.357   4.880  1.00  0.00     0.007 A 
HETATM   21  C   UNL     1      42.214 -13.110   5.511  1.00  0.00     0.009 A 
BRANCH  19  22
HETATM   22  C   UNL     1      42.913 -15.827   2.923  1.00  0.00     0.034 C 
HETATM   23  C   UNL     1      43.454 -15.725   1.504  1.00  0.00     0.010 C 
ENDBRANCH  19  22
ENDBRANCH   1  16
TORSDOF 2
ENDMDL
MODEL 7
REMARK VINA RESULT:      -7.1      9.453     11.827
REMARK  2 active torsions:
REMARK  status: ('A' for Active; 'I' for Inactive)
REMARK    1  A    between atoms: C_2  and  C_3 
REMARK    2  A    between atoms: C_6  and  C_7 
ROOT
HETATM    1  C   UNL     1      41.705  -9.025  10.918  1.00  0.00     0.119 C 
HETATM    2  S   UNL     1      40.659  -7.971   9.890  1.00  0.00    -0.141 SA
HETATM    3  C   UNL     1      41.850  -6.679   9.437  1.00  0.00     0.136 C 
HETATM    4  C   UNL     1      41.095  -5.371   9.218  1.00  0.00     0.031 C 
HETATM    5  C   UNL     1      42.575  -7.101   8.183  1.00  0.00     0.236 C 
HETATM    6  O   UNL     1      42.564  -6.489   7.124  1.00  0.00    -0.272 OA
HETATM    7  N   UNL     1      43.446  -8.231   8.176  1.00  0.00    -0.311 N 
HETATM    8  C   UNL     1      43.706  -9.135   9.187  1.00  0.00     0.134 A 
HETATM    9  C   UNL     1      43.023  -9.459  10.351  1.00  0.00     0.032 A 
HETATM   10  N   UNL     1      44.791  -9.975   9.137  1.00  0.00    -0.262 N 
HETATM   11  H   UNL     1      45.503 -10.036   8.417  1.00  0.00     0.191 HD
HETATM   12  N   UNL     1      44.916 -10.771  10.196  1.00  0.00    -0.178 NA
HETATM   13  C   UNL     1      43.840 -10.497  10.935  1.00  0.00     0.062 A 
HETATM   14  C   UNL     1      43.623 -11.256  12.199  1.00  0.00     0.073 C 
HETATM   15  H   UNL     1      43.953  -8.315   7.300  1.00  0.00     0.170 HD
ENDROOT
BRANCH   1  16
HETATM   16  C   UNL     1      41.908  -8.469  12.321  1.00  0.00    -0.040 A 
HETATM   17  C   UNL     1      40.980  -8.834  13.317  1.00  0.00     0.009 A 
HETATM   18  C   UNL     1      41.112  -8.385  14.633  1.00  0.00     0.007 A 
HETATM   19  C   UNL     1      42.165  -7.541  14.991  1.00  0.00    -0.059 A 
HETATM   20  C   UNL     1      43.083  -7.155  14.008  1.00  0.00     0.007 A 
HETATM   21  C   UNL     1      42.956  -7.612  12.691  1.00  0.00     0.009 A 
BRANCH  19  22
HETATM   22  C   UNL     1      42.322  -7.074  16.416  1.00  0.00     0.034 C 
HETATM   23  C   UNL     1      41.198  -7.577  17.311  1.00  0.00     0.010 C 
ENDBRANCH  19  22
ENDBRANCH   1  16
TORSDOF 2
ENDMDL
MODEL 8
REMARK VINA RESULT:      -7.0      2.058      2.626
REMARK  2 active torsions:
REMARK  status: ('A' for Active; 'I' for Inactive)
REMARK    1  A    between atoms: C_2  and  C_3 
REMARK    2  A    between atoms: C_6  and  C_7 
ROOT
HETATM    1  C   UNL     1      42.978 -14.343   3.666  1.00  0.00     0.119 C 
HETATM    2  S   UNL     1      42.360 -14.534   1.980  1.00  0.00    -0.141 SA
HETATM    3  C   UNL     1      40.581 -14.676   2.304  1.00  0.00     0.136 C 
HETATM    4  C   UNL     1      39.951 -15.537   1.213  1.00  0.00     0.031 C 
HETATM    5  C   UNL     1      39.976 -13.293   2.318  1.00  0.00     0.236 C 
HETATM    6  O   UNL     1      39.100 -12.900   1.560  1.00  0.00    -0.272 OA
HETATM    7  N   UNL     1      40.319 -12.345   3.327  1.00  0.00    -0.311 N 
HETATM    8  C   UNL     1      41.252 -12.452   4.340  1.00  0.00     0.134 A 
HETATM    9  C   UNL     1      42.340 -13.293   4.525  1.00  0.00     0.032 A 
HETATM   10  N   UNL     1      41.250 -11.594   5.411  1.00  0.00    -0.262 N 
HETATM   11  H   UNL     1      40.609 -10.831   5.602  1.00  0.00     0.191 HD
HETATM   12  N   UNL     1      42.196 -11.840   6.313  1.00  0.00    -0.178 NA
HETATM   13  C   UNL     1      42.890 -12.850   5.784  1.00  0.00     0.062 A 
HETATM   14  C   UNL     1      44.081 -13.365   6.517  1.00  0.00     0.073 C 
HETATM   15  H   UNL     1      39.743 -11.510   3.277  1.00  0.00     0.170 HD
ENDROOT
BRANCH   1  16
HETATM   16  C   UNL     1      43.040 -15.661   4.427  1.00  0.00    -0.040 A 
HETATM   17  C   UNL     1      43.938 -16.647   3.971  1.00  0.00     0.009 A 
HETATM   18  C   UNL     1      44.069 -17.871   4.629  1.00  0.00     0.007 A 
HETATM   19  C   UNL     1      43.293 -18.157   5.755  1.00  0.00    -0.059 A 
HETATM   20  C   UNL     1      42.383 -17.194   6.207  1.00  0.00     0.007 A 
HETATM   21  C   UNL     1      42.257 -15.964   5.552  1.00  0.00     0.009 A 
BRANCH  19  22
HETATM   22  C   UNL     1      43.449 -19.469   6.481  1.00  0.00     0.034 C 
HETATM   23  C   UNL     1      43.927 -20.581   5.557  1.00  0.00     0.010 C 
ENDBRANCH  19  22
ENDBRANCH   1  16
TORSDOF 2
ENDMDL
MODEL 9
REMARK VINA RESULT:      -7.0     14.522     15.816
REMARK  2 active torsions:
REMARK  status: ('A' for Active; 'I' for Inactive)
REMARK    1  A    between atoms: C_2  and  C_3 
REMARK    2  A    between atoms: C_6  and  C_7 
ROOT
HETATM    1  C   UNL     1      44.069 -29.150   0.275  1.00  0.00     0.119 C 
HETATM    2  S   UNL     1      42.438 -29.205   1.047  1.00  0.00    -0.141 SA
HETATM    3  C   UNL     1      42.468 -30.880   1.745  1.00  0.00     0.136 C 
HETATM    4  C   UNL     1      41.041 -31.418   1.790  1.00  0.00     0.031 C 
HETATM    5  C   UNL     1      43.068 -30.821   3.128  1.00  0.00     0.236 C 
HETATM    6  O   UNL     1      42.497 -31.154   4.158  1.00  0.00    -0.272 OA
HETATM    7  N   UNL     1      44.434 -30.463   3.328  1.00  0.00    -0.311 N 
HETATM    8  C   UNL     1      45.369 -30.046   2.401  1.00  0.00     0.134 A 
HETATM    9  C   UNL     1      45.249 -29.533   1.117  1.00  0.00     0.032 A 
HETATM   10  N   UNL     1      46.711 -30.039   2.688  1.00  0.00    -0.262 N 
HETATM   11  H   UNL     1      47.170 -30.326   3.546  1.00  0.00     0.191 HD
HETATM   12  N   UNL     1      47.484 -29.631   1.685  1.00  0.00    -0.178 NA
HETATM   13  C   UNL     1      46.618 -29.292   0.728  1.00  0.00     0.062 A 
HETATM   14  C   UNL     1      47.142 -28.734  -0.551  1.00  0.00     0.073 C 
HETATM   15  H   UNL     1      44.723 -30.587   4.294  1.00  0.00     0.170 HD
ENDROOT
BRANCH   1  16
HETATM   16  C   UNL     1      44.122 -29.894  -1.052  1.00  0.00    -0.040 A 
HETATM   17  C   UNL     1      44.018 -29.141  -2.238  1.00  0.00     0.009 A 
HETATM   18  C   UNL     1      44.081 -29.749  -3.494  1.00  0.00     0.007 A 
HETATM   19  C   UNL     1      44.232 -31.133  -3.604  1.00  0.00    -0.059 A 
HETATM   20  C   UNL     1      44.317 -31.896  -2.434  1.00  0.00     0.007 A 
HETATM   21  C   UNL     1      44.262 -31.286  -1.176  1.00  0.00     0.009 A 
BRANCH  19  22
HETATM   22  C   UNL     1      44.324 -31.789  -4.959  1.00  0.00     0.034 C 
HETATM   23  C   UNL     1      44.002 -30.819  -6.087  1.00  0.00     0.010 C 
ENDBRANCH  19  22
ENDBRANCH   1  16
TORSDOF 2
ENDMDL
MODEL 10
REMARK VINA RESULT:      -7.0      2.171      2.680
REMARK  2 active torsions:
REMARK  status: ('A' for Active; 'I' for Inactive)
REMARK    1  A    between atoms: C_2  and  C_3 
REMARK    2  A    between atoms: C_6  and  C_7 
ROOT
HETATM    1  C   UNL     1      42.787 -14.152   6.271  1.00  0.00     0.119 C 
HETATM    2  S   UNL     1      44.039 -12.851   6.242  1.00  0.00    -0.141 SA
HETATM    3  C   UNL     1      43.664 -12.079   4.643  1.00  0.00     0.136 C 
HETATM    4  C   UNL     1      44.949 -11.488   4.070  1.00  0.00     0.031 C 
HETATM    5  C   UNL     1      42.622 -11.007   4.851  1.00  0.00     0.236 C 
HETATM    6  O   UNL     1      42.775  -9.818   4.603  1.00  0.00    -0.272 OA
HETATM    7  N   UNL     1      41.297 -11.332   5.267  1.00  0.00    -0.311 N 
HETATM    8  C   UNL     1      40.773 -12.560   5.621  1.00  0.00     0.134 A 
HETATM    9  C   UNL     1      41.366 -13.755   6.004  1.00  0.00     0.032 A 
HETATM   10  N   UNL     1      39.419 -12.768   5.695  1.00  0.00    -0.262 N 
HETATM   11  H   UNL     1      38.672 -12.109   5.504  1.00  0.00     0.191 HD
HETATM   12  N   UNL     1      39.072 -14.009   6.026  1.00  0.00    -0.178 NA
HETATM   13  C   UNL     1      40.237 -14.621   6.247  1.00  0.00     0.062 A 
HETATM   14  C   UNL     1      40.229 -16.043   6.695  1.00  0.00     0.073 C 
HETATM   15  H   UNL     1      40.682 -10.525   5.245  1.00  0.00     0.170 HD
ENDROOT
BRANCH   1  16
HETATM   16  C   UNL     1      43.157 -15.349   5.404  1.00  0.00    -0.040 A 
HETATM   17  C   UNL     1      43.855 -16.413   6.008  1.00  0.00     0.009 A 
HETATM   18  C   UNL     1      44.209 -17.554   5.285  1.00  0.00     0.007 A 
HETATM   19  C   UNL     1      43.891 -17.660   3.929  1.00  0.00    -0.059 A 
HETATM   20  C   UNL     1      43.215 -16.602   3.312  1.00  0.00     0.007 A 
HETATM   21  C   UNL     1      42.853 -15.462   4.037  1.00  0.00     0.009 A 
BRANCH  19  22
HETATM   22  C   UNL     1      44.251 -18.902   3.153  1.00  0.00     0.034 C 
HETATM   23  C   UNL     1      43.164 -19.292   2.162  1.00  0.00     0.010 C 
ENDBRANCH  19  22
ENDBRANCH   1  16
TORSDOF 2
ENDMDL
