MODEL 1
REMARK VINA RESULT:      -8.0      0.000      0.000
REMARK  3 active torsions:
REMARK  status: ('A' for Active; 'I' for Inactive)
REMARK    1  A    between atoms: C_2  and  C_3 
REMARK    2  A    between atoms: C_9  and  C_10 
REMARK    3  A    between atoms: C_20  and  N_21 
ROOT
HETATM    1  C   UNL     1      43.210 -14.264   6.087  1.00  0.00     0.043 A 
HETATM    2  N   UNL     1      43.050 -14.237   7.457  1.00  0.00    -0.279 N 
HETATM    3  H   UNL     1      43.000 -13.426   8.064  1.00  0.00     0.189 HD
HETATM    4  N   UNL     1      43.001 -15.458   8.027  1.00  0.00    -0.148 NA
HETATM    5  C   UNL     1      43.081 -16.268   6.979  1.00  0.00     0.199 A 
HETATM    6  C   UNL     1      43.186 -15.606   5.750  1.00  0.00     0.035 A 
HETATM    7  C   UNL     1      43.339 -16.381   4.492  1.00  0.00     0.106 A 
HETATM    8  C   UNL     1      43.487 -17.864   4.780  1.00  0.00     0.067 A 
HETATM    9  C   UNL     1      43.956 -18.720   3.615  1.00  0.00     0.020 C 
HETATM   10  N   UNL     1      44.344 -19.430   2.648  1.00  0.00    -0.096 N 
HETATM   11  C   UNL     1      43.380 -18.400   6.023  1.00  0.00     0.139 A 
HETATM   12  O   UNL     1      43.112 -17.604   7.150  1.00  0.00    -0.277 OA
ENDROOT
BRANCH   7  13
HETATM   13  C   UNL     1      42.187 -16.013   3.565  1.00  0.00    -0.022 A 
HETATM   14  C   UNL     1      42.312 -15.464   2.274  1.00  0.00     0.041 A 
HETATM   15 CL   UNL     1      43.829 -15.108   1.532  1.00  0.00    -0.084 Cl
HETATM   16  C   UNL     1      41.176 -15.157   1.511  1.00  0.00     0.024 A 
HETATM   17  C   UNL     1      39.898 -15.376   2.020  1.00  0.00     0.002 A 
HETATM   18  C   UNL     1      39.749 -15.900   3.297  1.00  0.00     0.001 A 
HETATM   19  C   UNL     1      40.877 -16.213   4.059  1.00  0.00     0.010 A 
ENDBRANCH   7  13
BRANCH  11  20
HETATM   20  N   UNL     1      43.551 -19.729   6.336  1.00  0.00    -0.282 NA
HETATM   21  H   UNL     1      44.281 -20.223   5.831  1.00  0.00     0.126 HD
HETATM   22  H   UNL     1      43.576 -19.885   7.342  1.00  0.00     0.126 HD
ENDBRANCH  11  20
BRANCH   1  23
HETATM   23  C   UNL     1      43.376 -13.025   5.263  1.00  0.00     0.029 C 
HETATM   24  C   UNL     1      44.108 -11.932   6.044  1.00  0.00     0.016 C 
HETATM   25  C   UNL     1      42.033 -12.519   4.739  1.00  0.00     0.016 C 
ENDBRANCH   1  23
TORSDOF 3
ENDMDL
MODEL 2
REMARK VINA RESULT:      -7.3      3.261      5.175
REMARK  3 active torsions:
REMARK  status: ('A' for Active; 'I' for Inactive)
REMARK    1  A    between atoms: C_2  and  C_3 
REMARK    2  A    between atoms: C_9  and  C_10 
REMARK    3  A    between atoms: C_20  and  N_21 
ROOT
HETATM    1  C   UNL     1      43.554 -13.929   6.243  1.00  0.00     0.043 A 
HETATM    2  N   UNL     1      44.529 -13.111   6.776  1.00  0.00    -0.279 N 
HETATM    3  H   UNL     1      45.181 -13.324   7.523  1.00  0.00     0.189 HD
HETATM    4  N   UNL     1      44.558 -11.874   6.244  1.00  0.00    -0.148 NA
HETATM    5  C   UNL     1      43.609 -11.937   5.318  1.00  0.00     0.199 A 
HETATM    6  C   UNL     1      42.965 -13.177   5.241  1.00  0.00     0.035 A 
HETATM    7  C   UNL     1      41.843 -13.382   4.289  1.00  0.00     0.106 A 
HETATM    8  C   UNL     1      41.477 -12.084   3.591  1.00  0.00     0.067 A 
HETATM    9  C   UNL     1      40.160 -12.091   2.833  1.00  0.00     0.020 C 
HETATM   10  N   UNL     1      39.068 -12.097   2.203  1.00  0.00    -0.096 N 
HETATM   11  C   UNL     1      42.168 -10.927   3.752  1.00  0.00     0.139 A 
HETATM   12  O   UNL     1      43.298 -10.850   4.584  1.00  0.00    -0.277 OA
ENDROOT
BRANCH   7  13
HETATM   13  C   UNL     1      42.213 -14.534   3.362  1.00  0.00    -0.022 A 
HETATM   14  C   UNL     1      41.683 -15.838   3.417  1.00  0.00     0.041 A 
HETATM   15 CL   UNL     1      40.512 -16.342   4.580  1.00  0.00    -0.084 Cl
HETATM   16  C   UNL     1      42.105 -16.822   2.512  1.00  0.00     0.024 A 
HETATM   17  C   UNL     1      43.068 -16.536   1.548  1.00  0.00     0.002 A 
HETATM   18  C   UNL     1      43.617 -15.263   1.484  1.00  0.00     0.001 A 
HETATM   19  C   UNL     1      43.198 -14.276   2.379  1.00  0.00     0.010 A 
ENDBRANCH   7  13
BRANCH  11  20
HETATM   20  N   UNL     1      41.846  -9.719   3.177  1.00  0.00    -0.282 NA
HETATM   21  H   UNL     1      41.341  -9.059   3.762  1.00  0.00     0.126 HD
HETATM   22  H   UNL     1      42.637  -9.306   2.686  1.00  0.00     0.126 HD
ENDBRANCH  11  20
BRANCH   1  23
HETATM   23  C   UNL     1      43.287 -15.314   6.747  1.00  0.00     0.029 C 
HETATM   24  C   UNL     1      43.136 -15.331   8.270  1.00  0.00     0.016 C 
HETATM   25  C   UNL     1      44.370 -16.291   6.292  1.00  0.00     0.016 C 
ENDBRANCH   1  23
TORSDOF 3
ENDMDL
MODEL 3
REMARK VINA RESULT:      -6.9     14.019     15.309
REMARK  3 active torsions:
REMARK  status: ('A' for Active; 'I' for Inactive)
REMARK    1  A    between atoms: C_2  and  C_3 
REMARK    2  A    between atoms: C_9  and  C_10 
REMARK    3  A    between atoms: C_20  and  N_21 
ROOT
HETATM    1  C   UNL     1      47.640 -29.370   0.379  1.00  0.00     0.043 A 
HETATM    2  N   UNL     1      48.120 -28.455   1.293  1.00  0.00    -0.279 N 
HETATM    3  H   UNL     1      49.046 -28.043   1.336  1.00  0.00     0.189 HD
HETATM    4  N   UNL     1      47.236 -28.126   2.255  1.00  0.00    -0.148 NA
HETATM    5  C   UNL     1      46.158 -28.815   1.902  1.00  0.00     0.199 A 
HETATM    6  C   UNL     1      46.323 -29.584   0.745  1.00  0.00     0.035 A 
HETATM    7  C   UNL     1      45.220 -30.453   0.257  1.00  0.00     0.106 A 
HETATM    8  C   UNL     1      44.057 -30.453   1.232  1.00  0.00     0.067 A 
HETATM    9  C   UNL     1      43.008 -31.530   1.007  1.00  0.00     0.020 C 
HETATM   10  N   UNL     1      42.137 -32.423   0.820  1.00  0.00    -0.096 N 
HETATM   11  C   UNL     1      44.008 -29.671   2.341  1.00  0.00     0.139 A 
HETATM   12  O   UNL     1      45.048 -28.783   2.665  1.00  0.00    -0.277 OA
ENDROOT
BRANCH   7  13
HETATM   13  C   UNL     1      44.874 -30.027  -1.164  1.00  0.00    -0.022 A 
HETATM   14  C   UNL     1      44.560 -30.893  -2.230  1.00  0.00     0.041 A 
HETATM   15 CL   UNL     1      44.528 -32.612  -2.083  1.00  0.00    -0.084 Cl
HETATM   16  C   UNL     1      44.263 -30.386  -3.503  1.00  0.00     0.024 A 
HETATM   17  C   UNL     1      44.287 -29.015  -3.745  1.00  0.00     0.002 A 
HETATM   18  C   UNL     1      44.610 -28.142  -2.716  1.00  0.00     0.001 A 
HETATM   19  C   UNL     1      44.902 -28.640  -1.443  1.00  0.00     0.010 A 
ENDBRANCH   7  13
BRANCH  11  20
HETATM   20  N   UNL     1      42.996 -29.673   3.274  1.00  0.00    -0.282 NA
HETATM   21  H   UNL     1      43.024 -30.412   3.971  1.00  0.00     0.126 HD
HETATM   22  H   UNL     1      42.839 -28.747   3.668  1.00  0.00     0.126 HD
ENDBRANCH  11  20
BRANCH   1  23
HETATM   23  C   UNL     1      48.483 -29.941  -0.720  1.00  0.00     0.029 C 
HETATM   24  C   UNL     1      49.945 -30.070  -0.290  1.00  0.00     0.016 C 
HETATM   25  C   UNL     1      48.359 -29.118  -2.002  1.00  0.00     0.016 C 
ENDBRANCH   1  23
TORSDOF 3
ENDMDL
MODEL 4
REMARK VINA RESULT:      -6.8      3.509      5.787
REMARK  3 active torsions:
REMARK  status: ('A' for Active; 'I' for Inactive)
REMARK    1  A    between atoms: C_2  and  C_3 
REMARK    2  A    between atoms: C_9  and  C_10 
REMARK    3  A    between atoms: C_20  and  N_21 
ROOT
HETATM    1  C   UNL     1      39.988 -13.636   2.141  1.00  0.00     0.043 A 
HETATM    2  N   UNL     1      38.703 -13.143   2.249  1.00  0.00    -0.279 N 
HETATM    3  H   UNL     1      37.900 -13.363   1.670  1.00  0.00     0.189 HD
HETATM    4  N   UNL     1      38.548 -12.230   3.227  1.00  0.00    -0.148 NA
HETATM    5  C   UNL     1      39.755 -12.189   3.777  1.00  0.00     0.199 A 
HETATM    6  C   UNL     1      40.686 -13.045   3.179  1.00  0.00     0.035 A 
HETATM    7  C   UNL     1      42.095 -13.068   3.651  1.00  0.00     0.106 A 
HETATM    8  C   UNL     1      42.335 -11.997   4.699  1.00  0.00     0.067 A 
HETATM    9  C   UNL     1      43.791 -11.715   5.032  1.00  0.00     0.020 C 
HETATM   10  N   UNL     1      44.999 -11.481   5.310  1.00  0.00    -0.096 N 
HETATM   11  C   UNL     1      41.352 -11.206   5.202  1.00  0.00     0.139 A 
HETATM   12  O   UNL     1      40.017 -11.334   4.785  1.00  0.00    -0.277 OA
ENDROOT
BRANCH   7  13
HETATM   13  C   UNL     1      42.424 -14.490   4.090  1.00  0.00    -0.022 A 
HETATM   14  C   UNL     1      43.120 -15.447   3.326  1.00  0.00     0.041 A 
HETATM   15 CL   UNL     1      43.710 -15.148   1.732  1.00  0.00    -0.084 Cl
HETATM   16  C   UNL     1      43.360 -16.732   3.833  1.00  0.00     0.024 A 
HETATM   17  C   UNL     1      42.904 -17.094   5.097  1.00  0.00     0.002 A 
HETATM   18  C   UNL     1      42.202 -16.174   5.863  1.00  0.00     0.001 A 
HETATM   19  C   UNL     1      41.963 -14.890   5.366  1.00  0.00     0.010 A 
ENDBRANCH   7  13
BRANCH  11  20
HETATM   20  N   UNL     1      41.532 -10.195   6.117  1.00  0.00    -0.282 NA
HETATM   21  H   UNL     1      42.210 -10.366   6.855  1.00  0.00     0.126 HD
HETATM   22  H   UNL     1      41.641  -9.287   5.668  1.00  0.00     0.126 HD
ENDBRANCH  11  20
BRANCH   1  23
HETATM   23  C   UNL     1      40.404 -14.594   1.068  1.00  0.00     0.029 C 
HETATM   24  C   UNL     1      39.896 -14.148  -0.304  1.00  0.00     0.016 C 
HETATM   25  C   UNL     1      39.949 -16.018   1.384  1.00  0.00     0.016 C 
ENDBRANCH   1  23
TORSDOF 3
ENDMDL
MODEL 5
REMARK VINA RESULT:      -6.5      3.139      5.032
REMARK  3 active torsions:
REMARK  status: ('A' for Active; 'I' for Inactive)
REMARK    1  A    between atoms: C_2  and  C_3 
REMARK    2  A    between atoms: C_9  and  C_10 
REMARK    3  A    between atoms: C_20  and  N_21 
ROOT
HETATM    1  C   UNL     1      42.780 -14.005   6.622  1.00  0.00     0.043 A 
HETATM    2  N   UNL     1      43.512 -13.125   7.392  1.00  0.00    -0.279 N 
HETATM    3  H   UNL     1      44.128 -13.339   8.169  1.00  0.00     0.189 HD
HETATM    4  N   UNL     1      43.327 -11.830   7.068  1.00  0.00    -0.148 NA
HETATM    5  C   UNL     1      42.496 -11.907   6.037  1.00  0.00     0.199 A 
HETATM    6  C   UNL     1      42.135 -13.214   5.688  1.00  0.00     0.035 A 
HETATM    7  C   UNL     1      41.168 -13.456   4.586  1.00  0.00     0.106 A 
HETATM    8  C   UNL     1      40.600 -12.149   4.064  1.00  0.00     0.067 A 
HETATM    9  C   UNL     1      39.384 -12.273   3.160  1.00  0.00     0.020 C 
HETATM   10  N   UNL     1      38.376 -12.376   2.410  1.00  0.00    -0.096 N 
HETATM   11  C   UNL     1      41.016 -10.929   4.487  1.00  0.00     0.139 A 
HETATM   12  O   UNL     1      42.028 -10.787   5.451  1.00  0.00    -0.277 OA
ENDROOT
BRANCH   7  13
HETATM   13  C   UNL     1      41.850 -14.331   3.541  1.00  0.00    -0.022 A 
HETATM   14  C   UNL     1      42.999 -13.987   2.802  1.00  0.00     0.041 A 
HETATM   15 CL   UNL     1      43.821 -12.479   2.967  1.00  0.00    -0.084 Cl
HETATM   16  C   UNL     1      43.536 -14.873   1.858  1.00  0.00     0.024 A 
HETATM   17  C   UNL     1      42.937 -16.107   1.620  1.00  0.00     0.002 A 
HETATM   18  C   UNL     1      41.795 -16.462   2.323  1.00  0.00     0.001 A 
HETATM   19  C   UNL     1      41.257 -15.586   3.269  1.00  0.00     0.010 A 
ENDBRANCH   7  13
BRANCH  11  20
HETATM   20  N   UNL     1      40.498  -9.722   4.075  1.00  0.00    -0.282 NA
HETATM   21  H   UNL     1      40.712  -9.439   3.123  1.00  0.00     0.126 HD
HETATM   22  H   UNL     1      39.514  -9.626   4.317  1.00  0.00     0.126 HD
ENDBRANCH  11  20
BRANCH   1  23
HETATM   23  C   UNL     1      42.767 -15.483   6.866  1.00  0.00     0.029 C 
HETATM   24  C   UNL     1      43.675 -16.217   5.877  1.00  0.00     0.016 C 
HETATM   25  C   UNL     1      41.346 -16.043   6.824  1.00  0.00     0.016 C 
ENDBRANCH   1  23
TORSDOF 3
ENDMDL
MODEL 6
REMARK VINA RESULT:      -6.4      3.649      5.562
REMARK  3 active torsions:
REMARK  status: ('A' for Active; 'I' for Inactive)
REMARK    1  A    between atoms: C_2  and  C_3 
REMARK    2  A    between atoms: C_9  and  C_10 
REMARK    3  A    between atoms: C_20  and  N_21 
ROOT
HETATM    1  C   UNL     1      39.479 -12.996   1.687  1.00  0.00     0.043 A 
HETATM    2  N   UNL     1      39.390 -13.292   0.343  1.00  0.00    -0.279 N 
HETATM    3  H   UNL     1      38.884 -12.785  -0.376  1.00  0.00     0.189 HD
HETATM    4  N   UNL     1      40.032 -14.422  -0.013  1.00  0.00    -0.148 NA
HETATM    5  C   UNL     1      40.579 -14.814   1.131  1.00  0.00     0.199 A 
HETATM    6  C   UNL     1      40.304 -13.974   2.215  1.00  0.00     0.035 A 
HETATM    7  C   UNL     1      40.803 -14.314   3.573  1.00  0.00     0.106 A 
HETATM    8  C   UNL     1      41.474 -15.675   3.581  1.00  0.00     0.067 A 
HETATM    9  C   UNL     1      41.748 -16.267   4.954  1.00  0.00     0.020 C 
HETATM   10  N   UNL     1      41.976 -16.759   6.092  1.00  0.00    -0.096 N 
HETATM   11  C   UNL     1      41.677 -16.417   2.462  1.00  0.00     0.139 A 
HETATM   12  O   UNL     1      41.280 -15.964   1.193  1.00  0.00    -0.277 OA
ENDROOT
BRANCH   7  13
HETATM   13  C   UNL     1      41.671 -13.160   4.061  1.00  0.00    -0.022 A 
HETATM   14  C   UNL     1      41.403 -12.344   5.179  1.00  0.00     0.041 A 
HETATM   15 CL   UNL     1      40.011 -12.528   6.181  1.00  0.00    -0.084 Cl
HETATM   16  C   UNL     1      42.274 -11.303   5.531  1.00  0.00     0.024 A 
HETATM   17  C   UNL     1      43.414 -11.044   4.776  1.00  0.00     0.002 A 
HETATM   18  C   UNL     1      43.691 -11.823   3.661  1.00  0.00     0.001 A 
HETATM   19  C   UNL     1      42.830 -12.866   3.308  1.00  0.00     0.010 A 
ENDBRANCH   7  13
BRANCH  11  20
HETATM   20  N   UNL     1      42.239 -17.673   2.429  1.00  0.00    -0.282 NA
HETATM   21  H   UNL     1      43.130 -17.758   1.947  1.00  0.00     0.126 HD
HETATM   22  H   UNL     1      42.227 -18.121   3.343  1.00  0.00     0.126 HD
ENDBRANCH  11  20
BRANCH   1  23
HETATM   23  C   UNL     1      38.769 -11.836   2.314  1.00  0.00     0.029 C 
HETATM   24  C   UNL     1      37.515 -11.459   1.523  1.00  0.00     0.016 C 
HETATM   25  C   UNL     1      39.699 -10.633   2.474  1.00  0.00     0.016 C 
ENDBRANCH   1  23
TORSDOF 3
ENDMDL
MODEL 7
REMARK VINA RESULT:      -6.2      4.680      6.979
REMARK  3 active torsions:
REMARK  status: ('A' for Active; 'I' for Inactive)
REMARK    1  A    between atoms: C_2  and  C_3 
REMARK    2  A    between atoms: C_9  and  C_10 
REMARK    3  A    between atoms: C_20  and  N_21 
ROOT
HETATM    1  C   UNL     1      42.239 -13.974   1.902  1.00  0.00     0.043 A 
HETATM    2  N   UNL     1      43.322 -13.480   2.599  1.00  0.00    -0.279 N 
HETATM    3  H   UNL     1      44.164 -13.973   2.877  1.00  0.00     0.189 HD
HETATM    4  N   UNL     1      43.188 -12.194   2.978  1.00  0.00    -0.148 NA
HETATM    5  C   UNL     1      42.013 -11.862   2.459  1.00  0.00     0.199 A 
HETATM    6  C   UNL     1      41.382 -12.898   1.761  1.00  0.00     0.035 A 
HETATM    7  C   UNL     1      40.034 -12.692   1.171  1.00  0.00     0.106 A 
HETATM    8  C   UNL     1      39.474 -11.333   1.552  1.00  0.00     0.067 A 
HETATM    9  C   UNL     1      37.994 -11.128   1.274  1.00  0.00     0.020 C 
HETATM   10  N   UNL     1      36.767 -10.957   1.042  1.00  0.00    -0.096 N 
HETATM   11  C   UNL     1      40.176 -10.403   2.250  1.00  0.00     0.139 A 
HETATM   12  O   UNL     1      41.497 -10.635   2.667  1.00  0.00    -0.277 OA
ENDROOT
BRANCH   7  13
HETATM   13  C   UNL     1      40.127 -12.957  -0.327  1.00  0.00    -0.022 A 
HETATM   14  C   UNL     1      40.748 -12.120  -1.275  1.00  0.00     0.041 A 
HETATM   15 CL   UNL     1      41.506 -10.623  -0.872  1.00  0.00    -0.084 Cl
HETATM   16  C   UNL     1      40.766 -12.465  -2.634  1.00  0.00     0.024 A 
HETATM   17  C   UNL     1      40.159 -13.636  -3.078  1.00  0.00     0.002 A 
HETATM   18  C   UNL     1      39.527 -14.470  -2.166  1.00  0.00     0.001 A 
HETATM   19  C   UNL     1      39.510 -14.135  -0.810  1.00  0.00     0.010 A 
ENDBRANCH   7  13
BRANCH  11  20
HETATM   20  N   UNL     1      39.693  -9.180   2.655  1.00  0.00    -0.282 NA
HETATM   21  H   UNL     1      38.747  -8.948   2.368  1.00  0.00     0.126 HD
HETATM   22  H   UNL     1      39.873  -9.006   3.642  1.00  0.00     0.126 HD
ENDBRANCH  11  20
BRANCH   1  23
HETATM   23  C   UNL     1      42.138 -15.403   1.462  1.00  0.00     0.029 C 
HETATM   24  C   UNL     1      40.981 -16.119   2.161  1.00  0.00     0.016 C 
HETATM   25  C   UNL     1      43.454 -16.148   1.678  1.00  0.00     0.016 C 
ENDBRANCH   1  23
TORSDOF 3
ENDMDL
MODEL 8
REMARK VINA RESULT:      -6.1      3.595      5.728
REMARK  3 active torsions:
REMARK  status: ('A' for Active; 'I' for Inactive)
REMARK    1  A    between atoms: C_2  and  C_3 
REMARK    2  A    between atoms: C_9  and  C_10 
REMARK    3  A    between atoms: C_20  and  N_21 
ROOT
HETATM    1  C   UNL     1      42.248 -15.154   4.980  1.00  0.00     0.043 A 
HETATM    2  N   UNL     1      41.515 -16.322   4.937  1.00  0.00    -0.279 N 
HETATM    3  H   UNL     1      41.657 -17.168   5.478  1.00  0.00     0.189 HD
HETATM    4  N   UNL     1      40.526 -16.315   4.021  1.00  0.00    -0.148 NA
HETATM    5  C   UNL     1      40.612 -15.091   3.515  1.00  0.00     0.199 A 
HETATM    6  C   UNL     1      41.631 -14.310   4.073  1.00  0.00     0.035 A 
HETATM    7  C   UNL     1      41.884 -12.936   3.569  1.00  0.00     0.106 A 
HETATM    8  C   UNL     1      41.012 -12.628   2.366  1.00  0.00     0.067 A 
HETATM    9  C   UNL     1      41.392 -11.386   1.576  1.00  0.00     0.020 C 
HETATM   10  N   UNL     1      41.706 -10.355   0.922  1.00  0.00    -0.096 N 
HETATM   11  C   UNL     1      40.057 -13.472   1.897  1.00  0.00     0.139 A 
HETATM   12  O   UNL     1      39.799 -14.709   2.512  1.00  0.00    -0.277 OA
ENDROOT
BRANCH   7  13
HETATM   13  C   UNL     1      41.741 -11.968   4.738  1.00  0.00    -0.022 A 
HETATM   14  C   UNL     1      42.796 -11.289   5.378  1.00  0.00     0.041 A 
HETATM   15 CL   UNL     1      44.453 -11.462   4.929  1.00  0.00    -0.084 Cl
HETATM   16  C   UNL     1      42.544 -10.424   6.453  1.00  0.00     0.024 A 
HETATM   17  C   UNL     1      41.247 -10.229   6.920  1.00  0.00     0.002 A 
HETATM   18  C   UNL     1      40.193 -10.901   6.316  1.00  0.00     0.001 A 
HETATM   19  C   UNL     1      40.436 -11.760   5.242  1.00  0.00     0.010 A 
ENDBRANCH   7  13
BRANCH  11  20
HETATM   20  N   UNL     1      39.276 -13.254   0.785  1.00  0.00    -0.282 NA
HETATM   21  H   UNL     1      38.311 -12.985   0.955  1.00  0.00     0.126 HD
HETATM   22  H   UNL     1      39.746 -12.669   0.097  1.00  0.00     0.126 HD
ENDBRANCH  11  20
BRANCH   1  23
HETATM   23  C   UNL     1      43.447 -14.978   5.861  1.00  0.00     0.029 C 
HETATM   24  C   UNL     1      44.226 -16.286   6.007  1.00  0.00     0.016 C 
HETATM   25  C   UNL     1      43.056 -14.416   7.227  1.00  0.00     0.016 C 
ENDBRANCH   1  23
TORSDOF 3
ENDMDL
MODEL 9
REMARK VINA RESULT:      -6.1      8.165     10.778
REMARK  3 active torsions:
REMARK  status: ('A' for Active; 'I' for Inactive)
REMARK    1  A    between atoms: C_2  and  C_3 
REMARK    2  A    between atoms: C_9  and  C_10 
REMARK    3  A    between atoms: C_20  and  N_21 
ROOT
HETATM    1  C   UNL     1      43.461  -9.216   8.728  1.00  0.00     0.043 A 
HETATM    2  N   UNL     1      43.247 -10.094   7.686  1.00  0.00    -0.279 N 
HETATM    3  H   UNL     1      43.918 -10.714   7.243  1.00  0.00     0.189 HD
HETATM    4  N   UNL     1      41.993 -10.065   7.194  1.00  0.00    -0.148 NA
HETATM    5  C   UNL     1      41.395  -9.183   7.984  1.00  0.00     0.199 A 
HETATM    6  C   UNL     1      42.228  -8.637   8.967  1.00  0.00     0.035 A 
HETATM    7  C   UNL     1      41.713  -7.594   9.892  1.00  0.00     0.106 A 
HETATM    8  C   UNL     1      40.304  -7.177   9.512  1.00  0.00     0.067 A 
HETATM    9  C   UNL     1      39.787  -5.913  10.180  1.00  0.00     0.020 C 
HETATM   10  N   UNL     1      39.358  -4.865  10.734  1.00  0.00    -0.096 N 
HETATM   11  C   UNL     1      39.588  -7.770   8.523  1.00  0.00     0.139 A 
HETATM   12  O   UNL     1      40.109  -8.838   7.773  1.00  0.00    -0.277 OA
ENDROOT
BRANCH   7  13
HETATM   13  C   UNL     1      41.876  -8.103  11.319  1.00  0.00    -0.022 A 
HETATM   14  C   UNL     1      41.128  -9.138  11.915  1.00  0.00     0.041 A 
HETATM   15 CL   UNL     1      39.874  -9.998  11.099  1.00  0.00    -0.084 Cl
HETATM   16  C   UNL     1      41.362  -9.519  13.243  1.00  0.00     0.024 A 
HETATM   17  C   UNL     1      42.331  -8.874  14.008  1.00  0.00     0.002 A 
HETATM   18  C   UNL     1      43.070  -7.841  13.449  1.00  0.00     0.001 A 
HETATM   19  C   UNL     1      42.845  -7.459  12.124  1.00  0.00     0.010 A 
ENDBRANCH   7  13
BRANCH  11  20
HETATM   20  N   UNL     1      38.328  -7.396   8.116  1.00  0.00    -0.282 NA
HETATM   21  H   UNL     1      37.777  -8.104   7.639  1.00  0.00     0.126 HD
HETATM   22  H   UNL     1      37.818  -6.910   8.850  1.00  0.00     0.126 HD
ENDBRANCH  11  20
BRANCH   1  23
HETATM   23  C   UNL     1      44.803  -9.022   9.365  1.00  0.00     0.029 C 
HETATM   24  C   UNL     1      45.925  -9.083   8.327  1.00  0.00     0.016 C 
HETATM   25  C   UNL     1      45.039 -10.031  10.488  1.00  0.00     0.016 C 
ENDBRANCH   1  23
TORSDOF 3
ENDMDL
MODEL 10
REMARK VINA RESULT:      -6.1      9.479     12.115
REMARK  3 active torsions:
REMARK  status: ('A' for Active; 'I' for Inactive)
REMARK    1  A    between atoms: C_2  and  C_3 
REMARK    2  A    between atoms: C_9  and  C_10 
REMARK    3  A    between atoms: C_20  and  N_21 
ROOT
HETATM    1  C   UNL     1      43.726  -8.317   9.616  1.00  0.00     0.043 A 
HETATM    2  N   UNL     1      43.645  -8.362   8.240  1.00  0.00    -0.279 N 
HETATM    3  H   UNL     1      44.082  -9.026   7.610  1.00  0.00     0.189 HD
HETATM    4  N   UNL     1      42.922  -7.361   7.701  1.00  0.00    -0.148 NA
HETATM    5  C   UNL     1      42.499  -6.702   8.772  1.00  0.00     0.199 A 
HETATM    6  C   UNL     1      42.933  -7.246   9.987  1.00  0.00     0.035 A 
HETATM    7  C   UNL     1      42.584  -6.585  11.271  1.00  0.00     0.106 A 
HETATM    8  C   UNL     1      41.866  -5.270  11.029  1.00  0.00     0.067 A 
HETATM    9  C   UNL     1      41.734  -4.358  12.239  1.00  0.00     0.020 C 
HETATM   10  N   UNL     1      41.623  -3.602  13.242  1.00  0.00    -0.096 N 
HETATM   11  C   UNL     1      41.504  -4.829   9.797  1.00  0.00     0.139 A 
HETATM   12  O   UNL     1      41.766  -5.579   8.639  1.00  0.00    -0.277 OA
ENDROOT
BRANCH   7  13
HETATM   13  C   UNL     1      41.826  -7.589  12.131  1.00  0.00    -0.022 A 
HETATM   14  C   UNL     1      42.113  -7.907  13.473  1.00  0.00     0.041 A 
HETATM   15 CL   UNL     1      43.408  -7.195  14.365  1.00  0.00    -0.084 Cl
HETATM   16  C   UNL     1      41.348  -8.856  14.165  1.00  0.00     0.024 A 
HETATM   17  C   UNL     1      40.295  -9.516  13.535  1.00  0.00     0.002 A 
HETATM   18  C   UNL     1      40.003  -9.232  12.209  1.00  0.00     0.001 A 
HETATM   19  C   UNL     1      40.759  -8.284  11.515  1.00  0.00     0.010 A 
ENDBRANCH   7  13
BRANCH  11  20
HETATM   20  N   UNL     1      40.894  -3.625   9.528  1.00  0.00    -0.282 NA
HETATM   21  H   UNL     1      40.637  -3.058  10.331  1.00  0.00     0.126 HD
HETATM   22  H   UNL     1      41.379  -3.105   8.800  1.00  0.00     0.126 HD
ENDBRANCH  11  20
BRANCH   1  23
HETATM   23  C   UNL     1      44.550  -9.280  10.415  1.00  0.00     0.029 C 
HETATM   24  C   UNL     1      45.748  -9.788   9.609  1.00  0.00     0.016 C 
HETATM   25  C   UNL     1      43.704 -10.442  10.931  1.00  0.00     0.016 C 
ENDBRANCH   1  23
TORSDOF 3
ENDMDL
