MODEL 1
REMARK VINA RESULT:      -8.1      0.000      0.000
REMARK  13 active torsions:
REMARK  status: ('A' for Active; 'I' for Inactive)
REMARK    1  A    between atoms: C_2  and  O_3 
REMARK    2  A    between atoms: O_3  and  C_4 
REMARK    3  A    between atoms: C_5  and  O_6 
REMARK    4  A    between atoms: C_9  and  C_10 
REMARK    5  A    between atoms: N_11  and  C_12 
REMARK    6  A    between atoms: C_12  and  C_13 
REMARK    7  A    between atoms: C_13  and  N_14 
REMARK    8  A    between atoms: C_20  and  O_21 
REMARK    9  A    between atoms: C_22  and  C_23 
REMARK   10  A    between atoms: C_23  and  C_24 
REMARK   11  A    between atoms: C_28  and  O_29 
REMARK   12  A    between atoms: O_29  and  C_30 
REMARK   13  A    between atoms: C_30  and  C_31 
ROOT
HETATM    1  C   UNL     1      40.954 -10.679   4.888  1.00  0.00     0.161 A 
HETATM    2  N   UNL     1      39.923 -10.052   5.708  1.00  0.00    -0.332 N 
HETATM    3  C   UNL     1      38.704 -10.056   5.048  1.00  0.00     0.278 A 
HETATM    4  O   UNL     1      37.653  -9.589   5.447  1.00  0.00    -0.265 OA
HETATM    5  C   UNL     1      38.902 -10.687   3.729  1.00  0.00     0.146 A 
HETATM    6  C   UNL     1      40.202 -10.993   3.631  1.00  0.00     0.059 A 
ENDROOT
BRANCH   6   7
HETATM    7  C   UNL     1      40.829 -11.611   2.438  1.00  0.00     0.194 C 
HETATM    8  O   UNL     1      41.080 -10.968   1.429  1.00  0.00    -0.287 OA
BRANCH   7   9
HETATM    9  C   UNL     1      41.065 -13.081   2.478  1.00  0.00     0.021 A 
HETATM   10  C   UNL     1      42.367 -13.600   2.578  1.00  0.00    -0.045 A 
HETATM   11  C   UNL     1      43.571 -12.728   2.798  1.00  0.00     0.049 C 
HETATM   12  C   UNL     1      42.540 -14.990   2.487  1.00  0.00     0.044 A 
HETATM   13  C   UNL     1      41.453 -15.842   2.286  1.00  0.00     0.069 A 
HETATM   14  C   UNL     1      40.159 -15.327   2.273  1.00  0.00     0.038 A 
HETATM   15  C   UNL     1      39.964 -13.949   2.380  1.00  0.00     0.019 A 
BRANCH  13  16
HETATM   16  O   UNL     1      41.753 -17.169   2.162  1.00  0.00    -0.347 OA
BRANCH  16  17
HETATM   17  C   UNL     1      43.145 -17.455   2.016  1.00  0.00     0.214 C 
BRANCH  17  18
HETATM   18  C   UNL     1      43.499 -18.571   2.967  1.00  0.00    -0.034 A 
HETATM   19  C   UNL     1      43.542 -19.897   2.514  1.00  0.00     0.009 A 
HETATM   20  C   UNL     1      43.849 -20.936   3.394  1.00  0.00     0.001 A 
HETATM   21  C   UNL     1      44.111 -20.662   4.734  1.00  0.00     0.000 A 
HETATM   22  C   UNL     1      44.064 -19.348   5.198  1.00  0.00     0.001 A 
HETATM   23  C   UNL     1      43.759 -18.307   4.319  1.00  0.00     0.009 A 
ENDBRANCH  17  18
ENDBRANCH  16  17
ENDBRANCH  13  16
ENDBRANCH   7   9
ENDBRANCH   6   7
BRANCH   1  24
HETATM   24  C   UNL     1      41.529 -11.893   5.591  1.00  0.00    -0.028 A 
HETATM   25  C   UNL     1      40.781 -13.067   5.786  1.00  0.00     0.012 A 
HETATM   26  C   UNL     1      41.329 -14.158   6.463  1.00  0.00     0.040 A 
HETATM   27  C   UNL     1      42.637 -14.096   6.947  1.00  0.00     0.099 A 
HETATM   28  C   UNL     1      43.415 -12.955   6.732  1.00  0.00     0.102 A 
HETATM   29  C   UNL     1      42.848 -11.858   6.069  1.00  0.00     0.049 A 
BRANCH  27  30
HETATM   30  O   UNL     1      43.120 -15.153   7.663  1.00  0.00    -0.358 OA
HETATM   31  H   UNL     1      43.839 -15.585   7.168  1.00  0.00     0.218 HD
ENDBRANCH  27  30
BRANCH  28  32
HETATM   32  O   UNL     1      44.706 -12.746   7.130  1.00  0.00    -0.349 OA
BRANCH  32  33
HETATM   33  C   UNL     1      45.343 -11.564   6.633  1.00  0.00     0.171 C 
HETATM   34  C   UNL     1      45.852 -10.769   7.823  1.00  0.00     0.034 C 
ENDBRANCH  32  33
ENDBRANCH  28  32
ENDBRANCH   1  24
BRANCH   5  35
HETATM   35  O   UNL     1      37.913 -10.815   2.805  1.00  0.00    -0.355 OA
HETATM   36  H   UNL     1      37.321 -10.044   2.900  1.00  0.00     0.218 HD
ENDBRANCH   5  35
BRANCH   2  37
HETATM   37  C   UNL     1      40.230  -9.010   6.689  1.00  0.00     0.155 C 
BRANCH  37  38
HETATM   38  C   UNL     1      41.563  -8.286   6.454  1.00  0.00     0.254 C 
BRANCH  38  39
HETATM   39  N   UNL     1      42.481  -8.399   7.655  1.00  0.00    -0.077 N 
HETATM   40  H   UNL     1      43.377  -8.756   7.296  1.00  0.00     0.279 HD
HETATM   41  C   UNL     1      42.755  -7.051   8.262  1.00  0.00     0.269 C 
HETATM   42  C   UNL     1      42.004  -9.385   8.688  1.00  0.00     0.269 C 
ENDBRANCH  38  39
ENDBRANCH  37  38
ENDBRANCH   2  37
TORSDOF 13
ENDMDL
MODEL 2
REMARK VINA RESULT:      -8.0      2.704      7.559
REMARK  13 active torsions:
REMARK  status: ('A' for Active; 'I' for Inactive)
REMARK    1  A    between atoms: C_2  and  O_3 
REMARK    2  A    between atoms: O_3  and  C_4 
REMARK    3  A    between atoms: C_5  and  O_6 
REMARK    4  A    between atoms: C_9  and  C_10 
REMARK    5  A    between atoms: N_11  and  C_12 
REMARK    6  A    between atoms: C_12  and  C_13 
REMARK    7  A    between atoms: C_13  and  N_14 
REMARK    8  A    between atoms: C_20  and  O_21 
REMARK    9  A    between atoms: C_22  and  C_23 
REMARK   10  A    between atoms: C_23  and  C_24 
REMARK   11  A    between atoms: C_28  and  O_29 
REMARK   12  A    between atoms: O_29  and  C_30 
REMARK   13  A    between atoms: C_30  and  C_31 
ROOT
HETATM    1  C   UNL     1      40.666 -13.332   4.623  1.00  0.00     0.161 A 
HETATM    2  N   UNL     1      40.798 -14.640   3.990  1.00  0.00    -0.332 N 
HETATM    3  C   UNL     1      40.126 -14.667   2.779  1.00  0.00     0.278 A 
HETATM    4  O   UNL     1      40.021 -15.613   2.019  1.00  0.00    -0.265 OA
HETATM    5  C   UNL     1      39.497 -13.347   2.576  1.00  0.00     0.146 A 
HETATM    6  C   UNL     1      39.772 -12.611   3.661  1.00  0.00     0.059 A 
ENDROOT
BRANCH   6   7
HETATM    7  C   UNL     1      39.290 -11.226   3.877  1.00  0.00     0.194 C 
HETATM    8  O   UNL     1      38.761 -10.575   2.987  1.00  0.00    -0.287 OA
BRANCH   7   9
HETATM    9  C   UNL     1      39.556 -10.613   5.207  1.00  0.00     0.021 A 
HETATM   10  C   UNL     1      40.543  -9.623   5.362  1.00  0.00    -0.045 A 
HETATM   11  C   UNL     1      41.275  -9.023   4.195  1.00  0.00     0.049 C 
HETATM   12  C   UNL     1      40.836  -9.170   6.658  1.00  0.00     0.044 A 
HETATM   13  C   UNL     1      40.182  -9.696   7.773  1.00  0.00     0.069 A 
HETATM   14  C   UNL     1      39.148 -10.614   7.603  1.00  0.00     0.038 A 
HETATM   15  C   UNL     1      38.828 -11.063   6.321  1.00  0.00     0.019 A 
BRANCH  13  16
HETATM   16  O   UNL     1      40.590  -9.212   8.983  1.00  0.00    -0.347 OA
BRANCH  16  17
HETATM   17  C   UNL     1      39.807  -9.648  10.096  1.00  0.00     0.214 C 
BRANCH  17  18
HETATM   18  C   UNL     1      40.653  -9.538  11.340  1.00  0.00    -0.034 A 
HETATM   19  C   UNL     1      40.046  -9.424  12.598  1.00  0.00     0.009 A 
HETATM   20  C   UNL     1      40.823  -9.303  13.750  1.00  0.00     0.001 A 
HETATM   21  C   UNL     1      42.213  -9.289  13.657  1.00  0.00     0.000 A 
HETATM   22  C   UNL     1      42.828  -9.393  12.410  1.00  0.00     0.001 A 
HETATM   23  C   UNL     1      42.052  -9.518  11.256  1.00  0.00     0.009 A 
ENDBRANCH  17  18
ENDBRANCH  16  17
ENDBRANCH  13  16
ENDBRANCH   7   9
ENDBRANCH   6   7
BRANCH   1  24
HETATM   24  C   UNL     1      42.028 -12.691   4.810  1.00  0.00    -0.028 A 
HETATM   25  C   UNL     1      42.773 -12.191   3.727  1.00  0.00     0.012 A 
HETATM   26  C   UNL     1      44.037 -11.633   3.929  1.00  0.00     0.040 A 
HETATM   27  C   UNL     1      44.571 -11.555   5.216  1.00  0.00     0.099 A 
HETATM   28  C   UNL     1      43.833 -12.009   6.313  1.00  0.00     0.102 A 
HETATM   29  C   UNL     1      42.575 -12.586   6.098  1.00  0.00     0.049 A 
BRANCH  27  30
HETATM   30  O   UNL     1      45.835 -11.065   5.371  1.00  0.00    -0.358 OA
HETATM   31  H   UNL     1      46.476 -11.797   5.360  1.00  0.00     0.218 HD
ENDBRANCH  27  30
BRANCH  28  32
HETATM   32  O   UNL     1      44.209 -11.992   7.628  1.00  0.00    -0.349 OA
BRANCH  32  33
HETATM   33  C   UNL     1      43.935 -10.789   8.354  1.00  0.00     0.171 C 
HETATM   34  C   UNL     1      45.238 -10.299   8.962  1.00  0.00     0.034 C 
ENDBRANCH  32  33
ENDBRANCH  28  32
ENDBRANCH   1  24
BRANCH   5  35
HETATM   35  O   UNL     1      38.721 -13.044   1.502  1.00  0.00    -0.355 OA
HETATM   36  H   UNL     1      39.193 -13.349   0.704  1.00  0.00     0.218 HD
ENDBRANCH   5  35
BRANCH   2  37
HETATM   37  C   UNL     1      40.978 -15.868   4.764  1.00  0.00     0.155 C 
BRANCH  37  38
HETATM   38  C   UNL     1      42.395 -16.454   4.712  1.00  0.00     0.254 C 
BRANCH  38  39
HETATM   39  N   UNL     1      42.973 -16.649   6.099  1.00  0.00    -0.077 N 
HETATM   40  H   UNL     1      43.849 -16.110   6.121  1.00  0.00     0.279 HD
HETATM   41  C   UNL     1      42.071 -16.067   7.153  1.00  0.00     0.269 C 
HETATM   42  C   UNL     1      43.334 -18.077   6.408  1.00  0.00     0.269 C 
ENDBRANCH  38  39
ENDBRANCH  37  38
ENDBRANCH   2  37
TORSDOF 13
ENDMDL
MODEL 3
REMARK VINA RESULT:      -8.0      3.256      8.413
REMARK  13 active torsions:
REMARK  status: ('A' for Active; 'I' for Inactive)
REMARK    1  A    between atoms: C_2  and  O_3 
REMARK    2  A    between atoms: O_3  and  C_4 
REMARK    3  A    between atoms: C_5  and  O_6 
REMARK    4  A    between atoms: C_9  and  C_10 
REMARK    5  A    between atoms: N_11  and  C_12 
REMARK    6  A    between atoms: C_12  and  C_13 
REMARK    7  A    between atoms: C_13  and  N_14 
REMARK    8  A    between atoms: C_20  and  O_21 
REMARK    9  A    between atoms: C_22  and  C_23 
REMARK   10  A    between atoms: C_23  and  C_24 
REMARK   11  A    between atoms: C_28  and  O_29 
REMARK   12  A    between atoms: O_29  and  C_30 
REMARK   13  A    between atoms: C_30  and  C_31 
ROOT
HETATM    1  C   UNL     1      41.130 -12.058   6.060  1.00  0.00     0.161 A 
HETATM    2  N   UNL     1      40.790 -13.176   5.186  1.00  0.00    -0.332 N 
HETATM    3  C   UNL     1      39.930 -12.767   4.181  1.00  0.00     0.278 A 
HETATM    4  O   UNL     1      39.441 -13.459   3.306  1.00  0.00    -0.265 OA
HETATM    5  C   UNL     1      39.653 -11.330   4.374  1.00  0.00     0.146 A 
HETATM    6  C   UNL     1      40.305 -10.951   5.480  1.00  0.00     0.059 A 
ENDROOT
BRANCH   6   7
HETATM    7  C   UNL     1      40.259  -9.583   6.051  1.00  0.00     0.194 C 
HETATM    8  O   UNL     1      40.325  -8.583   5.350  1.00  0.00    -0.287 OA
BRANCH   7   9
HETATM    9  C   UNL     1      40.220  -9.466   7.535  1.00  0.00     0.021 A 
HETATM   10  C   UNL     1      41.284  -8.879   8.241  1.00  0.00    -0.045 A 
HETATM   11  C   UNL     1      42.439  -8.209   7.552  1.00  0.00     0.049 C 
HETATM   12  C   UNL     1      41.249  -8.907   9.644  1.00  0.00     0.044 A 
HETATM   13  C   UNL     1      40.197  -9.516  10.330  1.00  0.00     0.069 A 
HETATM   14  C   UNL     1      39.107 -10.020   9.624  1.00  0.00     0.038 A 
HETATM   15  C   UNL     1      39.114  -9.985   8.228  1.00  0.00     0.019 A 
BRANCH  13  16
HETATM   16  O   UNL     1      40.302  -9.525  11.691  1.00  0.00    -0.347 OA
BRANCH  16  17
HETATM   17  C   UNL     1      41.595  -9.873  12.189  1.00  0.00     0.214 C 
BRANCH  17  18
HETATM   18  C   UNL     1      41.960  -8.894  13.277  1.00  0.00    -0.034 A 
HETATM   19  C   UNL     1      41.209  -8.843  14.460  1.00  0.00     0.009 A 
HETATM   20  C   UNL     1      41.531  -7.927  15.463  1.00  0.00     0.001 A 
HETATM   21  C   UNL     1      42.600  -7.050  15.291  1.00  0.00     0.000 A 
HETATM   22  C   UNL     1      43.348  -7.086  14.116  1.00  0.00     0.001 A 
HETATM   23  C   UNL     1      43.030  -8.004  13.113  1.00  0.00     0.009 A 
ENDBRANCH  17  18
ENDBRANCH  16  17
ENDBRANCH  13  16
ENDBRANCH   7   9
ENDBRANCH   6   7
BRANCH   1  24
HETATM   24  C   UNL     1      42.624 -11.801   6.040  1.00  0.00    -0.028 A 
HETATM   25  C   UNL     1      43.352 -11.720   4.840  1.00  0.00     0.012 A 
HETATM   26  C   UNL     1      44.732 -11.511   4.855  1.00  0.00     0.040 A 
HETATM   27  C   UNL     1      45.405 -11.368   6.070  1.00  0.00     0.099 A 
HETATM   28  C   UNL     1      44.698 -11.405   7.275  1.00  0.00     0.102 A 
HETATM   29  C   UNL     1      43.317 -11.636   7.250  1.00  0.00     0.049 A 
BRANCH  27  30
HETATM   30  O   UNL     1      46.763 -11.232   6.054  1.00  0.00    -0.358 OA
HETATM   31  H   UNL     1      47.000 -10.336   5.757  1.00  0.00     0.218 HD
ENDBRANCH  27  30
BRANCH  28  32
HETATM   32  O   UNL     1      45.207 -11.271   8.538  1.00  0.00    -0.349 OA
BRANCH  32  33
HETATM   33  C   UNL     1      45.412  -9.933   9.004  1.00  0.00     0.171 C 
HETATM   34  C   UNL     1      44.924  -9.856  10.440  1.00  0.00     0.034 C 
ENDBRANCH  32  33
ENDBRANCH  28  32
ENDBRANCH   1  24
BRANCH   5  35
HETATM   35  O   UNL     1      38.808 -10.618   3.583  1.00  0.00    -0.355 OA
HETATM   36  H   UNL     1      39.353 -10.032   3.024  1.00  0.00     0.218 HD
ENDBRANCH   5  35
BRANCH   2  37
HETATM   37  C   UNL     1      40.769 -14.561   5.661  1.00  0.00     0.155 C 
BRANCH  37  38
HETATM   38  C   UNL     1      41.896 -15.443   5.107  1.00  0.00     0.254 C 
BRANCH  38  39
HETATM   39  N   UNL     1      43.111 -15.434   6.013  1.00  0.00    -0.077 N 
HETATM   40  H   UNL     1      43.627 -14.572   5.790  1.00  0.00     0.279 HD
HETATM   41  C   UNL     1      42.712 -15.347   7.461  1.00  0.00     0.269 C 
HETATM   42  C   UNL     1      44.054 -16.581   5.768  1.00  0.00     0.269 C 
ENDBRANCH  38  39
ENDBRANCH  37  38
ENDBRANCH   2  37
TORSDOF 13
ENDMDL
MODEL 4
REMARK VINA RESULT:      -8.0      3.142      5.675
REMARK  13 active torsions:
REMARK  status: ('A' for Active; 'I' for Inactive)
REMARK    1  A    between atoms: C_2  and  O_3 
REMARK    2  A    between atoms: O_3  and  C_4 
REMARK    3  A    between atoms: C_5  and  O_6 
REMARK    4  A    between atoms: C_9  and  C_10 
REMARK    5  A    between atoms: N_11  and  C_12 
REMARK    6  A    between atoms: C_12  and  C_13 
REMARK    7  A    between atoms: C_13  and  N_14 
REMARK    8  A    between atoms: C_20  and  O_21 
REMARK    9  A    between atoms: C_22  and  C_23 
REMARK   10  A    between atoms: C_23  and  C_24 
REMARK   11  A    between atoms: C_28  and  O_29 
REMARK   12  A    between atoms: O_29  and  C_30 
REMARK   13  A    between atoms: C_30  and  C_31 
ROOT
HETATM    1  C   UNL     1      40.696  -8.312  10.151  1.00  0.00     0.161 A 
HETATM    2  N   UNL     1      40.607  -8.859  11.501  1.00  0.00    -0.332 N 
HETATM    3  C   UNL     1      39.774  -9.966  11.527  1.00  0.00     0.278 A 
HETATM    4  O   UNL     1      39.471 -10.634  12.498  1.00  0.00    -0.265 OA
HETATM    5  C   UNL     1      39.259 -10.180  10.160  1.00  0.00     0.146 A 
HETATM    6  C   UNL     1      39.754  -9.198   9.396  1.00  0.00     0.059 A 
ENDROOT
BRANCH   6   7
HETATM    7  C   UNL     1      39.448  -9.023   7.956  1.00  0.00     0.194 C 
HETATM    8  O   UNL     1      38.616  -8.219   7.561  1.00  0.00    -0.287 OA
BRANCH   7   9
HETATM    9  C   UNL     1      40.133  -9.935   6.999  1.00  0.00     0.021 A 
HETATM   10  C   UNL     1      41.128  -9.453   6.130  1.00  0.00    -0.045 A 
HETATM   11  C   UNL     1      41.661  -8.051   6.209  1.00  0.00     0.049 C 
HETATM   12  C   UNL     1      41.652 -10.329   5.165  1.00  0.00     0.044 A 
HETATM   13  C   UNL     1      41.191 -11.641   5.053  1.00  0.00     0.069 A 
HETATM   14  C   UNL     1      40.267 -12.134   5.972  1.00  0.00     0.038 A 
HETATM   15  C   UNL     1      39.747 -11.285   6.950  1.00  0.00     0.019 A 
BRANCH  13  16
HETATM   16  O   UNL     1      41.740 -12.379   4.044  1.00  0.00    -0.347 OA
BRANCH  16  17
HETATM   17  C   UNL     1      42.938 -13.074   4.395  1.00  0.00     0.214 C 
BRANCH  17  18
HETATM   18  C   UNL     1      42.988 -14.357   3.604  1.00  0.00    -0.034 A 
HETATM   19  C   UNL     1      42.950 -14.323   2.203  1.00  0.00     0.009 A 
HETATM   20  C   UNL     1      42.977 -15.508   1.466  1.00  0.00     0.001 A 
HETATM   21  C   UNL     1      43.035 -16.737   2.120  1.00  0.00     0.000 A 
HETATM   22  C   UNL     1      43.064 -16.783   3.513  1.00  0.00     0.001 A 
HETATM   23  C   UNL     1      43.041 -15.599   4.252  1.00  0.00     0.009 A 
ENDBRANCH  17  18
ENDBRANCH  16  17
ENDBRANCH  13  16
ENDBRANCH   7   9
ENDBRANCH   6   7
BRANCH   1  24
HETATM   24  C   UNL     1      42.128  -8.353   9.653  1.00  0.00    -0.028 A 
HETATM   25  C   UNL     1      42.858  -7.183   9.383  1.00  0.00     0.012 A 
HETATM   26  C   UNL     1      44.166  -7.254   8.898  1.00  0.00     0.040 A 
HETATM   27  C   UNL     1      44.766  -8.496   8.685  1.00  0.00     0.099 A 
HETATM   28  C   UNL     1      44.075  -9.673   8.984  1.00  0.00     0.102 A 
HETATM   29  C   UNL     1      42.757  -9.591   9.451  1.00  0.00     0.049 A 
BRANCH  27  30
HETATM   30  O   UNL     1      46.020  -8.533   8.148  1.00  0.00    -0.358 OA
HETATM   31  H   UNL     1      46.021  -9.090   7.350  1.00  0.00     0.218 HD
ENDBRANCH  27  30
BRANCH  28  32
HETATM   32  O   UNL     1      44.526 -10.957   8.843  1.00  0.00    -0.349 OA
BRANCH  32  33
HETATM   33  C   UNL     1      44.139 -11.641   7.647  1.00  0.00     0.171 C 
HETATM   34  C   UNL     1      45.309 -11.596   6.680  1.00  0.00     0.034 C 
ENDBRANCH  32  33
ENDBRANCH  28  32
ENDBRANCH   1  24
BRANCH   5  35
HETATM   35  O   UNL     1      38.376 -11.162   9.838  1.00  0.00    -0.355 OA
HETATM   36  H   UNL     1      37.529 -10.733   9.610  1.00  0.00     0.218 HD
ENDBRANCH   5  35
BRANCH   2  37
HETATM   37  C   UNL     1      40.768  -8.027  12.694  1.00  0.00     0.155 C 
BRANCH  37  38
HETATM   38  C   UNL     1      42.041  -8.310  13.503  1.00  0.00     0.254 C 
BRANCH  38  39
HETATM   39  N   UNL     1      42.643  -7.037  14.065  1.00  0.00    -0.077 N 
HETATM   40  H   UNL     1      43.664  -7.154  14.005  1.00  0.00     0.279 HD
HETATM   41  C   UNL     1      42.285  -5.845  13.221  1.00  0.00     0.269 C 
HETATM   42  C   UNL     1      42.317  -6.806  15.516  1.00  0.00     0.269 C 
ENDBRANCH  38  39
ENDBRANCH  37  38
ENDBRANCH   2  37
TORSDOF 13
ENDMDL
MODEL 5
REMARK VINA RESULT:      -8.0      1.757      2.703
REMARK  13 active torsions:
REMARK  status: ('A' for Active; 'I' for Inactive)
REMARK    1  A    between atoms: C_2  and  O_3 
REMARK    2  A    between atoms: O_3  and  C_4 
REMARK    3  A    between atoms: C_5  and  O_6 
REMARK    4  A    between atoms: C_9  and  C_10 
REMARK    5  A    between atoms: N_11  and  C_12 
REMARK    6  A    between atoms: C_12  and  C_13 
REMARK    7  A    between atoms: C_13  and  N_14 
REMARK    8  A    between atoms: C_20  and  O_21 
REMARK    9  A    between atoms: C_22  and  C_23 
REMARK   10  A    between atoms: C_23  and  C_24 
REMARK   11  A    between atoms: C_28  and  O_29 
REMARK   12  A    between atoms: O_29  and  C_30 
REMARK   13  A    between atoms: C_30  and  C_31 
ROOT
HETATM    1  C   UNL     1      42.426 -10.845   5.154  1.00  0.00     0.161 A 
HETATM    2  N   UNL     1      42.292  -9.816   6.179  1.00  0.00    -0.332 N 
HETATM    3  C   UNL     1      41.715  -8.672   5.652  1.00  0.00     0.278 A 
HETATM    4  O   UNL     1      41.489  -7.627   6.236  1.00  0.00    -0.265 OA
HETATM    5  C   UNL     1      41.459  -8.910   4.217  1.00  0.00     0.146 A 
HETATM    6  C   UNL     1      41.915 -10.137   3.936  1.00  0.00     0.059 A 
ENDROOT
BRANCH   6   7
HETATM    7  C   UNL     1      41.885 -10.752   2.588  1.00  0.00     0.194 C 
HETATM    8  O   UNL     1      41.736 -10.087   1.573  1.00  0.00    -0.287 OA
BRANCH   7   9
HETATM    9  C   UNL     1      41.955 -12.238   2.516  1.00  0.00     0.021 A 
HETATM   10  C   UNL     1      40.786 -13.010   2.398  1.00  0.00    -0.045 A 
HETATM   11  C   UNL     1      39.430 -12.398   2.190  1.00  0.00     0.049 C 
HETATM   12  C   UNL     1      40.901 -14.408   2.460  1.00  0.00     0.044 A 
HETATM   13  C   UNL     1      42.139 -15.024   2.651  1.00  0.00     0.069 A 
HETATM   14  C   UNL     1      43.301 -14.255   2.682  1.00  0.00     0.038 A 
HETATM   15  C   UNL     1      43.209 -12.865   2.604  1.00  0.00     0.019 A 
BRANCH  13  16
HETATM   16  O   UNL     1      42.116 -16.386   2.746  1.00  0.00    -0.347 OA
BRANCH  16  17
HETATM   17  C   UNL     1      43.219 -17.047   2.124  1.00  0.00     0.214 C 
BRANCH  17  18
HETATM   18  C   UNL     1      43.528 -18.294   2.914  1.00  0.00    -0.034 A 
HETATM   19  C   UNL     1      43.410 -19.556   2.316  1.00  0.00     0.009 A 
HETATM   20  C   UNL     1      43.676 -20.714   3.048  1.00  0.00     0.001 A 
HETATM   21  C   UNL     1      44.056 -20.623   4.385  1.00  0.00     0.000 A 
HETATM   22  C   UNL     1      44.169 -19.375   4.993  1.00  0.00     0.001 A 
HETATM   23  C   UNL     1      43.907 -18.215   4.262  1.00  0.00     0.009 A 
ENDBRANCH  17  18
ENDBRANCH  16  17
ENDBRANCH  13  16
ENDBRANCH   7   9
ENDBRANCH   6   7
BRANCH   1  24
HETATM   24  C   UNL     1      41.635 -12.082   5.534  1.00  0.00    -0.028 A 
HETATM   25  C   UNL     1      40.233 -12.073   5.626  1.00  0.00     0.012 A 
HETATM   26  C   UNL     1      39.535 -13.221   6.007  1.00  0.00     0.040 A 
HETATM   27  C   UNL     1      40.228 -14.399   6.292  1.00  0.00     0.099 A 
HETATM   28  C   UNL     1      41.620 -14.445   6.169  1.00  0.00     0.102 A 
HETATM   29  C   UNL     1      42.312 -13.281   5.806  1.00  0.00     0.049 A 
BRANCH  27  30
HETATM   30  O   UNL     1      39.524 -15.484   6.725  1.00  0.00    -0.358 OA
HETATM   31  H   UNL     1      39.490 -16.157   6.023  1.00  0.00     0.218 HD
ENDBRANCH  27  30
BRANCH  28  32
HETATM   32  O   UNL     1      42.437 -15.517   6.398  1.00  0.00    -0.349 OA
BRANCH  32  33
HETATM   33  C   UNL     1      42.891 -15.696   7.745  1.00  0.00     0.171 C 
HETATM   34  C   UNL     1      44.016 -16.716   7.729  1.00  0.00     0.034 C 
ENDBRANCH  32  33
ENDBRANCH  28  32
ENDBRANCH   1  24
BRANCH   5  35
HETATM   35  O   UNL     1      40.935  -7.972   3.385  1.00  0.00    -0.355 OA
HETATM   36  H   UNL     1      41.646  -7.688   2.778  1.00  0.00     0.218 HD
ENDBRANCH   5  35
BRANCH   2  37
HETATM   37  C   UNL     1      43.204  -9.726   7.320  1.00  0.00     0.155 C 
BRANCH  37  38
HETATM   38  C   UNL     1      42.514  -9.731   8.691  1.00  0.00     0.254 C 
BRANCH  38  39
HETATM   39  N   UNL     1      43.357 -10.427   9.740  1.00  0.00    -0.077 N 
HETATM   40  H   UNL     1      43.171 -11.434   9.633  1.00  0.00     0.279 HD
HETATM   41  C   UNL     1      44.825 -10.221   9.486  1.00  0.00     0.269 C 
HETATM   42  C   UNL     1      42.984 -10.065  11.152  1.00  0.00     0.269 C 
ENDBRANCH  38  39
ENDBRANCH  37  38
ENDBRANCH   2  37
TORSDOF 13
ENDMDL
MODEL 6
REMARK VINA RESULT:      -7.8      2.928      8.285
REMARK  13 active torsions:
REMARK  status: ('A' for Active; 'I' for Inactive)
REMARK    1  A    between atoms: C_2  and  O_3 
REMARK    2  A    between atoms: O_3  and  C_4 
REMARK    3  A    between atoms: C_5  and  O_6 
REMARK    4  A    between atoms: C_9  and  C_10 
REMARK    5  A    between atoms: N_11  and  C_12 
REMARK    6  A    between atoms: C_12  and  C_13 
REMARK    7  A    between atoms: C_13  and  N_14 
REMARK    8  A    between atoms: C_20  and  O_21 
REMARK    9  A    between atoms: C_22  and  C_23 
REMARK   10  A    between atoms: C_23  and  C_24 
REMARK   11  A    between atoms: C_28  and  O_29 
REMARK   12  A    between atoms: O_29  and  C_30 
REMARK   13  A    between atoms: C_30  and  C_31 
ROOT
HETATM    1  C   UNL     1      43.622 -15.681   5.192  1.00  0.00     0.161 A 
HETATM    2  N   UNL     1      43.776 -17.080   5.576  1.00  0.00    -0.332 N 
HETATM    3  C   UNL     1      43.596 -17.236   6.941  1.00  0.00     0.278 A 
HETATM    4  O   UNL     1      43.682 -18.268   7.580  1.00  0.00    -0.265 OA
HETATM    5  C   UNL     1      43.327 -15.904   7.520  1.00  0.00     0.146 A 
HETATM    6  C   UNL     1      43.394 -15.020   6.517  1.00  0.00     0.059 A 
ENDROOT
BRANCH   6   7
HETATM    7  C   UNL     1      43.222 -13.556   6.679  1.00  0.00     0.194 C 
HETATM    8  O   UNL     1      43.927 -12.898   7.431  1.00  0.00    -0.287 OA
BRANCH   7   9
HETATM    9  C   UNL     1      42.088 -12.920   5.953  1.00  0.00     0.021 A 
HETATM   10  C   UNL     1      42.317 -11.913   4.999  1.00  0.00    -0.045 A 
HETATM   11  C   UNL     1      43.696 -11.524   4.549  1.00  0.00     0.049 C 
HETATM   12  C   UNL     1      41.207 -11.263   4.436  1.00  0.00     0.044 A 
HETATM   13  C   UNL     1      39.905 -11.590   4.821  1.00  0.00     0.069 A 
HETATM   14  C   UNL     1      39.686 -12.646   5.703  1.00  0.00     0.038 A 
HETATM   15  C   UNL     1      40.776 -13.317   6.260  1.00  0.00     0.019 A 
BRANCH  13  16
HETATM   16  O   UNL     1      38.912 -10.854   4.242  1.00  0.00    -0.347 OA
BRANCH  16  17
HETATM   17  C   UNL     1      39.368  -9.802   3.389  1.00  0.00     0.214 C 
BRANCH  17  18
HETATM   18  C   UNL     1      38.728  -9.982   2.035  1.00  0.00    -0.034 A 
HETATM   19  C   UNL     1      37.815 -11.024   1.820  1.00  0.00     0.009 A 
HETATM   20  C   UNL     1      37.233 -11.207   0.564  1.00  0.00     0.001 A 
HETATM   21  C   UNL     1      37.563 -10.356  -0.489  1.00  0.00     0.000 A 
HETATM   22  C   UNL     1      38.476  -9.322  -0.289  1.00  0.00     0.001 A 
HETATM   23  C   UNL     1      39.056  -9.135   0.967  1.00  0.00     0.009 A 
ENDBRANCH  17  18
ENDBRANCH  16  17
ENDBRANCH  13  16
ENDBRANCH   7   9
ENDBRANCH   6   7
BRANCH   1  24
HETATM   24  C   UNL     1      42.477 -15.521   4.210  1.00  0.00    -0.028 A 
HETATM   25  C   UNL     1      41.232 -16.143   4.406  1.00  0.00     0.012 A 
HETATM   26  C   UNL     1      40.207 -15.999   3.468  1.00  0.00     0.040 A 
HETATM   27  C   UNL     1      40.408 -15.224   2.326  1.00  0.00     0.099 A 
HETATM   28  C   UNL     1      41.624 -14.564   2.127  1.00  0.00     0.102 A 
HETATM   29  C   UNL     1      42.652 -14.730   3.064  1.00  0.00     0.049 A 
BRANCH  27  30
HETATM   30  O   UNL     1      39.411 -15.158   1.396  1.00  0.00    -0.358 OA
HETATM   31  H   UNL     1      38.846 -15.948   1.464  1.00  0.00     0.218 HD
ENDBRANCH  27  30
BRANCH  28  32
HETATM   32  O   UNL     1      41.969 -13.764   1.072  1.00  0.00    -0.349 OA
BRANCH  32  33
HETATM   33  C   UNL     1      41.317 -12.492   0.996  1.00  0.00     0.171 C 
HETATM   34  C   UNL     1      40.753 -12.336  -0.406  1.00  0.00     0.034 C 
ENDBRANCH  32  33
ENDBRANCH  28  32
ENDBRANCH   1  24
BRANCH   5  35
HETATM   35  O   UNL     1      43.145 -15.690   8.850  1.00  0.00    -0.355 OA
HETATM   36  H   UNL     1      42.724 -16.489   9.221  1.00  0.00     0.218 HD
ENDBRANCH   5  35
BRANCH   2  37
HETATM   37  C   UNL     1      44.633 -18.005   4.833  1.00  0.00     0.155 C 
BRANCH  37  38
HETATM   38  C   UNL     1      43.906 -19.230   4.262  1.00  0.00     0.254 C 
BRANCH  38  39
HETATM   39  N   UNL     1      43.917 -19.233   2.747  1.00  0.00    -0.077 N 
HETATM   40  H   UNL     1      44.835 -18.860   2.468  1.00  0.00     0.279 HD
HETATM   41  C   UNL     1      43.826 -20.632   2.203  1.00  0.00     0.269 C 
HETATM   42  C   UNL     1      42.878 -18.333   2.134  1.00  0.00     0.269 C 
ENDBRANCH  38  39
ENDBRANCH  37  38
ENDBRANCH   2  37
TORSDOF 13
ENDMDL
MODEL 7
REMARK VINA RESULT:      -7.8      1.986      3.569
REMARK  13 active torsions:
REMARK  status: ('A' for Active; 'I' for Inactive)
REMARK    1  A    between atoms: C_2  and  O_3 
REMARK    2  A    between atoms: O_3  and  C_4 
REMARK    3  A    between atoms: C_5  and  O_6 
REMARK    4  A    between atoms: C_9  and  C_10 
REMARK    5  A    between atoms: N_11  and  C_12 
REMARK    6  A    between atoms: C_12  and  C_13 
REMARK    7  A    between atoms: C_13  and  N_14 
REMARK    8  A    between atoms: C_20  and  O_21 
REMARK    9  A    between atoms: C_22  and  C_23 
REMARK   10  A    between atoms: C_23  and  C_24 
REMARK   11  A    between atoms: C_28  and  O_29 
REMARK   12  A    between atoms: O_29  and  C_30 
REMARK   13  A    between atoms: C_30  and  C_31 
ROOT
HETATM    1  C   UNL     1      41.137 -10.809   5.014  1.00  0.00     0.161 A 
HETATM    2  N   UNL     1      40.584  -9.460   5.069  1.00  0.00    -0.332 N 
HETATM    3  C   UNL     1      39.368  -9.456   5.733  1.00  0.00     0.278 A 
HETATM    4  O   UNL     1      38.640  -8.500   5.927  1.00  0.00    -0.265 OA
HETATM    5  C   UNL     1      39.063 -10.844   6.134  1.00  0.00     0.146 A 
HETATM    6  C   UNL     1      40.058 -11.612   5.672  1.00  0.00     0.059 A 
ENDROOT
BRANCH   6   7
HETATM    7  C   UNL     1      40.119 -13.086   5.827  1.00  0.00     0.194 C 
HETATM    8  O   UNL     1      39.451 -13.680   6.663  1.00  0.00    -0.287 OA
BRANCH   7   9
HETATM    9  C   UNL     1      41.099 -13.819   4.980  1.00  0.00     0.021 A 
HETATM   10  C   UNL     1      40.832 -14.073   3.624  1.00  0.00    -0.045 A 
HETATM   11  C   UNL     1      39.636 -13.504   2.915  1.00  0.00     0.049 C 
HETATM   12  C   UNL     1      41.734 -14.875   2.905  1.00  0.00     0.044 A 
HETATM   13  C   UNL     1      42.860 -15.425   3.519  1.00  0.00     0.069 A 
HETATM   14  C   UNL     1      43.161 -15.099   4.840  1.00  0.00     0.038 A 
HETATM   15  C   UNL     1      42.287 -14.289   5.566  1.00  0.00     0.019 A 
BRANCH  13  16
HETATM   16  O   UNL     1      43.633 -16.228   2.731  1.00  0.00    -0.347 OA
BRANCH  16  17
HETATM   17  C   UNL     1      42.951 -17.354   2.174  1.00  0.00     0.214 C 
BRANCH  17  18
HETATM   18  C   UNL     1      43.410 -18.591   2.904  1.00  0.00    -0.034 A 
HETATM   19  C   UNL     1      43.880 -18.499   4.221  1.00  0.00     0.009 A 
HETATM   20  C   UNL     1      44.324 -19.638   4.895  1.00  0.00     0.001 A 
HETATM   21  C   UNL     1      44.309 -20.877   4.258  1.00  0.00     0.000 A 
HETATM   22  C   UNL     1      43.852 -20.980   2.946  1.00  0.00     0.001 A 
HETATM   23  C   UNL     1      43.404 -19.842   2.271  1.00  0.00     0.009 A 
ENDBRANCH  17  18
ENDBRANCH  16  17
ENDBRANCH  13  16
ENDBRANCH   7   9
ENDBRANCH   6   7
BRANCH   1  24
HETATM   24  C   UNL     1      42.477 -10.864   5.721  1.00  0.00    -0.028 A 
HETATM   25  C   UNL     1      43.666 -11.186   5.044  1.00  0.00     0.012 A 
HETATM   26  C   UNL     1      44.881 -11.257   5.730  1.00  0.00     0.040 A 
HETATM   27  C   UNL     1      44.927 -10.996   7.100  1.00  0.00     0.099 A 
HETATM   28  C   UNL     1      43.765 -10.635   7.788  1.00  0.00     0.102 A 
HETATM   29  C   UNL     1      42.548 -10.587   7.095  1.00  0.00     0.049 A 
BRANCH  27  30
HETATM   30  O   UNL     1      46.116 -11.139   7.753  1.00  0.00    -0.358 OA
HETATM   31  H   UNL     1      46.044 -11.843   8.420  1.00  0.00     0.218 HD
ENDBRANCH  27  30
BRANCH  28  32
HETATM   32  O   UNL     1      43.648 -10.340   9.119  1.00  0.00    -0.349 OA
BRANCH  32  33
HETATM   33  C   UNL     1      43.952  -8.995   9.503  1.00  0.00     0.171 C 
HETATM   34  C   UNL     1      44.087  -8.957  11.015  1.00  0.00     0.034 C 
ENDBRANCH  32  33
ENDBRANCH  28  32
ENDBRANCH   1  24
BRANCH   5  35
HETATM   35  O   UNL     1      37.918 -11.205   6.771  1.00  0.00    -0.355 OA
HETATM   36  H   UNL     1      37.446 -10.385   7.013  1.00  0.00     0.218 HD
ENDBRANCH   5  35
BRANCH   2  37
HETATM   37  C   UNL     1      40.870  -8.456   4.043  1.00  0.00     0.155 C 
BRANCH  37  38
HETATM   38  C   UNL     1      40.257  -8.755   2.668  1.00  0.00     0.254 C 
BRANCH  38  39
HETATM   39  N   UNL     1      41.323  -8.996   1.620  1.00  0.00    -0.077 N 
HETATM   40  H   UNL     1      42.174  -8.531   1.966  1.00  0.00     0.279 HD
HETATM   41  C   UNL     1      41.643 -10.460   1.491  1.00  0.00     0.269 C 
HETATM   42  C   UNL     1      41.007  -8.380   0.284  1.00  0.00     0.269 C 
ENDBRANCH  38  39
ENDBRANCH  37  38
ENDBRANCH   2  37
TORSDOF 13
ENDMDL
MODEL 8
REMARK VINA RESULT:      -7.7      2.527      5.706
REMARK  13 active torsions:
REMARK  status: ('A' for Active; 'I' for Inactive)
REMARK    1  A    between atoms: C_2  and  O_3 
REMARK    2  A    between atoms: O_3  and  C_4 
REMARK    3  A    between atoms: C_5  and  O_6 
REMARK    4  A    between atoms: C_9  and  C_10 
REMARK    5  A    between atoms: N_11  and  C_12 
REMARK    6  A    between atoms: C_12  and  C_13 
REMARK    7  A    between atoms: C_13  and  N_14 
REMARK    8  A    between atoms: C_20  and  O_21 
REMARK    9  A    between atoms: C_22  and  C_23 
REMARK   10  A    between atoms: C_23  and  C_24 
REMARK   11  A    between atoms: C_28  and  O_29 
REMARK   12  A    between atoms: O_29  and  C_30 
REMARK   13  A    between atoms: C_30  and  C_31 
ROOT
HETATM    1  C   UNL     1      43.390 -10.419   8.417  1.00  0.00     0.161 A 
HETATM    2  N   UNL     1      43.962  -9.829   9.623  1.00  0.00    -0.332 N 
HETATM    3  C   UNL     1      45.334  -9.683   9.493  1.00  0.00     0.278 A 
HETATM    4  O   UNL     1      46.108  -9.247  10.325  1.00  0.00    -0.265 OA
HETATM    5  C   UNL     1      45.724 -10.202   8.167  1.00  0.00     0.146 A 
HETATM    6  C   UNL     1      44.610 -10.664   7.584  1.00  0.00     0.059 A 
ENDROOT
BRANCH   6   7
HETATM    7  C   UNL     1      44.570 -11.309   6.249  1.00  0.00     0.194 C 
HETATM    8  O   UNL     1      45.321 -10.975   5.344  1.00  0.00    -0.287 OA
BRANCH   7   9
HETATM    9  C   UNL     1      43.510 -12.328   6.018  1.00  0.00     0.021 A 
HETATM   10  C   UNL     1      42.434 -12.065   5.151  1.00  0.00    -0.045 A 
HETATM   11  C   UNL     1      42.362 -10.827   4.304  1.00  0.00     0.049 C 
HETATM   12  C   UNL     1      41.400 -13.011   5.066  1.00  0.00     0.044 A 
HETATM   13  C   UNL     1      41.422 -14.178   5.831  1.00  0.00     0.069 A 
HETATM   14  C   UNL     1      42.532 -14.469   6.623  1.00  0.00     0.038 A 
HETATM   15  C   UNL     1      43.579 -13.550   6.707  1.00  0.00     0.019 A 
BRANCH  13  16
HETATM   16  O   UNL     1      40.336 -14.995   5.700  1.00  0.00    -0.347 OA
BRANCH  16  17
HETATM   17  C   UNL     1      40.645 -16.350   5.368  1.00  0.00     0.214 C 
BRANCH  17  18
HETATM   18  C   UNL     1      41.309 -16.364   4.014  1.00  0.00    -0.034 A 
HETATM   19  C   UNL     1      42.609 -16.869   3.871  1.00  0.00     0.009 A 
HETATM   20  C   UNL     1      43.236 -16.866   2.624  1.00  0.00     0.001 A 
HETATM   21  C   UNL     1      42.573 -16.356   1.510  1.00  0.00     0.000 A 
HETATM   22  C   UNL     1      41.283 -15.843   1.641  1.00  0.00     0.001 A 
HETATM   23  C   UNL     1      40.653 -15.848   2.887  1.00  0.00     0.009 A 
ENDBRANCH  17  18
ENDBRANCH  16  17
ENDBRANCH  13  16
ENDBRANCH   7   9
ENDBRANCH   6   7
BRANCH   1  24
HETATM   24  C   UNL     1      42.384  -9.474   7.788  1.00  0.00    -0.028 A 
HETATM   25  C   UNL     1      42.744  -8.193   7.337  1.00  0.00     0.012 A 
HETATM   26  C   UNL     1      41.787  -7.336   6.788  1.00  0.00     0.040 A 
HETATM   27  C   UNL     1      40.460  -7.750   6.673  1.00  0.00     0.099 A 
HETATM   28  C   UNL     1      40.085  -9.034   7.078  1.00  0.00     0.102 A 
HETATM   29  C   UNL     1      41.048  -9.879   7.646  1.00  0.00     0.049 A 
BRANCH  27  30
HETATM   30  O   UNL     1      39.538  -6.865   6.194  1.00  0.00    -0.358 OA
HETATM   31  H   UNL     1      39.677  -6.728   5.241  1.00  0.00     0.218 HD
ENDBRANCH  27  30
BRANCH  28  32
HETATM   32  O   UNL     1      38.836  -9.589   7.020  1.00  0.00    -0.349 OA
BRANCH  32  33
HETATM   33  C   UNL     1      38.681 -10.720   6.156  1.00  0.00     0.171 C 
HETATM   34  C   UNL     1      38.643 -10.215   4.724  1.00  0.00     0.034 C 
ENDBRANCH  32  33
ENDBRANCH  28  32
ENDBRANCH   1  24
BRANCH   5  35
HETATM   35  O   UNL     1      47.010 -10.248   7.730  1.00  0.00    -0.355 OA
HETATM   36  H   UNL     1      47.581  -9.951   8.465  1.00  0.00     0.218 HD
ENDBRANCH   5  35
BRANCH   2  37
HETATM   37  C   UNL     1      43.360 -10.012  10.944  1.00  0.00     0.155 C 
BRANCH  37  38
HETATM   38  C   UNL     1      42.552  -8.809  11.449  1.00  0.00     0.254 C 
BRANCH  38  39
HETATM   39  N   UNL     1      41.101  -8.890  11.020  1.00  0.00    -0.077 N 
HETATM   40  H   UNL     1      41.081  -9.506  10.196  1.00  0.00     0.279 HD
HETATM   41  C   UNL     1      40.253  -9.541  12.079  1.00  0.00     0.269 C 
HETATM   42  C   UNL     1      40.525  -7.568  10.587  1.00  0.00     0.269 C 
ENDBRANCH  38  39
ENDBRANCH  37  38
ENDBRANCH   2  37
TORSDOF 13
ENDMDL
MODEL 9
REMARK VINA RESULT:      -7.6      3.160      9.061
REMARK  13 active torsions:
REMARK  status: ('A' for Active; 'I' for Inactive)
REMARK    1  A    between atoms: C_2  and  O_3 
REMARK    2  A    between atoms: O_3  and  C_4 
REMARK    3  A    between atoms: C_5  and  O_6 
REMARK    4  A    between atoms: C_9  and  C_10 
REMARK    5  A    between atoms: N_11  and  C_12 
REMARK    6  A    between atoms: C_12  and  C_13 
REMARK    7  A    between atoms: C_13  and  N_14 
REMARK    8  A    between atoms: C_20  and  O_21 
REMARK    9  A    between atoms: C_22  and  C_23 
REMARK   10  A    between atoms: C_23  and  C_24 
REMARK   11  A    between atoms: C_28  and  O_29 
REMARK   12  A    between atoms: O_29  and  C_30 
REMARK   13  A    between atoms: C_30  and  C_31 
ROOT
HETATM    1  C   UNL     1      42.450 -14.242   3.694  1.00  0.00     0.161 A 
HETATM    2  N   UNL     1      42.068 -15.516   4.295  1.00  0.00    -0.332 N 
HETATM    3  C   UNL     1      42.262 -15.487   5.666  1.00  0.00     0.278 A 
HETATM    4  O   UNL     1      42.064 -16.393   6.455  1.00  0.00    -0.265 OA
HETATM    5  C   UNL     1      42.809 -14.162   6.022  1.00  0.00     0.146 A 
HETATM    6  C   UNL     1      42.958 -13.481   4.879  1.00  0.00     0.059 A 
ENDROOT
BRANCH   6   7
HETATM    7  C   UNL     1      43.520 -12.111   4.789  1.00  0.00     0.194 C 
HETATM    8  O   UNL     1      44.260 -11.771   3.877  1.00  0.00    -0.287 OA
BRANCH   7   9
HETATM    9  C   UNL     1      43.219 -11.178   5.909  1.00  0.00     0.021 A 
HETATM   10  C   UNL     1      44.199 -10.860   6.866  1.00  0.00    -0.045 A 
HETATM   11  C   UNL     1      45.626 -11.312   6.742  1.00  0.00     0.049 C 
HETATM   12  C   UNL     1      43.825 -10.074   7.968  1.00  0.00     0.044 A 
HETATM   13  C   UNL     1      42.512  -9.629   8.127  1.00  0.00     0.069 A 
HETATM   14  C   UNL     1      41.569  -9.877   7.131  1.00  0.00     0.038 A 
HETATM   15  C   UNL     1      41.925 -10.641   6.019  1.00  0.00     0.019 A 
BRANCH  13  16
HETATM   16  O   UNL     1      42.260  -8.917   9.264  1.00  0.00    -0.347 OA
BRANCH  16  17
HETATM   17  C   UNL     1      43.345  -8.870  10.192  1.00  0.00     0.214 C 
BRANCH  17  18
HETATM   18  C   UNL     1      42.771  -8.874  11.588  1.00  0.00    -0.034 A 
HETATM   19  C   UNL     1      43.322  -8.050  12.579  1.00  0.00     0.009 A 
HETATM   20  C   UNL     1      42.808  -8.063  13.876  1.00  0.00     0.001 A 
HETATM   21  C   UNL     1      41.744  -8.902  14.197  1.00  0.00     0.000 A 
HETATM   22  C   UNL     1      41.193  -9.732  13.222  1.00  0.00     0.001 A 
HETATM   23  C   UNL     1      41.703  -9.718  11.923  1.00  0.00     0.009 A 
ENDBRANCH  17  18
ENDBRANCH  16  17
ENDBRANCH  13  16
ENDBRANCH   7   9
ENDBRANCH   6   7
BRANCH   1  24
HETATM   24  C   UNL     1      41.262 -13.602   3.002  1.00  0.00    -0.028 A 
HETATM   25  C   UNL     1      40.174 -13.076   3.721  1.00  0.00     0.012 A 
HETATM   26  C   UNL     1      39.081 -12.518   3.053  1.00  0.00     0.040 A 
HETATM   27  C   UNL     1      39.064 -12.468   1.659  1.00  0.00     0.099 A 
HETATM   28  C   UNL     1      40.151 -12.949   0.923  1.00  0.00     0.102 A 
HETATM   29  C   UNL     1      41.233 -13.525   1.601  1.00  0.00     0.049 A 
BRANCH  27  30
HETATM   30  O   UNL     1      37.953 -11.979   1.036  1.00  0.00    -0.358 OA
HETATM   31  H   UNL     1      38.079 -12.001   0.072  1.00  0.00     0.218 HD
ENDBRANCH  27  30
BRANCH  28  32
HETATM   32  O   UNL     1      40.289 -12.961  -0.438  1.00  0.00    -0.349 OA
BRANCH  32  33
HETATM   33  C   UNL     1      39.809 -14.126  -1.117  1.00  0.00     0.171 C 
HETATM   34  C   UNL     1      40.159 -13.989  -2.589  1.00  0.00     0.034 C 
ENDBRANCH  32  33
ENDBRANCH  28  32
ENDBRANCH   1  24
BRANCH   5  35
HETATM   35  O   UNL     1      43.156 -13.812   7.288  1.00  0.00    -0.355 OA
HETATM   36  H   UNL     1      44.131 -13.832   7.342  1.00  0.00     0.218 HD
ENDBRANCH   5  35
BRANCH   2  37
HETATM   37  C   UNL     1      42.147 -16.780   3.563  1.00  0.00     0.155 C 
BRANCH  37  38
HETATM   38  C   UNL     1      43.458 -16.991   2.793  1.00  0.00     0.254 C 
BRANCH  38  39
HETATM   39  N   UNL     1      44.002 -18.392   2.986  1.00  0.00    -0.077 N 
HETATM   40  H   UNL     1      44.946 -18.390   2.577  1.00  0.00     0.279 HD
HETATM   41  C   UNL     1      44.154 -18.723   4.445  1.00  0.00     0.269 C 
HETATM   42  C   UNL     1      43.216 -19.450   2.258  1.00  0.00     0.269 C 
ENDBRANCH  38  39
ENDBRANCH  37  38
ENDBRANCH   2  37
TORSDOF 13
ENDMDL
MODEL 10
REMARK VINA RESULT:      -7.6      3.171      6.330
REMARK  13 active torsions:
REMARK  status: ('A' for Active; 'I' for Inactive)
REMARK    1  A    between atoms: C_2  and  O_3 
REMARK    2  A    between atoms: O_3  and  C_4 
REMARK    3  A    between atoms: C_5  and  O_6 
REMARK    4  A    between atoms: C_9  and  C_10 
REMARK    5  A    between atoms: N_11  and  C_12 
REMARK    6  A    between atoms: C_12  and  C_13 
REMARK    7  A    between atoms: C_13  and  N_14 
REMARK    8  A    between atoms: C_20  and  O_21 
REMARK    9  A    between atoms: C_22  and  C_23 
REMARK   10  A    between atoms: C_23  and  C_24 
REMARK   11  A    between atoms: C_28  and  O_29 
REMARK   12  A    between atoms: O_29  and  C_30 
REMARK   13  A    between atoms: C_30  and  C_31 
ROOT
HETATM    1  C   UNL     1      39.955 -11.319   1.815  1.00  0.00     0.161 A 
HETATM    2  N   UNL     1      38.896 -10.315   1.815  1.00  0.00    -0.332 N 
HETATM    3  C   UNL     1      39.297  -9.182   2.504  1.00  0.00     0.278 A 
HETATM    4  O   UNL     1      38.642  -8.176   2.708  1.00  0.00    -0.265 OA
HETATM    5  C   UNL     1      40.664  -9.416   3.010  1.00  0.00     0.146 A 
HETATM    6  C   UNL     1      41.007 -10.659   2.652  1.00  0.00     0.059 A 
ENDROOT
BRANCH   6   7
HETATM    7  C   UNL     1      42.296 -11.305   2.999  1.00  0.00     0.194 C 
HETATM    8  O   UNL     1      43.370 -10.743   2.836  1.00  0.00    -0.287 OA
BRANCH   7   9
HETATM    9  C   UNL     1      42.244 -12.715   3.476  1.00  0.00     0.021 A 
HETATM   10  C   UNL     1      41.932 -13.012   4.814  1.00  0.00    -0.045 A 
HETATM   11  C   UNL     1      41.493 -11.962   5.795  1.00  0.00     0.049 C 
HETATM   12  C   UNL     1      42.018 -14.348   5.238  1.00  0.00     0.044 A 
HETATM   13  C   UNL     1      42.420 -15.360   4.364  1.00  0.00     0.069 A 
HETATM   14  C   UNL     1      42.645 -15.068   3.020  1.00  0.00     0.038 A 
HETATM   15  C   UNL     1      42.546 -13.749   2.575  1.00  0.00     0.019 A 
BRANCH  13  16
HETATM   16  O   UNL     1      42.515 -16.609   4.906  1.00  0.00    -0.347 OA
BRANCH  16  17
HETATM   17  C   UNL     1      43.842 -17.136   4.963  1.00  0.00     0.214 C 
BRANCH  17  18
HETATM   18  C   UNL     1      43.834 -18.501   4.319  1.00  0.00    -0.034 A 
HETATM   19  C   UNL     1      44.053 -19.647   5.095  1.00  0.00     0.009 A 
HETATM   20  C   UNL     1      44.066 -20.911   4.502  1.00  0.00     0.001 A 
HETATM   21  C   UNL     1      43.868 -21.040   3.130  1.00  0.00     0.000 A 
HETATM   22  C   UNL     1      43.658 -19.907   2.346  1.00  0.00     0.001 A 
HETATM   23  C   UNL     1      43.641 -18.642   2.938  1.00  0.00     0.009 A 
ENDBRANCH  17  18
ENDBRANCH  16  17
ENDBRANCH  13  16
ENDBRANCH   7   9
ENDBRANCH   6   7
BRANCH   1  24
HETATM   24  C   UNL     1      40.390 -11.634   0.397  1.00  0.00    -0.028 A 
HETATM   25  C   UNL     1      41.183 -10.749  -0.355  1.00  0.00     0.012 A 
HETATM   26  C   UNL     1      41.544 -11.056  -1.669  1.00  0.00     0.040 A 
HETATM   27  C   UNL     1      41.127 -12.255  -2.248  1.00  0.00     0.099 A 
HETATM   28  C   UNL     1      40.371 -13.169  -1.508  1.00  0.00     0.102 A 
HETATM   29  C   UNL     1      39.997 -12.843  -0.198  1.00  0.00     0.049 A 
BRANCH  27  30
HETATM   30  O   UNL     1      41.439 -12.494  -3.554  1.00  0.00    -0.358 OA
HETATM   31  H   UNL     1      41.467 -11.654  -4.045  1.00  0.00     0.218 HD
ENDBRANCH  27  30
BRANCH  28  32
HETATM   32  O   UNL     1      39.898 -14.383  -1.926  1.00  0.00    -0.349 OA
BRANCH  32  33
HETATM   33  C   UNL     1      38.488 -14.471  -2.160  1.00  0.00     0.171 C 
HETATM   34  C   UNL     1      38.273 -14.736  -3.640  1.00  0.00     0.034 C 
ENDBRANCH  32  33
ENDBRANCH  28  32
ENDBRANCH   1  24
BRANCH   5  35
HETATM   35  O   UNL     1      41.345  -8.517   3.770  1.00  0.00    -0.355 OA
HETATM   36  H   UNL     1      42.042  -9.006   4.249  1.00  0.00     0.218 HD
ENDBRANCH   5  35
BRANCH   2  37
HETATM   37  C   UNL     1      37.479 -10.673   1.739  1.00  0.00     0.155 C 
BRANCH  37  38
HETATM   38  C   UNL     1      36.737 -10.089   0.530  1.00  0.00     0.254 C 
BRANCH  38  39
HETATM   39  N   UNL     1      37.673  -9.840  -0.635  1.00  0.00    -0.077 N 
HETATM   40  H   UNL     1      38.611 -10.114  -0.311  1.00  0.00     0.279 HD
HETATM   41  C   UNL     1      37.337 -10.724  -1.805  1.00  0.00     0.269 C 
HETATM   42  C   UNL     1      37.760  -8.394  -1.042  1.00  0.00     0.269 C 
ENDBRANCH  38  39
ENDBRANCH  37  38
ENDBRANCH   2  37
TORSDOF 13
ENDMDL
