MODEL 1
REMARK VINA RESULT:      -8.3      0.000      0.000
REMARK  5 active torsions:
REMARK  status: ('A' for Active; 'I' for Inactive)
REMARK    1  A    between atoms: C_3  and  N_4 
REMARK       I    between atoms: N_4  and  C_5 
REMARK       I    between atoms: C_5  and  N_6 
REMARK    2  A    between atoms: N_6  and  C_7 
REMARK    3  A    between atoms: C_7  and  C_8 
REMARK    4  A    between atoms: C_10  and  N_11 
REMARK       I    between atoms: N_11  and  C_12 
REMARK    5  A    between atoms: C_12  and  C_13 
ROOT
HETATM    1  C   UNL     1      41.217 -13.693   2.390  1.00  0.00    -0.038 A 
HETATM    2  C   UNL     1      42.235 -13.151   3.195  1.00  0.00     0.038 A 
HETATM    3  C   UNL     1      41.934 -12.486   4.386  1.00  0.00     0.035 A 
HETATM    4  C   UNL     1      40.592 -12.346   4.761  1.00  0.00     0.029 A 
HETATM    5  C   UNL     1      39.571 -12.855   3.955  1.00  0.00     0.003 A 
HETATM    6  C   UNL     1      39.881 -13.526   2.773  1.00  0.00     0.009 A 
ENDROOT
BRANCH   1   7
HETATM    7  C   UNL     1      41.566 -14.466   1.145  1.00  0.00     0.163 C 
BRANCH   7   8
HETATM    8  N   UNL     1      42.634 -15.412   1.374  1.00  0.00    -0.339 N 
HETATM    9  C   UNL     1      42.415 -16.589   2.053  1.00  0.00     0.321 C 
HETATM   10  N   UNL     1      43.608 -17.251   2.263  1.00  0.00    -0.307 N 
HETATM   11  O   UNL     1      41.315 -16.928   2.466  1.00  0.00    -0.247 OA
HETATM   12  H   UNL     1      44.379 -16.604   2.360  1.00  0.00     0.170 HD
HETATM   13  H   UNL     1      43.404 -15.396   0.722  1.00  0.00     0.164 HD
BRANCH  10  14
HETATM   14  C   UNL     1      43.736 -18.472   2.968  1.00  0.00     0.059 A 
HETATM   15  C   UNL     1      44.034 -18.595   4.332  1.00  0.00    -0.032 A 
HETATM   16  C   UNL     1      44.176 -17.436   5.277  1.00  0.00     0.050 C 
HETATM   17  C   UNL     1      44.186 -19.887   4.863  1.00  0.00     0.028 A 
HETATM   18  C   UNL     1      43.977 -20.991   4.051  1.00  0.00     0.117 A 
HETATM   19  N   UNL     1      43.621 -20.905   2.757  1.00  0.00    -0.271 NA
HETATM   20  C   UNL     1      43.508 -19.653   2.254  1.00  0.00     0.146 A 
ENDBRANCH  10  14
ENDBRANCH   7   8
ENDBRANCH   1   7
BRANCH   3  21
HETATM   21  N   UNL     1      42.907 -11.976   5.264  1.00  0.00    -0.321 N 
HETATM   22  C   UNL     1      43.661 -12.662   6.201  1.00  0.00     0.279 C 
HETATM   23  O   UNL     1      43.675 -13.880   6.347  1.00  0.00    -0.265 OA
HETATM   24  H   UNL     1      43.082 -10.977   5.231  1.00  0.00     0.169 HD
BRANCH  22  25
HETATM   25  C   UNL     1      44.474 -11.781   7.020  1.00  0.00     0.142 A 
HETATM   26  O   UNL     1      45.771 -11.520   6.656  1.00  0.00    -0.317 OA
HETATM   27  C   UNL     1      46.277 -10.652   7.571  1.00  0.00     0.143 A 
HETATM   28  C   UNL     1      45.336 -10.357   8.528  1.00  0.00     0.027 A 
HETATM   29  C   UNL     1      44.174 -11.084   8.177  1.00  0.00     0.045 A 
ENDBRANCH  22  25
ENDBRANCH   3  21
TORSDOF 5
ENDMDL
MODEL 2
REMARK VINA RESULT:      -8.2      3.312      5.104
REMARK  5 active torsions:
REMARK  status: ('A' for Active; 'I' for Inactive)
REMARK    1  A    between atoms: C_3  and  N_4 
REMARK       I    between atoms: N_4  and  C_5 
REMARK       I    between atoms: C_5  and  N_6 
REMARK    2  A    between atoms: N_6  and  C_7 
REMARK    3  A    between atoms: C_7  and  C_8 
REMARK    4  A    between atoms: C_10  and  N_11 
REMARK       I    between atoms: N_11  and  C_12 
REMARK    5  A    between atoms: C_12  and  C_13 
ROOT
HETATM    1  C   UNL     1      43.510 -11.424   6.506  1.00  0.00    -0.038 A 
HETATM    2  C   UNL     1      43.122 -10.912   7.757  1.00  0.00     0.038 A 
HETATM    3  C   UNL     1      44.066 -10.392   8.646  1.00  0.00     0.035 A 
HETATM    4  C   UNL     1      45.417 -10.405   8.281  1.00  0.00     0.029 A 
HETATM    5  C   UNL     1      45.818 -10.937   7.053  1.00  0.00     0.003 A 
HETATM    6  C   UNL     1      44.869 -11.444   6.168  1.00  0.00     0.009 A 
ENDROOT
BRANCH   1   7
HETATM    7  C   UNL     1      42.471 -11.917   5.532  1.00  0.00     0.163 C 
BRANCH   7   8
HETATM    8  N   UNL     1      42.284 -13.348   5.617  1.00  0.00    -0.339 N 
HETATM    9  C   UNL     1      42.853 -14.200   4.698  1.00  0.00     0.321 C 
HETATM   10  N   UNL     1      42.418 -15.493   4.908  1.00  0.00    -0.307 N 
HETATM   11  O   UNL     1      43.575 -13.817   3.788  1.00  0.00    -0.247 OA
HETATM   12  H   UNL     1      41.479 -15.511   5.285  1.00  0.00     0.170 HD
HETATM   13  H   UNL     1      42.081 -13.727   6.530  1.00  0.00     0.164 HD
BRANCH  10  14
HETATM   14  C   UNL     1      42.783 -16.604   4.110  1.00  0.00     0.059 A 
HETATM   15  C   UNL     1      42.174 -16.971   2.902  1.00  0.00    -0.032 A 
HETATM   16  C   UNL     1      41.091 -16.182   2.224  1.00  0.00     0.050 C 
HETATM   17  C   UNL     1      42.619 -18.142   2.265  1.00  0.00     0.028 A 
HETATM   18  C   UNL     1      43.677 -18.857   2.806  1.00  0.00     0.117 A 
HETATM   19  N   UNL     1      44.327 -18.490   3.925  1.00  0.00    -0.271 NA
HETATM   20  C   UNL     1      43.866 -17.376   4.542  1.00  0.00     0.146 A 
ENDBRANCH  10  14
ENDBRANCH   7   8
ENDBRANCH   1   7
BRANCH   3  21
HETATM   21  N   UNL     1      43.736  -9.812   9.885  1.00  0.00    -0.321 N 
HETATM   22  C   UNL     1      43.708 -10.413  11.132  1.00  0.00     0.279 C 
HETATM   23  O   UNL     1      44.077 -11.557  11.378  1.00  0.00    -0.265 OA
HETATM   24  H   UNL     1      43.469  -8.834   9.880  1.00  0.00     0.169 HD
BRANCH  22  25
HETATM   25  C   UNL     1      43.192  -9.532  12.166  1.00  0.00     0.142 A 
HETATM   26  O   UNL     1      42.250 -10.000  13.047  1.00  0.00    -0.317 OA
HETATM   27  C   UNL     1      41.976  -8.989  13.913  1.00  0.00     0.143 A 
HETATM   28  C   UNL     1      42.713  -7.873  13.601  1.00  0.00     0.027 A 
HETATM   29  C   UNL     1      43.496  -8.219  12.474  1.00  0.00     0.045 A 
ENDBRANCH  22  25
ENDBRANCH   3  21
TORSDOF 5
ENDMDL
MODEL 3
REMARK VINA RESULT:      -8.2      3.334      6.379
REMARK  5 active torsions:
REMARK  status: ('A' for Active; 'I' for Inactive)
REMARK    1  A    between atoms: C_3  and  N_4 
REMARK       I    between atoms: N_4  and  C_5 
REMARK       I    between atoms: C_5  and  N_6 
REMARK    2  A    between atoms: N_6  and  C_7 
REMARK    3  A    between atoms: C_7  and  C_8 
REMARK    4  A    between atoms: C_10  and  N_11 
REMARK       I    between atoms: N_11  and  C_12 
REMARK    5  A    between atoms: C_12  and  C_13 
ROOT
HETATM    1  C   UNL     1      39.763 -12.612   4.716  1.00  0.00    -0.038 A 
HETATM    2  C   UNL     1      39.505 -13.154   3.444  1.00  0.00     0.038 A 
HETATM    3  C   UNL     1      39.033 -12.352   2.402  1.00  0.00     0.035 A 
HETATM    4  C   UNL     1      38.798 -10.994   2.648  1.00  0.00     0.029 A 
HETATM    5  C   UNL     1      39.023 -10.450   3.914  1.00  0.00     0.003 A 
HETATM    6  C   UNL     1      39.504 -11.255   4.946  1.00  0.00     0.009 A 
ENDROOT
BRANCH   1   7
HETATM    7  C   UNL     1      40.337 -13.477   5.808  1.00  0.00     0.163 C 
BRANCH   7   8
HETATM    8  N   UNL     1      41.583 -14.094   5.413  1.00  0.00    -0.339 N 
HETATM    9  C   UNL     1      41.630 -15.400   4.980  1.00  0.00     0.321 C 
HETATM   10  N   UNL     1      42.939 -15.798   4.797  1.00  0.00    -0.307 N 
HETATM   11  O   UNL     1      40.636 -16.102   4.864  1.00  0.00    -0.247 OA
HETATM   12  H   UNL     1      43.563 -15.325   5.437  1.00  0.00     0.170 HD
HETATM   13  H   UNL     1      42.314 -13.477   5.090  1.00  0.00     0.164 HD
BRANCH  10  14
HETATM   14  C   UNL     1      43.335 -17.097   4.396  1.00  0.00     0.059 A 
HETATM   15  C   UNL     1      43.434 -17.544   3.072  1.00  0.00    -0.032 A 
HETATM   16  C   UNL     1      43.217 -16.676   1.865  1.00  0.00     0.050 C 
HETATM   17  C   UNL     1      43.784 -18.887   2.851  1.00  0.00     0.028 A 
HETATM   18  C   UNL     1      44.081 -19.705   3.930  1.00  0.00     0.117 A 
HETATM   19  N   UNL     1      44.063 -19.285   5.208  1.00  0.00    -0.271 NA
HETATM   20  C   UNL     1      43.695 -17.997   5.405  1.00  0.00     0.146 A 
ENDBRANCH  10  14
ENDBRANCH   7   8
ENDBRANCH   1   7
BRANCH   3  21
HETATM   21  N   UNL     1      38.813 -12.820   1.094  1.00  0.00    -0.321 N 
HETATM   22  C   UNL     1      39.752 -13.107   0.117  1.00  0.00     0.279 C 
HETATM   23  O   UNL     1      40.968 -13.096   0.276  1.00  0.00    -0.265 OA
HETATM   24  H   UNL     1      37.850 -12.957   0.808  1.00  0.00     0.169 HD
BRANCH  22  25
HETATM   25  C   UNL     1      39.146 -13.444  -1.160  1.00  0.00     0.142 A 
HETATM   26  O   UNL     1      37.881 -12.997  -1.450  1.00  0.00    -0.317 OA
HETATM   27  C   UNL     1      37.583 -13.427  -2.703  1.00  0.00     0.143 A 
HETATM   28  C   UNL     1      38.626 -14.154  -3.225  1.00  0.00     0.027 A 
HETATM   29  C   UNL     1      39.634 -14.169  -2.232  1.00  0.00     0.045 A 
ENDBRANCH  22  25
ENDBRANCH   3  21
TORSDOF 5
ENDMDL
MODEL 4
REMARK VINA RESULT:      -8.1      2.942      5.576
REMARK  5 active torsions:
REMARK  status: ('A' for Active; 'I' for Inactive)
REMARK    1  A    between atoms: C_3  and  N_4 
REMARK       I    between atoms: N_4  and  C_5 
REMARK       I    between atoms: C_5  and  N_6 
REMARK    2  A    between atoms: N_6  and  C_7 
REMARK    3  A    between atoms: C_7  and  C_8 
REMARK    4  A    between atoms: C_10  and  N_11 
REMARK       I    between atoms: N_11  and  C_12 
REMARK    5  A    between atoms: C_12  and  C_13 
ROOT
HETATM    1  C   UNL     1      42.059 -15.731   3.580  1.00  0.00    -0.038 A 
HETATM    2  C   UNL     1      42.856 -14.755   4.204  1.00  0.00     0.038 A 
HETATM    3  C   UNL     1      42.632 -14.384   5.532  1.00  0.00     0.035 A 
HETATM    4  C   UNL     1      41.581 -14.986   6.235  1.00  0.00     0.029 A 
HETATM    5  C   UNL     1      40.765 -15.936   5.617  1.00  0.00     0.003 A 
HETATM    6  C   UNL     1      41.002 -16.308   4.294  1.00  0.00     0.009 A 
ENDROOT
BRANCH   1   7
HETATM    7  C   UNL     1      42.359 -16.167   2.170  1.00  0.00     0.163 C 
BRANCH   7   8
HETATM    8  N   UNL     1      42.093 -15.121   1.209  1.00  0.00    -0.339 N 
HETATM    9  C   UNL     1      40.858 -14.990   0.616  1.00  0.00     0.321 C 
HETATM   10  N   UNL     1      40.894 -14.013  -0.358  1.00  0.00    -0.307 N 
HETATM   11  O   UNL     1      39.907 -15.711   0.884  1.00  0.00    -0.247 OA
HETATM   12  H   UNL     1      41.807 -13.953  -0.789  1.00  0.00     0.170 HD
HETATM   13  H   UNL     1      42.661 -14.288   1.273  1.00  0.00     0.164 HD
BRANCH  10  14
HETATM   14  C   UNL     1      39.799 -13.661  -1.184  1.00  0.00     0.059 A 
HETATM   15  C   UNL     1      38.782 -12.758  -0.846  1.00  0.00    -0.032 A 
HETATM   16  C   UNL     1      38.750 -11.954   0.423  1.00  0.00     0.050 C 
HETATM   17  C   UNL     1      37.733 -12.568  -1.760  1.00  0.00     0.028 A 
HETATM   18  C   UNL     1      37.763 -13.220  -2.983  1.00  0.00     0.117 A 
HETATM   19  N   UNL     1      38.761 -14.037  -3.365  1.00  0.00    -0.271 NA
HETATM   20  C   UNL     1      39.749 -14.232  -2.461  1.00  0.00     0.146 A 
ENDBRANCH  10  14
ENDBRANCH   7   8
ENDBRANCH   1   7
BRANCH   3  21
HETATM   21  N   UNL     1      43.430 -13.460   6.231  1.00  0.00    -0.321 N 
HETATM   22  C   UNL     1      43.226 -12.100   6.392  1.00  0.00     0.279 C 
HETATM   23  O   UNL     1      42.230 -11.483   6.027  1.00  0.00    -0.265 OA
HETATM   24  H   UNL     1      44.274 -13.815   6.667  1.00  0.00     0.169 HD
BRANCH  22  25
HETATM   25  C   UNL     1      44.332 -11.443   7.068  1.00  0.00     0.142 A 
HETATM   26  O   UNL     1      44.164 -10.977   8.347  1.00  0.00    -0.317 OA
HETATM   27  C   UNL     1      45.352 -10.446   8.738  1.00  0.00     0.143 A 
HETATM   28  C   UNL     1      46.282 -10.548   7.731  1.00  0.00     0.027 A 
HETATM   29  C   UNL     1      45.626 -11.189   6.652  1.00  0.00     0.045 A 
ENDBRANCH  22  25
ENDBRANCH   3  21
TORSDOF 5
ENDMDL
MODEL 5
REMARK VINA RESULT:      -7.7      3.177      7.215
REMARK  5 active torsions:
REMARK  status: ('A' for Active; 'I' for Inactive)
REMARK    1  A    between atoms: C_3  and  N_4 
REMARK       I    between atoms: N_4  and  C_5 
REMARK       I    between atoms: C_5  and  N_6 
REMARK    2  A    between atoms: N_6  and  C_7 
REMARK    3  A    between atoms: C_7  and  C_8 
REMARK    4  A    between atoms: C_10  and  N_11 
REMARK       I    between atoms: N_11  and  C_12 
REMARK    5  A    between atoms: C_12  and  C_13 
ROOT
HETATM    1  C   UNL     1      41.387 -13.209   4.637  1.00  0.00    -0.038 A 
HETATM    2  C   UNL     1      41.922 -14.404   4.124  1.00  0.00     0.038 A 
HETATM    3  C   UNL     1      41.647 -15.633   4.727  1.00  0.00     0.035 A 
HETATM    4  C   UNL     1      40.841 -15.659   5.872  1.00  0.00     0.029 A 
HETATM    5  C   UNL     1      40.327 -14.476   6.407  1.00  0.00     0.003 A 
HETATM    6  C   UNL     1      40.598 -13.255   5.793  1.00  0.00     0.009 A 
ENDROOT
BRANCH   1   7
HETATM    7  C   UNL     1      41.638 -11.901   3.933  1.00  0.00     0.163 C 
BRANCH   7   8
HETATM    8  N   UNL     1      41.862 -12.080   2.517  1.00  0.00    -0.339 N 
HETATM    9  C   UNL     1      40.816 -12.287   1.647  1.00  0.00     0.321 C 
HETATM   10  N   UNL     1      41.292 -12.568   0.382  1.00  0.00    -0.307 N 
HETATM   11  O   UNL     1      39.645 -12.294   1.999  1.00  0.00    -0.247 OA
HETATM   12  H   UNL     1      42.182 -13.045   0.418  1.00  0.00     0.170 HD
HETATM   13  H   UNL     1      42.703 -11.675   2.134  1.00  0.00     0.164 HD
BRANCH  10  14
HETATM   14  C   UNL     1      40.476 -12.870  -0.735  1.00  0.00     0.059 A 
HETATM   15  C   UNL     1      39.820 -14.089  -0.956  1.00  0.00    -0.032 A 
HETATM   16  C   UNL     1      39.814 -15.236   0.014  1.00  0.00     0.050 C 
HETATM   17  C   UNL     1      39.097 -14.245  -2.150  1.00  0.00     0.028 A 
HETATM   18  C   UNL     1      38.999 -13.184  -3.037  1.00  0.00     0.117 A 
HETATM   19  N   UNL     1      39.559 -11.980  -2.819  1.00  0.00    -0.271 NA
HETATM   20  C   UNL     1      40.276 -11.856  -1.677  1.00  0.00     0.146 A 
ENDBRANCH  10  14
ENDBRANCH   7   8
ENDBRANCH   1   7
BRANCH   3  21
HETATM   21  N   UNL     1      42.101 -16.868   4.229  1.00  0.00    -0.321 N 
HETATM   22  C   UNL     1      43.376 -17.404   4.301  1.00  0.00     0.279 C 
HETATM   23  O   UNL     1      44.317 -16.919   4.921  1.00  0.00    -0.265 OA
HETATM   24  H   UNL     1      41.427 -17.445   3.739  1.00  0.00     0.169 HD
BRANCH  22  25
HETATM   25  C   UNL     1      43.504 -18.646   3.558  1.00  0.00     0.142 A 
HETATM   26  O   UNL     1      43.927 -19.782   4.202  1.00  0.00    -0.317 OA
HETATM   27  C   UNL     1      43.923 -20.785   3.286  1.00  0.00     0.143 A 
HETATM   28  C   UNL     1      43.518 -20.318   2.059  1.00  0.00     0.027 A 
HETATM   29  C   UNL     1      43.249 -18.939   2.230  1.00  0.00     0.045 A 
ENDBRANCH  22  25
ENDBRANCH   3  21
TORSDOF 5
ENDMDL
MODEL 6
REMARK VINA RESULT:      -7.7      2.206      7.939
REMARK  5 active torsions:
REMARK  status: ('A' for Active; 'I' for Inactive)
REMARK    1  A    between atoms: C_3  and  N_4 
REMARK       I    between atoms: N_4  and  C_5 
REMARK       I    between atoms: C_5  and  N_6 
REMARK    2  A    between atoms: N_6  and  C_7 
REMARK    3  A    between atoms: C_7  and  C_8 
REMARK    4  A    between atoms: C_10  and  N_11 
REMARK       I    between atoms: N_11  and  C_12 
REMARK    5  A    between atoms: C_12  and  C_13 
ROOT
HETATM    1  C   UNL     1      43.556 -16.917   4.721  1.00  0.00    -0.038 A 
HETATM    2  C   UNL     1      42.969 -15.996   3.835  1.00  0.00     0.038 A 
HETATM    3  C   UNL     1      42.705 -16.341   2.508  1.00  0.00     0.035 A 
HETATM    4  C   UNL     1      43.055 -17.621   2.060  1.00  0.00     0.029 A 
HETATM    5  C   UNL     1      43.664 -18.534   2.922  1.00  0.00     0.003 A 
HETATM    6  C   UNL     1      43.915 -18.185   4.248  1.00  0.00     0.009 A 
ENDROOT
BRANCH   1   7
HETATM    7  C   UNL     1      43.770 -16.550   6.166  1.00  0.00     0.163 C 
BRANCH   7   8
HETATM    8  N   UNL     1      44.306 -15.216   6.314  1.00  0.00    -0.339 N 
HETATM    9  C   UNL     1      43.519 -14.170   6.740  1.00  0.00     0.321 C 
HETATM   10  N   UNL     1      44.218 -12.982   6.667  1.00  0.00    -0.307 N 
HETATM   11  O   UNL     1      42.345 -14.302   7.055  1.00  0.00    -0.247 OA
HETATM   12  H   UNL     1      44.892 -12.995   5.914  1.00  0.00     0.170 HD
HETATM   13  H   UNL     1      45.299 -15.141   6.483  1.00  0.00     0.164 HD
BRANCH  10  14
HETATM   14  C   UNL     1      43.682 -11.713   6.993  1.00  0.00     0.059 A 
HETATM   15  C   UNL     1      42.814 -10.965   6.186  1.00  0.00    -0.032 A 
HETATM   16  C   UNL     1      42.248 -11.445   4.879  1.00  0.00     0.050 C 
HETATM   17  C   UNL     1      42.424  -9.693   6.634  1.00  0.00     0.028 A 
HETATM   18  C   UNL     1      42.849  -9.242   7.874  1.00  0.00     0.117 A 
HETATM   19  N   UNL     1      43.624  -9.966   8.702  1.00  0.00    -0.271 NA
HETATM   20  C   UNL     1      44.015 -11.177   8.242  1.00  0.00     0.146 A 
ENDBRANCH  10  14
ENDBRANCH   7   8
ENDBRANCH   1   7
BRANCH   3  21
HETATM   21  N   UNL     1      42.066 -15.487   1.590  1.00  0.00    -0.321 N 
HETATM   22  C   UNL     1      40.709 -15.330   1.367  1.00  0.00     0.279 C 
HETATM   23  O   UNL     1      39.815 -15.851   2.027  1.00  0.00    -0.265 OA
HETATM   24  H   UNL     1      42.661 -14.917   0.998  1.00  0.00     0.169 HD
BRANCH  22  25
HETATM   25  C   UNL     1      40.423 -14.452   0.246  1.00  0.00     0.142 A 
HETATM   26  O   UNL     1      41.023 -13.218   0.181  1.00  0.00    -0.317 OA
HETATM   27  C   UNL     1      40.606 -12.633  -0.972  1.00  0.00     0.143 A 
HETATM   28  C   UNL     1      39.739 -13.457  -1.648  1.00  0.00     0.027 A 
HETATM   29  C   UNL     1      39.618 -14.629  -0.864  1.00  0.00     0.045 A 
ENDBRANCH  22  25
ENDBRANCH   3  21
TORSDOF 5
ENDMDL
MODEL 7
REMARK VINA RESULT:      -7.7      3.210      9.326
REMARK  5 active torsions:
REMARK  status: ('A' for Active; 'I' for Inactive)
REMARK    1  A    between atoms: C_3  and  N_4 
REMARK       I    between atoms: N_4  and  C_5 
REMARK       I    between atoms: C_5  and  N_6 
REMARK    2  A    between atoms: N_6  and  C_7 
REMARK    3  A    between atoms: C_7  and  C_8 
REMARK    4  A    between atoms: C_10  and  N_11 
REMARK       I    between atoms: N_11  and  C_12 
REMARK    5  A    between atoms: C_12  and  C_13 
ROOT
HETATM    1  C   UNL     1      42.681 -13.314   6.152  1.00  0.00    -0.038 A 
HETATM    2  C   UNL     1      43.181 -14.551   5.704  1.00  0.00     0.038 A 
HETATM    3  C   UNL     1      42.323 -15.539   5.215  1.00  0.00     0.035 A 
HETATM    4  C   UNL     1      40.946 -15.289   5.195  1.00  0.00     0.029 A 
HETATM    5  C   UNL     1      40.436 -14.077   5.664  1.00  0.00     0.003 A 
HETATM    6  C   UNL     1      41.299 -13.092   6.141  1.00  0.00     0.009 A 
ENDROOT
BRANCH   1   7
HETATM    7  C   UNL     1      43.627 -12.236   6.612  1.00  0.00     0.163 C 
BRANCH   7   8
HETATM    8  N   UNL     1      42.948 -11.199   7.355  1.00  0.00    -0.339 N 
HETATM    9  C   UNL     1      43.412 -10.773   8.579  1.00  0.00     0.321 C 
HETATM   10  N   UNL     1      42.523  -9.883   9.147  1.00  0.00    -0.307 N 
HETATM   11  O   UNL     1      44.433 -11.207   9.095  1.00  0.00    -0.247 OA
HETATM   12  H   UNL     1      41.571 -10.084   8.872  1.00  0.00     0.170 HD
HETATM   13  H   UNL     1      42.396 -10.543   6.822  1.00  0.00     0.164 HD
BRANCH  10  14
HETATM   14  C   UNL     1      42.683  -9.292  10.424  1.00  0.00     0.059 A 
HETATM   15  C   UNL     1      43.072  -7.967  10.663  1.00  0.00    -0.032 A 
HETATM   16  C   UNL     1      43.294  -6.941   9.587  1.00  0.00     0.050 C 
HETATM   17  C   UNL     1      43.244  -7.557  11.995  1.00  0.00     0.028 A 
HETATM   18  C   UNL     1      42.965  -8.441  13.026  1.00  0.00     0.117 A 
HETATM   19  N   UNL     1      42.522  -9.696  12.829  1.00  0.00    -0.271 NA
HETATM   20  C   UNL     1      42.391 -10.084  11.539  1.00  0.00     0.146 A 
ENDBRANCH  10  14
ENDBRANCH   7   8
ENDBRANCH   1   7
BRANCH   3  21
HETATM   21  N   UNL     1      42.764 -16.770   4.697  1.00  0.00    -0.321 N 
HETATM   22  C   UNL     1      43.241 -17.045   3.427  1.00  0.00     0.279 C 
HETATM   23  O   UNL     1      43.458 -16.210   2.553  1.00  0.00    -0.265 OA
HETATM   24  H   UNL     1      42.722 -17.573   5.315  1.00  0.00     0.169 HD
BRANCH  22  25
HETATM   25  C   UNL     1      43.480 -18.461   3.212  1.00  0.00     0.142 A 
HETATM   26  O   UNL     1      43.944 -19.235   4.246  1.00  0.00    -0.317 OA
HETATM   27  C   UNL     1      44.045 -20.507   3.779  1.00  0.00     0.143 A 
HETATM   28  C   UNL     1      43.668 -20.569   2.459  1.00  0.00     0.027 A 
HETATM   29  C   UNL     1      43.305 -19.251   2.090  1.00  0.00     0.045 A 
ENDBRANCH  22  25
ENDBRANCH   3  21
TORSDOF 5
ENDMDL
MODEL 8
REMARK VINA RESULT:      -7.6      2.885      5.949
REMARK  5 active torsions:
REMARK  status: ('A' for Active; 'I' for Inactive)
REMARK    1  A    between atoms: C_3  and  N_4 
REMARK       I    between atoms: N_4  and  C_5 
REMARK       I    between atoms: C_5  and  N_6 
REMARK    2  A    between atoms: N_6  and  C_7 
REMARK    3  A    between atoms: C_7  and  C_8 
REMARK    4  A    between atoms: C_10  and  N_11 
REMARK       I    between atoms: N_11  and  C_12 
REMARK    5  A    between atoms: C_12  and  C_13 
ROOT
HETATM    1  C   UNL     1      41.814 -14.950   4.649  1.00  0.00    -0.038 A 
HETATM    2  C   UNL     1      42.114 -13.868   5.495  1.00  0.00     0.038 A 
HETATM    3  C   UNL     1      43.204 -13.918   6.368  1.00  0.00     0.035 A 
HETATM    4  C   UNL     1      43.988 -15.077   6.406  1.00  0.00     0.029 A 
HETATM    5  C   UNL     1      43.682 -16.169   5.590  1.00  0.00     0.003 A 
HETATM    6  C   UNL     1      42.599 -16.107   4.714  1.00  0.00     0.009 A 
ENDROOT
BRANCH   1   7
HETATM    7  C   UNL     1      40.677 -14.851   3.665  1.00  0.00     0.163 C 
BRANCH   7   8
HETATM    8  N   UNL     1      41.143 -14.619   2.317  1.00  0.00    -0.339 N 
HETATM    9  C   UNL     1      40.481 -13.764   1.467  1.00  0.00     0.321 C 
HETATM   10  N   UNL     1      41.034 -13.817   0.204  1.00  0.00    -0.307 N 
HETATM   11  O   UNL     1      39.493 -13.122   1.799  1.00  0.00    -0.247 OA
HETATM   12  H   UNL     1      41.412 -14.734   0.004  1.00  0.00     0.170 HD
HETATM   13  H   UNL     1      42.127 -14.766   2.144  1.00  0.00     0.164 HD
BRANCH  10  14
HETATM   14  C   UNL     1      40.558 -13.090  -0.914  1.00  0.00     0.059 A 
HETATM   15  C   UNL     1      39.697 -13.588  -1.901  1.00  0.00    -0.032 A 
HETATM   16  C   UNL     1      39.074 -14.954  -1.872  1.00  0.00     0.050 C 
HETATM   17  C   UNL     1      39.370 -12.749  -2.979  1.00  0.00     0.028 A 
HETATM   18  C   UNL     1      39.849 -11.448  -3.006  1.00  0.00     0.117 A 
HETATM   19  N   UNL     1      40.620 -10.920  -2.038  1.00  0.00    -0.271 NA
HETATM   20  C   UNL     1      40.949 -11.751  -1.021  1.00  0.00     0.146 A 
ENDBRANCH  10  14
ENDBRANCH   7   8
ENDBRANCH   1   7
BRANCH   3  21
HETATM   21  N   UNL     1      43.592 -12.848   7.195  1.00  0.00    -0.321 N 
HETATM   22  C   UNL     1      44.462 -11.811   6.904  1.00  0.00     0.279 C 
HETATM   23  O   UNL     1      44.969 -11.596   5.808  1.00  0.00    -0.265 OA
HETATM   24  H   UNL     1      43.206 -12.826   8.133  1.00  0.00     0.169 HD
BRANCH  22  25
HETATM   25  C   UNL     1      44.724 -10.961   8.052  1.00  0.00     0.142 A 
HETATM   26  O   UNL     1      44.079 -11.205   9.239  1.00  0.00    -0.317 OA
HETATM   27  C   UNL     1      44.532 -10.290  10.135  1.00  0.00     0.143 A 
HETATM   28  C   UNL     1      45.448  -9.451   9.548  1.00  0.00     0.027 A 
HETATM   29  C   UNL     1      45.572  -9.879   8.205  1.00  0.00     0.045 A 
ENDBRANCH  22  25
ENDBRANCH   3  21
TORSDOF 5
ENDMDL
MODEL 9
REMARK VINA RESULT:      -7.4      3.887      9.238
REMARK  5 active torsions:
REMARK  status: ('A' for Active; 'I' for Inactive)
REMARK    1  A    between atoms: C_3  and  N_4 
REMARK       I    between atoms: N_4  and  C_5 
REMARK       I    between atoms: C_5  and  N_6 
REMARK    2  A    between atoms: N_6  and  C_7 
REMARK    3  A    between atoms: C_7  and  C_8 
REMARK    4  A    between atoms: C_10  and  N_11 
REMARK       I    between atoms: N_11  and  C_12 
REMARK    5  A    between atoms: C_12  and  C_13 
ROOT
HETATM    1  C   UNL     1      40.922 -13.229   4.497  1.00  0.00    -0.038 A 
HETATM    2  C   UNL     1      41.126 -14.606   4.301  1.00  0.00     0.038 A 
HETATM    3  C   UNL     1      42.156 -15.072   3.480  1.00  0.00     0.035 A 
HETATM    4  C   UNL     1      42.977 -14.142   2.832  1.00  0.00     0.029 A 
HETATM    5  C   UNL     1      42.766 -12.771   2.997  1.00  0.00     0.003 A 
HETATM    6  C   UNL     1      41.743 -12.315   3.826  1.00  0.00     0.009 A 
ENDROOT
BRANCH   1   7
HETATM    7  C   UNL     1      39.850 -12.747   5.439  1.00  0.00     0.163 C 
BRANCH   7   8
HETATM    8  N   UNL     1      40.366 -11.819   6.420  1.00  0.00    -0.339 N 
HETATM    9  C   UNL     1      39.528 -11.001   7.143  1.00  0.00     0.321 C 
HETATM   10  N   UNL     1      40.261 -10.116   7.907  1.00  0.00    -0.307 N 
HETATM   11  O   UNL     1      38.309 -11.031   7.037  1.00  0.00    -0.247 OA
HETATM   12  H   UNL     1      41.137  -9.880   7.460  1.00  0.00     0.170 HD
HETATM   13  H   UNL     1      41.257 -12.046   6.837  1.00  0.00     0.164 HD
BRANCH  10  14
HETATM   14  C   UNL     1      39.701  -9.112   8.733  1.00  0.00     0.059 A 
HETATM   15  C   UNL     1      39.219  -7.872   8.293  1.00  0.00    -0.032 A 
HETATM   16  C   UNL     1      39.143  -7.454   6.852  1.00  0.00     0.050 C 
HETATM   17  C   UNL     1      38.751  -6.963   9.257  1.00  0.00     0.028 A 
HETATM   18  C   UNL     1      38.718  -7.336  10.592  1.00  0.00     0.117 A 
HETATM   19  N   UNL     1      39.107  -8.545  11.036  1.00  0.00    -0.271 NA
HETATM   20  C   UNL     1      39.583  -9.397  10.098  1.00  0.00     0.146 A 
ENDBRANCH  10  14
ENDBRANCH   7   8
ENDBRANCH   1   7
BRANCH   3  21
HETATM   21  N   UNL     1      42.449 -16.435   3.291  1.00  0.00    -0.321 N 
HETATM   22  C   UNL     1      43.412 -17.201   3.926  1.00  0.00     0.279 C 
HETATM   23  O   UNL     1      44.116 -16.826   4.859  1.00  0.00    -0.265 OA
HETATM   24  H   UNL     1      41.905 -16.932   2.594  1.00  0.00     0.169 HD
BRANCH  22  25
HETATM   25  C   UNL     1      43.512 -18.542   3.378  1.00  0.00     0.142 A 
HETATM   26  O   UNL     1      43.941 -19.572   4.178  1.00  0.00    -0.317 OA
HETATM   27  C   UNL     1      43.908 -20.702   3.426  1.00  0.00     0.143 A 
HETATM   28  C   UNL     1      43.478 -20.422   2.151  1.00  0.00     0.027 A 
HETATM   29  C   UNL     1      43.225 -19.030   2.116  1.00  0.00     0.045 A 
ENDBRANCH  22  25
ENDBRANCH   3  21
TORSDOF 5
ENDMDL
MODEL 10
REMARK VINA RESULT:      -7.2      4.720      8.863
REMARK  5 active torsions:
REMARK  status: ('A' for Active; 'I' for Inactive)
REMARK    1  A    between atoms: C_3  and  N_4 
REMARK       I    between atoms: N_4  and  C_5 
REMARK       I    between atoms: C_5  and  N_6 
REMARK    2  A    between atoms: N_6  and  C_7 
REMARK    3  A    between atoms: C_7  and  C_8 
REMARK    4  A    between atoms: C_10  and  N_11 
REMARK       I    between atoms: N_11  and  C_12 
REMARK    5  A    between atoms: C_12  and  C_13 
ROOT
HETATM    1  C   UNL     1      39.840 -13.885   0.389  1.00  0.00    -0.038 A 
HETATM    2  C   UNL     1      40.586 -15.043   0.674  1.00  0.00     0.038 A 
HETATM    3  C   UNL     1      40.828 -15.438   1.992  1.00  0.00     0.035 A 
HETATM    4  C   UNL     1      40.331 -14.649   3.036  1.00  0.00     0.029 A 
HETATM    5  C   UNL     1      39.613 -13.482   2.766  1.00  0.00     0.003 A 
HETATM    6  C   UNL     1      39.368 -13.100   1.448  1.00  0.00     0.009 A 
ENDROOT
BRANCH   1   7
HETATM    7  C   UNL     1      39.531 -13.512  -1.037  1.00  0.00     0.163 C 
BRANCH   7   8
HETATM    8  N   UNL     1      39.498 -12.081  -1.229  1.00  0.00    -0.339 N 
HETATM    9  C   UNL     1      40.598 -11.393  -1.687  1.00  0.00     0.321 C 
HETATM   10  N   UNL     1      40.364 -10.033  -1.654  1.00  0.00    -0.307 N 
HETATM   11  O   UNL     1      41.649 -11.940  -1.995  1.00  0.00    -0.247 OA
HETATM   12  H   UNL     1      39.735  -9.784  -0.902  1.00  0.00     0.170 HD
HETATM   13  H   UNL     1      38.594 -11.666  -1.403  1.00  0.00     0.164 HD
BRANCH  10  14
HETATM   14  C   UNL     1      41.309  -9.045  -2.020  1.00  0.00     0.059 A 
HETATM   15  C   UNL     1      41.409  -8.442  -3.281  1.00  0.00    -0.032 A 
HETATM   16  C   UNL     1      40.460  -8.694  -4.418  1.00  0.00     0.050 C 
HETATM   17  C   UNL     1      42.448  -7.521  -3.495  1.00  0.00     0.028 A 
HETATM   18  C   UNL     1      43.296  -7.189  -2.449  1.00  0.00     0.117 A 
HETATM   19  N   UNL     1      43.181  -7.698  -1.209  1.00  0.00    -0.271 NA
HETATM   20  C   UNL     1      42.193  -8.606  -1.028  1.00  0.00     0.146 A 
ENDBRANCH  10  14
ENDBRANCH   7   8
ENDBRANCH   1   7
BRANCH   3  21
HETATM   21  N   UNL     1      41.514 -16.616   2.341  1.00  0.00    -0.321 N 
HETATM   22  C   UNL     1      42.800 -16.743   2.838  1.00  0.00     0.279 C 
HETATM   23  O   UNL     1      43.532 -15.813   3.160  1.00  0.00    -0.265 OA
HETATM   24  H   UNL     1      41.024 -17.494   2.205  1.00  0.00     0.169 HD
BRANCH  22  25
HETATM   25  C   UNL     1      43.219 -18.129   2.959  1.00  0.00     0.142 A 
HETATM   26  O   UNL     1      43.852 -18.548   4.102  1.00  0.00    -0.317 OA
HETATM   27  C   UNL     1      44.098 -19.876   3.958  1.00  0.00     0.143 A 
HETATM   28  C   UNL     1      43.647 -20.322   2.739  1.00  0.00     0.027 A 
HETATM   29  C   UNL     1      43.081 -19.197   2.092  1.00  0.00     0.045 A 
ENDBRANCH  22  25
ENDBRANCH   3  21
TORSDOF 5
ENDMDL
