MODEL 1
REMARK VINA RESULT:      -8.9      0.000      0.000
REMARK  9 active torsions:
REMARK  status: ('A' for Active; 'I' for Inactive)
REMARK       I    between atoms: C_2  and  N_3 
REMARK    1  A    between atoms: N_3  and  C_4 
REMARK    2  A    between atoms: C_6  and  O_7 
REMARK    3  A    between atoms: O_7  and  C_8 
REMARK    4  A    between atoms: C_8  and  C_9 
REMARK    5  A    between atoms: C_9  and  C_10 
REMARK    6  A    between atoms: C_10  and  C_11 
REMARK    7  A    between atoms: C_11  and  N_12 
REMARK       I    between atoms: N_12  and  C_13 
REMARK    8  A    between atoms: C_13  and  C_14 
REMARK    9  A    between atoms: C_18  and  C_19 
ROOT
HETATM    1  N   UNL     1      43.534 -11.588   7.892  1.00  0.00    -0.345 N 
HETATM    2  C   UNL     1      44.315 -10.927   8.805  1.00  0.00     0.270 C 
HETATM    3  O   UNL     1      45.540 -10.911   8.739  1.00  0.00    -0.266 OA
HETATM    4  H   UNL     1      42.532 -11.485   7.917  1.00  0.00     0.163 HD
ENDROOT
BRANCH   1   5
HETATM    5  C   UNL     1      44.121 -12.248   6.757  1.00  0.00     0.217 C 
BRANCH   5   6
HETATM    6  C   UNL     1      43.791 -13.730   6.826  1.00  0.00    -0.085 C 
BRANCH   6   7
HETATM    7  C   UNL     1      43.508 -15.002   6.885  1.00  0.00    -0.078 C 
BRANCH   7   8
HETATM    8  C   UNL     1      43.178 -16.484   6.953  1.00  0.00     0.269 C 
BRANCH   8   9
HETATM    9  O   UNL     1      44.098 -17.226   6.159  1.00  0.00    -0.339 OA
BRANCH   9  10
HETATM   10  C   UNL     1      43.685 -17.519   4.882  1.00  0.00     0.072 A 
HETATM   11  C   UNL     1      42.671 -16.859   4.176  1.00  0.00     0.066 A 
HETATM   12  C   UNL     1      42.350 -17.229   2.866  1.00  0.00     0.037 A 
HETATM   13  C   UNL     1      43.046 -18.288   2.272  1.00  0.00     0.029 A 
HETATM   14  C   UNL     1      44.051 -18.957   2.972  1.00  0.00     0.005 A 
HETATM   15  C   UNL     1      44.370 -18.570   4.272  1.00  0.00     0.037 A 
BRANCH  12  16
HETATM   16  N   UNL     1      41.357 -16.591   2.091  1.00  0.00    -0.327 N 
HETATM   17  C   UNL     1      41.434 -15.354   1.473  1.00  0.00     0.218 C 
HETATM   18  C   UNL     1      40.178 -15.011   0.712  1.00  0.00     0.117 C 
HETATM   19  O   UNL     1      42.393 -14.589   1.471  1.00  0.00    -0.274 OA
HETATM   20  H   UNL     1      40.502 -17.114   1.954  1.00  0.00     0.169 HD
ENDBRANCH  12  16
ENDBRANCH   9  10
ENDBRANCH   8   9
ENDBRANCH   7   8
ENDBRANCH   6   7
ENDBRANCH   5   6
ENDBRANCH   1   5
BRANCH   2  21
HETATM   21  C   UNL     1      43.596 -10.242   9.845  1.00  0.00     0.120 A 
HETATM   22  N   UNL     1      42.291  -9.868   9.684  1.00  0.00    -0.272 N 
HETATM   23  H   UNL     1      41.712 -10.018   8.863  1.00  0.00     0.189 HD
HETATM   24  N   UNL     1      41.763  -9.241  10.746  1.00  0.00    -0.174 NA
HETATM   25  C   UNL     1      42.757  -9.199  11.648  1.00  0.00     0.089 A 
HETATM   26  C   UNL     1      43.927  -9.811  11.113  1.00  0.00     0.071 A 
BRANCH  25  27
HETATM   27  C   UNL     1      42.572  -8.587  12.968  1.00  0.00    -0.005 A 
HETATM   28  C   UNL     1      41.632  -9.096  13.882  1.00  0.00     0.017 A 
HETATM   29  C   UNL     1      41.465  -8.502  15.137  1.00  0.00     0.043 A 
HETATM   30  C   UNL     1      42.234  -7.399  15.483  1.00  0.00     0.116 A 
HETATM   31  F   UNL     1      42.070  -6.832  16.686  1.00  0.00    -0.206 F 
HETATM   32  C   UNL     1      43.167  -6.875  14.600  1.00  0.00     0.043 A 
HETATM   33  C   UNL     1      43.335  -7.466  13.346  1.00  0.00     0.017 A 
ENDBRANCH  25  27
ENDBRANCH   2  21
TORSDOF 9
ENDMDL
MODEL 2
REMARK VINA RESULT:      -8.5      1.688      2.750
REMARK  9 active torsions:
REMARK  status: ('A' for Active; 'I' for Inactive)
REMARK       I    between atoms: C_2  and  N_3 
REMARK    1  A    between atoms: N_3  and  C_4 
REMARK    2  A    between atoms: C_6  and  O_7 
REMARK    3  A    between atoms: O_7  and  C_8 
REMARK    4  A    between atoms: C_8  and  C_9 
REMARK    5  A    between atoms: C_9  and  C_10 
REMARK    6  A    between atoms: C_10  and  C_11 
REMARK    7  A    between atoms: C_11  and  N_12 
REMARK       I    between atoms: N_12  and  C_13 
REMARK    8  A    between atoms: C_13  and  C_14 
REMARK    9  A    between atoms: C_18  and  C_19 
ROOT
HETATM    1  N   UNL     1      43.779 -10.304   8.895  1.00  0.00    -0.345 N 
HETATM    2  C   UNL     1      44.333 -10.323  10.150  1.00  0.00     0.270 C 
HETATM    3  O   UNL     1      45.468 -10.732  10.366  1.00  0.00    -0.266 OA
HETATM    4  H   UNL     1      42.889  -9.858   8.743  1.00  0.00     0.163 HD
ENDROOT
BRANCH   1   5
HETATM    5  C   UNL     1      44.543 -10.706   7.744  1.00  0.00     0.217 C 
BRANCH   5   6
HETATM    6  C   UNL     1      44.061 -12.075   7.290  1.00  0.00    -0.085 C 
BRANCH   6   7
HETATM    7  C   UNL     1      43.647 -13.248   6.900  1.00  0.00    -0.078 C 
BRANCH   7   8
HETATM    8  C   UNL     1      43.164 -14.616   6.445  1.00  0.00     0.269 C 
BRANCH   8   9
HETATM    9  O   UNL     1      42.218 -14.474   5.391  1.00  0.00    -0.339 OA
BRANCH   9  10
HETATM   10  C   UNL     1      42.588 -15.004   4.179  1.00  0.00     0.072 A 
HETATM   11  C   UNL     1      42.630 -16.367   3.859  1.00  0.00     0.066 A 
HETATM   12  C   UNL     1      43.002 -16.794   2.580  1.00  0.00     0.037 A 
HETATM   13  C   UNL     1      43.354 -15.835   1.623  1.00  0.00     0.029 A 
HETATM   14  C   UNL     1      43.325 -14.476   1.936  1.00  0.00     0.005 A 
HETATM   15  C   UNL     1      42.940 -14.064   3.211  1.00  0.00     0.037 A 
BRANCH  12  16
HETATM   16  N   UNL     1      43.041 -18.149   2.185  1.00  0.00    -0.327 N 
HETATM   17  C   UNL     1      43.799 -19.167   2.737  1.00  0.00     0.218 C 
HETATM   18  C   UNL     1      43.561 -20.495   2.061  1.00  0.00     0.117 C 
HETATM   19  O   UNL     1      44.567 -19.082   3.689  1.00  0.00    -0.274 OA
HETATM   20  H   UNL     1      42.422 -18.404   1.425  1.00  0.00     0.169 HD
ENDBRANCH  12  16
ENDBRANCH   9  10
ENDBRANCH   8   9
ENDBRANCH   7   8
ENDBRANCH   6   7
ENDBRANCH   5   6
ENDBRANCH   1   5
BRANCH   2  21
HETATM   21  C   UNL     1      43.489  -9.817  11.199  1.00  0.00     0.120 A 
HETATM   22  N   UNL     1      42.317 -10.436  11.533  1.00  0.00    -0.272 N 
HETATM   23  H   UNL     1      41.927 -11.271  11.107  1.00  0.00     0.189 HD
HETATM   24  N   UNL     1      41.647  -9.842  12.532  1.00  0.00    -0.174 NA
HETATM   25  C   UNL     1      42.406  -8.788  12.875  1.00  0.00     0.089 A 
HETATM   26  C   UNL     1      43.567  -8.736  12.053  1.00  0.00     0.071 A 
BRANCH  25  27
HETATM   27  C   UNL     1      42.012  -7.875  13.954  1.00  0.00    -0.005 A 
HETATM   28  C   UNL     1      41.613  -8.362  15.211  1.00  0.00     0.017 A 
HETATM   29  C   UNL     1      41.238  -7.481  16.230  1.00  0.00     0.043 A 
HETATM   30  C   UNL     1      41.260  -6.111  15.998  1.00  0.00     0.116 A 
HETATM   31  F   UNL     1      40.900  -5.270  16.976  1.00  0.00    -0.206 F 
HETATM   32  C   UNL     1      41.648  -5.604  14.765  1.00  0.00     0.043 A 
HETATM   33  C   UNL     1      42.022  -6.483  13.746  1.00  0.00     0.017 A 
ENDBRANCH  25  27
ENDBRANCH   2  21
TORSDOF 9
ENDMDL
MODEL 3
REMARK VINA RESULT:      -8.5      1.661      3.208
REMARK  9 active torsions:
REMARK  status: ('A' for Active; 'I' for Inactive)
REMARK       I    between atoms: C_2  and  N_3 
REMARK    1  A    between atoms: N_3  and  C_4 
REMARK    2  A    between atoms: C_6  and  O_7 
REMARK    3  A    between atoms: O_7  and  C_8 
REMARK    4  A    between atoms: C_8  and  C_9 
REMARK    5  A    between atoms: C_9  and  C_10 
REMARK    6  A    between atoms: C_10  and  C_11 
REMARK    7  A    between atoms: C_11  and  N_12 
REMARK       I    between atoms: N_12  and  C_13 
REMARK    8  A    between atoms: C_13  and  C_14 
REMARK    9  A    between atoms: C_18  and  C_19 
ROOT
HETATM    1  N   UNL     1      44.930 -11.047   7.944  1.00  0.00    -0.345 N 
HETATM    2  C   UNL     1      45.046  -9.822   8.552  1.00  0.00     0.270 C 
HETATM    3  O   UNL     1      45.849  -8.973   8.180  1.00  0.00    -0.266 OA
HETATM    4  H   UNL     1      44.185 -11.672   8.208  1.00  0.00     0.163 HD
ENDROOT
BRANCH   1   5
HETATM    5  C   UNL     1      45.709 -11.370   6.779  1.00  0.00     0.217 C 
BRANCH   5   6
HETATM    6  C   UNL     1      44.782 -11.452   5.577  1.00  0.00    -0.085 C 
BRANCH   6   7
HETATM    7  C   UNL     1      43.987 -11.522   4.546  1.00  0.00    -0.078 C 
BRANCH   7   8
HETATM    8  C   UNL     1      43.060 -11.604   3.344  1.00  0.00     0.269 C 
BRANCH   8   9
HETATM    9  O   UNL     1      42.084 -12.620   3.548  1.00  0.00    -0.339 OA
BRANCH   9  10
HETATM   10  C   UNL     1      42.499 -13.906   3.303  1.00  0.00     0.072 A 
HETATM   11  C   UNL     1      42.492 -14.960   4.226  1.00  0.00     0.066 A 
HETATM   12  C   UNL     1      42.918 -16.240   3.858  1.00  0.00     0.037 A 
HETATM   13  C   UNL     1      43.372 -16.452   2.551  1.00  0.00     0.029 A 
HETATM   14  C   UNL     1      43.391 -15.406   1.628  1.00  0.00     0.005 A 
HETATM   15  C   UNL     1      42.952 -14.138   2.005  1.00  0.00     0.037 A 
BRANCH  12  16
HETATM   16  N   UNL     1      42.914 -17.350   4.731  1.00  0.00    -0.327 N 
HETATM   17  C   UNL     1      43.753 -17.579   5.808  1.00  0.00     0.218 C 
HETATM   18  C   UNL     1      43.435 -18.869   6.523  1.00  0.00     0.117 C 
HETATM   19  O   UNL     1      44.648 -16.846   6.215  1.00  0.00    -0.274 OA
HETATM   20  H   UNL     1      42.196 -18.043   4.560  1.00  0.00     0.169 HD
ENDBRANCH  12  16
ENDBRANCH   9  10
ENDBRANCH   8   9
ENDBRANCH   7   8
ENDBRANCH   6   7
ENDBRANCH   5   6
ENDBRANCH   1   5
BRANCH   2  21
HETATM   21  C   UNL     1      44.152  -9.599   9.656  1.00  0.00     0.120 A 
HETATM   22  N   UNL     1      42.858 -10.038   9.627  1.00  0.00    -0.272 N 
HETATM   23  H   UNL     1      42.403 -10.540   8.870  1.00  0.00     0.189 HD
HETATM   24  N   UNL     1      42.155  -9.753  10.732  1.00  0.00    -0.174 NA
HETATM   25  C   UNL     1      43.018  -9.100  11.528  1.00  0.00     0.089 A 
HETATM   26  C   UNL     1      44.280  -8.978  10.881  1.00  0.00     0.071 A 
BRANCH  25  27
HETATM   27  C   UNL     1      42.624  -8.618  12.857  1.00  0.00    -0.005 A 
HETATM   28  C   UNL     1      41.558  -9.205  13.559  1.00  0.00     0.017 A 
HETATM   29  C   UNL     1      41.192  -8.734  14.824  1.00  0.00     0.043 A 
HETATM   30  C   UNL     1      41.890  -7.676  15.392  1.00  0.00     0.116 A 
HETATM   31  F   UNL     1      41.537  -7.227  16.604  1.00  0.00    -0.206 F 
HETATM   32  C   UNL     1      42.947  -7.077  14.719  1.00  0.00     0.043 A 
HETATM   33  C   UNL     1      43.311  -7.545  13.456  1.00  0.00     0.017 A 
ENDBRANCH  25  27
ENDBRANCH   2  21
TORSDOF 9
ENDMDL
MODEL 4
REMARK VINA RESULT:      -8.4      4.630     11.618
REMARK  9 active torsions:
REMARK  status: ('A' for Active; 'I' for Inactive)
REMARK       I    between atoms: C_2  and  N_3 
REMARK    1  A    between atoms: N_3  and  C_4 
REMARK    2  A    between atoms: C_6  and  O_7 
REMARK    3  A    between atoms: O_7  and  C_8 
REMARK    4  A    between atoms: C_8  and  C_9 
REMARK    5  A    between atoms: C_9  and  C_10 
REMARK    6  A    between atoms: C_10  and  C_11 
REMARK    7  A    between atoms: C_11  and  N_12 
REMARK       I    between atoms: N_12  and  C_13 
REMARK    8  A    between atoms: C_13  and  C_14 
REMARK    9  A    between atoms: C_18  and  C_19 
ROOT
HETATM    1  N   UNL     1      42.833 -12.662   4.628  1.00  0.00    -0.345 N 
HETATM    2  C   UNL     1      42.919 -12.917   3.283  1.00  0.00     0.270 C 
HETATM    3  O   UNL     1      42.885 -12.029   2.438  1.00  0.00    -0.266 OA
HETATM    4  H   UNL     1      42.976 -13.405   5.293  1.00  0.00     0.163 HD
ENDROOT
BRANCH   1   5
HETATM    5  C   UNL     1      42.766 -11.312   5.121  1.00  0.00     0.217 C 
BRANCH   5   6
HETATM    6  C   UNL     1      43.992 -11.043   5.979  1.00  0.00    -0.085 C 
BRANCH   6   7
HETATM    7  C   UNL     1      45.043 -10.811   6.716  1.00  0.00    -0.078 C 
BRANCH   7   8
HETATM    8  C   UNL     1      46.268 -10.542   7.574  1.00  0.00     0.269 C 
BRANCH   8   9
HETATM    9  O   UNL     1      46.257  -9.192   8.030  1.00  0.00    -0.339 OA
BRANCH   9  10
HETATM   10  C   UNL     1      45.276  -8.875   8.937  1.00  0.00     0.072 A 
HETATM   11  C   UNL     1      44.304  -7.879   8.779  1.00  0.00     0.066 A 
HETATM   12  C   UNL     1      43.335  -7.659   9.763  1.00  0.00     0.037 A 
HETATM   13  C   UNL     1      43.360  -8.439  10.924  1.00  0.00     0.029 A 
HETATM   14  C   UNL     1      44.330  -9.428  11.094  1.00  0.00     0.005 A 
HETATM   15  C   UNL     1      45.283  -9.645  10.100  1.00  0.00     0.037 A 
BRANCH  12  16
HETATM   16  N   UNL     1      42.314  -6.689   9.656  1.00  0.00    -0.327 N 
HETATM   17  C   UNL     1      40.948  -6.903   9.602  1.00  0.00     0.218 C 
HETATM   18  C   UNL     1      40.165  -5.617   9.510  1.00  0.00     0.117 C 
HETATM   19  O   UNL     1      40.368  -7.983   9.654  1.00  0.00    -0.274 OA
HETATM   20  H   UNL     1      42.623  -5.724   9.644  1.00  0.00     0.169 HD
ENDBRANCH  12  16
ENDBRANCH   9  10
ENDBRANCH   8   9
ENDBRANCH   7   8
ENDBRANCH   6   7
ENDBRANCH   5   6
ENDBRANCH   1   5
BRANCH   2  21
HETATM   21  C   UNL     1      43.062 -14.304   2.932  1.00  0.00     0.120 A 
HETATM   22  N   UNL     1      43.063 -14.715   1.628  1.00  0.00    -0.272 N 
HETATM   23  H   UNL     1      42.967 -14.127   0.806  1.00  0.00     0.189 HD
HETATM   24  N   UNL     1      43.207 -16.039   1.469  1.00  0.00    -0.174 NA
HETATM   25  C   UNL     1      43.308 -16.526   2.716  1.00  0.00     0.089 A 
HETATM   26  C   UNL     1      43.213 -15.466   3.662  1.00  0.00     0.071 A 
BRANCH  25  27
HETATM   27  C   UNL     1      43.487 -17.960   2.970  1.00  0.00    -0.005 A 
HETATM   28  C   UNL     1      43.139 -18.919   2.003  1.00  0.00     0.017 A 
HETATM   29  C   UNL     1      43.312 -20.283   2.259  1.00  0.00     0.043 A 
HETATM   30  C   UNL     1      43.833 -20.693   3.479  1.00  0.00     0.116 A 
HETATM   31  F   UNL     1      43.998 -22.001   3.720  1.00  0.00    -0.206 F 
HETATM   32  C   UNL     1      44.183 -19.767   4.452  1.00  0.00     0.043 A 
HETATM   33  C   UNL     1      44.009 -18.405   4.198  1.00  0.00     0.017 A 
ENDBRANCH  25  27
ENDBRANCH   2  21
TORSDOF 9
ENDMDL
MODEL 5
REMARK VINA RESULT:      -8.2      6.186     10.707
REMARK  9 active torsions:
REMARK  status: ('A' for Active; 'I' for Inactive)
REMARK       I    between atoms: C_2  and  N_3 
REMARK    1  A    between atoms: N_3  and  C_4 
REMARK    2  A    between atoms: C_6  and  O_7 
REMARK    3  A    between atoms: O_7  and  C_8 
REMARK    4  A    between atoms: C_8  and  C_9 
REMARK    5  A    between atoms: C_9  and  C_10 
REMARK    6  A    between atoms: C_10  and  C_11 
REMARK    7  A    between atoms: C_11  and  N_12 
REMARK       I    between atoms: N_12  and  C_13 
REMARK    8  A    between atoms: C_13  and  C_14 
REMARK    9  A    between atoms: C_18  and  C_19 
ROOT
HETATM    1  N   UNL     1      40.046 -13.306   1.748  1.00  0.00    -0.345 N 
HETATM    2  C   UNL     1      40.339 -14.331   0.884  1.00  0.00     0.270 C 
HETATM    3  O   UNL     1      39.793 -14.452  -0.207  1.00  0.00    -0.266 OA
HETATM    4  H   UNL     1      40.594 -13.179   2.584  1.00  0.00     0.163 HD
ENDROOT
BRANCH   1   5
HETATM    5  C   UNL     1      39.120 -12.269   1.378  1.00  0.00     0.217 C 
BRANCH   5   6
HETATM    6  C   UNL     1      38.875 -11.378   2.584  1.00  0.00    -0.085 C 
BRANCH   6   7
HETATM    7  C   UNL     1      38.665 -10.612   3.619  1.00  0.00    -0.078 C 
BRANCH   7   8
HETATM    8  C   UNL     1      38.420  -9.720   4.825  1.00  0.00     0.269 C 
BRANCH   8   9
HETATM    9  O   UNL     1      39.662  -9.307   5.387  1.00  0.00    -0.339 OA
BRANCH   9  10
HETATM   10  C   UNL     1      40.683 -10.224   5.320  1.00  0.00     0.072 A 
HETATM   11  C   UNL     1      40.742 -11.437   6.019  1.00  0.00     0.066 A 
HETATM   12  C   UNL     1      41.824 -12.308   5.854  1.00  0.00     0.037 A 
HETATM   13  C   UNL     1      42.864 -11.941   4.992  1.00  0.00     0.029 A 
HETATM   14  C   UNL     1      42.817 -10.730   4.300  1.00  0.00     0.005 A 
HETATM   15  C   UNL     1      41.727  -9.877   4.463  1.00  0.00     0.037 A 
BRANCH  12  16
HETATM   16  N   UNL     1      41.935 -13.554   6.509  1.00  0.00    -0.327 N 
HETATM   17  C   UNL     1      41.367 -14.759   6.131  1.00  0.00     0.218 C 
HETATM   18  C   UNL     1      41.725 -15.885   7.070  1.00  0.00     0.117 C 
HETATM   19  O   UNL     1      40.673 -14.969   5.142  1.00  0.00    -0.274 OA
HETATM   20  H   UNL     1      42.519 -13.567   7.335  1.00  0.00     0.169 HD
ENDBRANCH  12  16
ENDBRANCH   9  10
ENDBRANCH   8   9
ENDBRANCH   7   8
ENDBRANCH   6   7
ENDBRANCH   5   6
ENDBRANCH   1   5
BRANCH   2  21
HETATM   21  C   UNL     1      41.342 -15.252   1.345  1.00  0.00     0.120 A 
HETATM   22  N   UNL     1      42.651 -15.127   0.977  1.00  0.00    -0.272 N 
HETATM   23  H   UNL     1      43.047 -14.415   0.370  1.00  0.00     0.189 HD
HETATM   24  N   UNL     1      43.460 -16.064   1.492  1.00  0.00    -0.174 NA
HETATM   25  C   UNL     1      42.655 -16.841   2.235  1.00  0.00     0.089 A 
HETATM   26  C   UNL     1      41.315 -16.366   2.160  1.00  0.00     0.071 A 
BRANCH  25  27
HETATM   27  C   UNL     1      43.173 -17.995   2.980  1.00  0.00    -0.005 A 
HETATM   28  C   UNL     1      43.593 -17.870   4.315  1.00  0.00     0.017 A 
HETATM   29  C   UNL     1      44.086 -18.977   5.013  1.00  0.00     0.043 A 
HETATM   30  C   UNL     1      44.160 -20.211   4.381  1.00  0.00     0.116 A 
HETATM   31  F   UNL     1      44.632 -21.270   5.053  1.00  0.00    -0.206 F 
HETATM   32  C   UNL     1      43.753 -20.362   3.063  1.00  0.00     0.043 A 
HETATM   33  C   UNL     1      43.262 -19.257   2.364  1.00  0.00     0.017 A 
ENDBRANCH  25  27
ENDBRANCH   2  21
TORSDOF 9
ENDMDL
MODEL 6
REMARK VINA RESULT:      -8.1      4.509     10.605
REMARK  9 active torsions:
REMARK  status: ('A' for Active; 'I' for Inactive)
REMARK       I    between atoms: C_2  and  N_3 
REMARK    1  A    between atoms: N_3  and  C_4 
REMARK    2  A    between atoms: C_6  and  O_7 
REMARK    3  A    between atoms: O_7  and  C_8 
REMARK    4  A    between atoms: C_8  and  C_9 
REMARK    5  A    between atoms: C_9  and  C_10 
REMARK    6  A    between atoms: C_10  and  C_11 
REMARK    7  A    between atoms: C_11  and  N_12 
REMARK       I    between atoms: N_12  and  C_13 
REMARK    8  A    between atoms: C_13  and  C_14 
REMARK    9  A    between atoms: C_18  and  C_19 
ROOT
HETATM    1  N   UNL     1      39.792 -11.856   6.666  1.00  0.00    -0.345 N 
HETATM    2  C   UNL     1      39.833 -12.475   5.442  1.00  0.00     0.270 C 
HETATM    3  O   UNL     1      39.099 -12.153   4.514  1.00  0.00    -0.266 OA
HETATM    4  H   UNL     1      40.485 -12.075   7.365  1.00  0.00     0.163 HD
ENDROOT
BRANCH   1   5
HETATM    5  C   UNL     1      38.921 -10.736   6.899  1.00  0.00     0.217 C 
BRANCH   5   6
HETATM    6  C   UNL     1      39.268 -10.115   8.242  1.00  0.00    -0.085 C 
BRANCH   6   7
HETATM    7  C   UNL     1      39.567  -9.582   9.394  1.00  0.00    -0.078 C 
BRANCH   7   8
HETATM    8  C   UNL     1      39.915  -8.960  10.737  1.00  0.00     0.269 C 
BRANCH   8   9
HETATM    9  O   UNL     1      40.970  -8.017  10.579  1.00  0.00    -0.339 OA
BRANCH   9  10
HETATM   10  C   UNL     1      42.226  -8.547  10.415  1.00  0.00     0.072 A 
HETATM   11  C   UNL     1      42.771  -9.009   9.210  1.00  0.00     0.066 A 
HETATM   12  C   UNL     1      44.076  -9.509   9.156  1.00  0.00     0.037 A 
HETATM   13  C   UNL     1      44.829  -9.562  10.334  1.00  0.00     0.029 A 
HETATM   14  C   UNL     1      44.291  -9.113  11.541  1.00  0.00     0.005 A 
HETATM   15  C   UNL     1      42.994  -8.605  11.578  1.00  0.00     0.037 A 
BRANCH  12  16
HETATM   16  N   UNL     1      44.692  -9.968   7.972  1.00  0.00    -0.327 N 
HETATM   17  C   UNL     1      44.658 -11.246   7.442  1.00  0.00     0.218 C 
HETATM   18  C   UNL     1      45.420 -11.354   6.145  1.00  0.00     0.117 C 
HETATM   19  O   UNL     1      44.066 -12.218   7.899  1.00  0.00    -0.274 OA
HETATM   20  H   UNL     1      45.196  -9.269   7.438  1.00  0.00     0.169 HD
ENDBRANCH  12  16
ENDBRANCH   9  10
ENDBRANCH   8   9
ENDBRANCH   7   8
ENDBRANCH   6   7
ENDBRANCH   5   6
ENDBRANCH   1   5
BRANCH   2  21
HETATM   21  C   UNL     1      40.806 -13.527   5.320  1.00  0.00     0.120 A 
HETATM   22  N   UNL     1      41.873 -13.615   6.169  1.00  0.00    -0.272 N 
HETATM   23  H   UNL     1      42.092 -12.988   6.937  1.00  0.00     0.189 HD
HETATM   24  N   UNL     1      42.687 -14.653   5.924  1.00  0.00    -0.174 NA
HETATM   25  C   UNL     1      42.136 -15.279   4.871  1.00  0.00     0.089 A 
HETATM   26  C   UNL     1      40.957 -14.595   4.459  1.00  0.00     0.071 A 
BRANCH  25  27
HETATM   27  C   UNL     1      42.737 -16.487   4.294  1.00  0.00    -0.005 A 
HETATM   28  C   UNL     1      42.464 -16.875   2.971  1.00  0.00     0.017 A 
HETATM   29  C   UNL     1      43.042 -18.030   2.434  1.00  0.00     0.043 A 
HETATM   30  C   UNL     1      43.893 -18.800   3.216  1.00  0.00     0.116 A 
HETATM   31  F   UNL     1      44.445 -19.906   2.698  1.00  0.00    -0.206 F 
HETATM   32  C   UNL     1      44.178 -18.441   4.526  1.00  0.00     0.043 A 
HETATM   33  C   UNL     1      43.601 -17.288   5.063  1.00  0.00     0.017 A 
ENDBRANCH  25  27
ENDBRANCH   2  21
TORSDOF 9
ENDMDL
MODEL 7
REMARK VINA RESULT:      -8.1      4.547     12.506
REMARK  9 active torsions:
REMARK  status: ('A' for Active; 'I' for Inactive)
REMARK       I    between atoms: C_2  and  N_3 
REMARK    1  A    between atoms: N_3  and  C_4 
REMARK    2  A    between atoms: C_6  and  O_7 
REMARK    3  A    between atoms: O_7  and  C_8 
REMARK    4  A    between atoms: C_8  and  C_9 
REMARK    5  A    between atoms: C_9  and  C_10 
REMARK    6  A    between atoms: C_10  and  C_11 
REMARK    7  A    between atoms: C_11  and  N_12 
REMARK       I    between atoms: N_12  and  C_13 
REMARK    8  A    between atoms: C_13  and  C_14 
REMARK    9  A    between atoms: C_18  and  C_19 
ROOT
HETATM    1  N   UNL     1      44.481 -11.580   7.205  1.00  0.00    -0.345 N 
HETATM    2  C   UNL     1      43.225 -11.687   6.664  1.00  0.00     0.270 C 
HETATM    3  O   UNL     1      42.369 -10.819   6.804  1.00  0.00    -0.266 OA
HETATM    4  H   UNL     1      45.189 -12.259   6.975  1.00  0.00     0.163 HD
ENDROOT
BRANCH   1   5
HETATM    5  C   UNL     1      44.882 -10.396   7.916  1.00  0.00     0.217 C 
BRANCH   5   6
HETATM    6  C   UNL     1      44.380 -10.489   9.348  1.00  0.00    -0.085 C 
BRANCH   6   7
HETATM    7  C   UNL     1      43.951 -10.569  10.577  1.00  0.00    -0.078 C 
BRANCH   7   8
HETATM    8  C   UNL     1      43.450 -10.662  12.009  1.00  0.00     0.269 C 
BRANCH   8   9
HETATM    9  O   UNL     1      42.262  -9.892  12.162  1.00  0.00    -0.339 OA
BRANCH   9  10
HETATM   10  C   UNL     1      42.263  -8.992  13.199  1.00  0.00     0.072 A 
HETATM   11  C   UNL     1      41.416  -9.026  14.315  1.00  0.00     0.066 A 
HETATM   12  C   UNL     1      41.522  -8.067  15.327  1.00  0.00     0.037 A 
HETATM   13  C   UNL     1      42.479  -7.053  15.201  1.00  0.00     0.029 A 
HETATM   14  C   UNL     1      43.320  -7.006  14.089  1.00  0.00     0.005 A 
HETATM   15  C   UNL     1      43.212  -7.976  13.093  1.00  0.00     0.037 A 
BRANCH  12  16
HETATM   16  N   UNL     1      40.718  -8.058  16.488  1.00  0.00    -0.327 N 
HETATM   17  C   UNL     1      41.109  -7.773  17.785  1.00  0.00     0.218 C 
HETATM   18  C   UNL     1      39.963  -7.843  18.762  1.00  0.00     0.117 C 
HETATM   19  O   UNL     1      42.233  -7.457  18.163  1.00  0.00    -0.274 OA
HETATM   20  H   UNL     1      39.736  -8.259  16.344  1.00  0.00     0.169 HD
ENDBRANCH  12  16
ENDBRANCH   9  10
ENDBRANCH   8   9
ENDBRANCH   7   8
ENDBRANCH   6   7
ENDBRANCH   5   6
ENDBRANCH   1   5
BRANCH   2  21
HETATM   21  C   UNL     1      42.983 -12.887   5.910  1.00  0.00     0.120 A 
HETATM   22  N   UNL     1      41.810 -13.085   5.238  1.00  0.00    -0.272 N 
HETATM   23  H   UNL     1      41.019 -12.449   5.196  1.00  0.00     0.189 HD
HETATM   24  N   UNL     1      41.741 -14.252   4.583  1.00  0.00    -0.174 NA
HETATM   25  C   UNL     1      42.917 -14.853   4.827  1.00  0.00     0.089 A 
HETATM   26  C   UNL     1      43.720 -14.028   5.666  1.00  0.00     0.071 A 
BRANCH  25  27
HETATM   27  C   UNL     1      43.238 -16.172   4.271  1.00  0.00    -0.005 A 
HETATM   28  C   UNL     1      42.793 -16.550   2.992  1.00  0.00     0.017 A 
HETATM   29  C   UNL     1      43.105 -17.811   2.474  1.00  0.00     0.043 A 
HETATM   30  C   UNL     1      43.861 -18.698   3.230  1.00  0.00     0.116 A 
HETATM   31  F   UNL     1      44.157 -19.905   2.730  1.00  0.00    -0.206 F 
HETATM   32  C   UNL     1      44.311 -18.350   4.496  1.00  0.00     0.043 A 
HETATM   33  C   UNL     1      43.999 -17.092   5.015  1.00  0.00     0.017 A 
ENDBRANCH  25  27
ENDBRANCH   2  21
TORSDOF 9
ENDMDL
MODEL 8
REMARK VINA RESULT:      -8.1      2.322      3.153
REMARK  9 active torsions:
REMARK  status: ('A' for Active; 'I' for Inactive)
REMARK       I    between atoms: C_2  and  N_3 
REMARK    1  A    between atoms: N_3  and  C_4 
REMARK    2  A    between atoms: C_6  and  O_7 
REMARK    3  A    between atoms: O_7  and  C_8 
REMARK    4  A    between atoms: C_8  and  C_9 
REMARK    5  A    between atoms: C_9  and  C_10 
REMARK    6  A    between atoms: C_10  and  C_11 
REMARK    7  A    between atoms: C_11  and  N_12 
REMARK       I    between atoms: N_12  and  C_13 
REMARK    8  A    between atoms: C_13  and  C_14 
REMARK    9  A    between atoms: C_18  and  C_19 
ROOT
HETATM    1  N   UNL     1      43.725 -11.659   7.913  1.00  0.00    -0.345 N 
HETATM    2  C   UNL     1      44.465 -10.924   8.805  1.00  0.00     0.270 C 
HETATM    3  O   UNL     1      45.687 -10.842   8.740  1.00  0.00    -0.266 OA
HETATM    4  H   UNL     1      42.719 -11.611   7.933  1.00  0.00     0.163 HD
ENDROOT
BRANCH   1   5
HETATM    5  C   UNL     1      44.352 -12.323   6.803  1.00  0.00     0.217 C 
BRANCH   5   6
HETATM    6  C   UNL     1      43.350 -13.275   6.171  1.00  0.00    -0.085 C 
BRANCH   6   7
HETATM    7  C   UNL     1      42.490 -14.093   5.630  1.00  0.00    -0.078 C 
BRANCH   7   8
HETATM    8  C   UNL     1      41.487 -15.045   4.999  1.00  0.00     0.269 C 
BRANCH   8   9
HETATM    9  O   UNL     1      40.463 -14.308   4.338  1.00  0.00    -0.339 OA
BRANCH   9  10
HETATM   10  C   UNL     1      40.431 -14.423   2.970  1.00  0.00     0.072 A 
HETATM   11  C   UNL     1      40.824 -13.438   2.055  1.00  0.00     0.066 A 
HETATM   12  C   UNL     1      40.771 -13.675   0.677  1.00  0.00     0.037 A 
HETATM   13  C   UNL     1      40.299 -14.911   0.221  1.00  0.00     0.029 A 
HETATM   14  C   UNL     1      39.896 -15.894   1.126  1.00  0.00     0.005 A 
HETATM   15  C   UNL     1      39.966 -15.650   2.496  1.00  0.00     0.037 A 
BRANCH  12  16
HETATM   16  N   UNL     1      41.174 -12.736  -0.297  1.00  0.00    -0.327 N 
HETATM   17  C   UNL     1      40.409 -11.735  -0.872  1.00  0.00     0.218 C 
HETATM   18  C   UNL     1      41.190 -10.910  -1.864  1.00  0.00     0.117 C 
HETATM   19  O   UNL     1      39.237 -11.469  -0.626  1.00  0.00    -0.274 OA
HETATM   20  H   UNL     1      42.142 -12.789  -0.586  1.00  0.00     0.169 HD
ENDBRANCH  12  16
ENDBRANCH   9  10
ENDBRANCH   8   9
ENDBRANCH   7   8
ENDBRANCH   6   7
ENDBRANCH   5   6
ENDBRANCH   1   5
BRANCH   2  21
HETATM   21  C   UNL     1      43.704 -10.245   9.818  1.00  0.00     0.120 A 
HETATM   22  N   UNL     1      42.411  -9.859   9.604  1.00  0.00    -0.272 N 
HETATM   23  H   UNL     1      41.869  -9.996   8.756  1.00  0.00     0.189 HD
HETATM   24  N   UNL     1      41.841  -9.240  10.647  1.00  0.00    -0.174 NA
HETATM   25  C   UNL     1      42.793  -9.215  11.594  1.00  0.00     0.089 A 
HETATM   26  C   UNL     1      43.981  -9.831  11.105  1.00  0.00     0.071 A 
BRANCH  25  27
HETATM   27  C   UNL     1      42.553  -8.616  12.912  1.00  0.00    -0.005 A 
HETATM   28  C   UNL     1      43.325  -7.534  13.370  1.00  0.00     0.017 A 
HETATM   29  C   UNL     1      43.087  -6.974  14.630  1.00  0.00     0.043 A 
HETATM   30  C   UNL     1      42.079  -7.491  15.433  1.00  0.00     0.116 A 
HETATM   31  F   UNL     1      41.854  -6.951  16.639  1.00  0.00    -0.206 F 
HETATM   32  C   UNL     1      41.304  -8.560  15.005  1.00  0.00     0.043 A 
HETATM   33  C   UNL     1      41.541  -9.121  13.749  1.00  0.00     0.017 A 
ENDBRANCH  25  27
ENDBRANCH   2  21
TORSDOF 9
ENDMDL
MODEL 9
REMARK VINA RESULT:      -7.9      4.548     12.110
REMARK  9 active torsions:
REMARK  status: ('A' for Active; 'I' for Inactive)
REMARK       I    between atoms: C_2  and  N_3 
REMARK    1  A    between atoms: N_3  and  C_4 
REMARK    2  A    between atoms: C_6  and  O_7 
REMARK    3  A    between atoms: O_7  and  C_8 
REMARK    4  A    between atoms: C_8  and  C_9 
REMARK    5  A    between atoms: C_9  and  C_10 
REMARK    6  A    between atoms: C_10  and  C_11 
REMARK    7  A    between atoms: C_11  and  N_12 
REMARK       I    between atoms: N_12  and  C_13 
REMARK    8  A    between atoms: C_13  and  C_14 
REMARK    9  A    between atoms: C_18  and  C_19 
ROOT
HETATM    1  N   UNL     1      43.964 -12.254   6.444  1.00  0.00    -0.345 N 
HETATM    2  C   UNL     1      42.900 -13.098   6.249  1.00  0.00     0.270 C 
HETATM    3  O   UNL     1      41.735 -12.726   6.350  1.00  0.00    -0.266 OA
HETATM    4  H   UNL     1      44.900 -12.569   6.243  1.00  0.00     0.163 HD
ENDROOT
BRANCH   1   5
HETATM    5  C   UNL     1      43.760 -10.857   6.714  1.00  0.00     0.217 C 
BRANCH   5   6
HETATM    6  C   UNL     1      44.105 -10.582   8.169  1.00  0.00    -0.085 C 
BRANCH   6   7
HETATM    7  C   UNL     1      44.400 -10.346   9.417  1.00  0.00    -0.078 C 
BRANCH   7   8
HETATM    8  C   UNL     1      44.744 -10.071  10.872  1.00  0.00     0.269 C 
BRANCH   8   9
HETATM    9  O   UNL     1      43.728 -10.596  11.721  1.00  0.00    -0.339 OA
BRANCH   9  10
HETATM   10  C   UNL     1      42.926  -9.668  12.338  1.00  0.00     0.072 A 
HETATM   11  C   UNL     1      43.201  -8.300  12.462  1.00  0.00     0.066 A 
HETATM   12  C   UNL     1      42.297  -7.440  13.094  1.00  0.00     0.037 A 
HETATM   13  C   UNL     1      41.114  -7.970  13.622  1.00  0.00     0.029 A 
HETATM   14  C   UNL     1      40.837  -9.334  13.511  1.00  0.00     0.005 A 
HETATM   15  C   UNL     1      41.741 -10.178  12.868  1.00  0.00     0.037 A 
BRANCH  12  16
HETATM   16  N   UNL     1      42.501  -6.050  13.231  1.00  0.00    -0.327 N 
HETATM   17  C   UNL     1      42.232  -5.061  12.300  1.00  0.00     0.218 C 
HETATM   18  C   UNL     1      42.563  -3.681  12.811  1.00  0.00     0.117 C 
HETATM   19  O   UNL     1      41.746  -5.212  11.184  1.00  0.00    -0.274 OA
HETATM   20  H   UNL     1      42.863  -5.744  14.125  1.00  0.00     0.169 HD
ENDBRANCH  12  16
ENDBRANCH   9  10
ENDBRANCH   8   9
ENDBRANCH   7   8
ENDBRANCH   6   7
ENDBRANCH   5   6
ENDBRANCH   1   5
BRANCH   2  21
HETATM   21  C   UNL     1      43.245 -14.450   5.906  1.00  0.00     0.120 A 
HETATM   22  N   UNL     1      43.988 -15.233   6.745  1.00  0.00    -0.272 N 
HETATM   23  H   UNL     1      44.361 -14.968   7.652  1.00  0.00     0.189 HD
HETATM   24  N   UNL     1      44.223 -16.469   6.281  1.00  0.00    -0.174 NA
HETATM   25  C   UNL     1      43.610 -16.509   5.087  1.00  0.00     0.089 A 
HETATM   26  C   UNL     1      42.992 -15.255   4.814  1.00  0.00     0.071 A 
BRANCH  25  27
HETATM   27  C   UNL     1      43.630 -17.716   4.252  1.00  0.00    -0.005 A 
HETATM   28  C   UNL     1      44.107 -18.940   4.753  1.00  0.00     0.017 A 
HETATM   29  C   UNL     1      44.122 -20.082   3.945  1.00  0.00     0.043 A 
HETATM   30  C   UNL     1      43.662 -20.005   2.637  1.00  0.00     0.116 A 
HETATM   31  F   UNL     1      43.679 -21.101   1.867  1.00  0.00    -0.206 F 
HETATM   32  C   UNL     1      43.189 -18.808   2.117  1.00  0.00     0.043 A 
HETATM   33  C   UNL     1      43.174 -17.667   2.922  1.00  0.00     0.017 A 
ENDBRANCH  25  27
ENDBRANCH   2  21
TORSDOF 9
ENDMDL
MODEL 10
REMARK VINA RESULT:      -7.8      6.434      9.711
REMARK  9 active torsions:
REMARK  status: ('A' for Active; 'I' for Inactive)
REMARK       I    between atoms: C_2  and  N_3 
REMARK    1  A    between atoms: N_3  and  C_4 
REMARK    2  A    between atoms: C_6  and  O_7 
REMARK    3  A    between atoms: O_7  and  C_8 
REMARK    4  A    between atoms: C_8  and  C_9 
REMARK    5  A    between atoms: C_9  and  C_10 
REMARK    6  A    between atoms: C_10  and  C_11 
REMARK    7  A    between atoms: C_11  and  N_12 
REMARK       I    between atoms: N_12  and  C_13 
REMARK    8  A    between atoms: C_13  and  C_14 
REMARK    9  A    between atoms: C_18  and  C_19 
ROOT
HETATM    1  N   UNL     1      40.612 -12.553   5.902  1.00  0.00    -0.345 N 
HETATM    2  C   UNL     1      41.953 -12.588   5.614  1.00  0.00     0.270 C 
HETATM    3  O   UNL     1      42.635 -11.574   5.514  1.00  0.00    -0.266 OA
HETATM    4  H   UNL     1      40.113 -13.408   6.085  1.00  0.00     0.163 HD
ENDROOT
BRANCH   1   5
HETATM    5  C   UNL     1      39.948 -11.306   6.173  1.00  0.00     0.217 C 
BRANCH   5   6
HETATM    6  C   UNL     1      39.432 -10.730   4.865  1.00  0.00    -0.085 C 
BRANCH   6   7
HETATM    7  C   UNL     1      38.991 -10.236   3.741  1.00  0.00    -0.078 C 
BRANCH   7   8
HETATM    8  C   UNL     1      38.476  -9.660   2.432  1.00  0.00     0.269 C 
BRANCH   8   9
HETATM    9  O   UNL     1      39.485  -9.745   1.431  1.00  0.00    -0.339 OA
BRANCH   9  10
HETATM   10  C   UNL     1      39.834 -11.015   1.042  1.00  0.00     0.072 A 
HETATM   11  C   UNL     1      39.132 -11.816   0.131  1.00  0.00     0.066 A 
HETATM   12  C   UNL     1      39.595 -13.090  -0.211  1.00  0.00     0.037 A 
HETATM   13  C   UNL     1      40.767 -13.567   0.387  1.00  0.00     0.029 A 
HETATM   14  C   UNL     1      41.468 -12.780   1.302  1.00  0.00     0.005 A 
HETATM   15  C   UNL     1      41.002 -11.507   1.624  1.00  0.00     0.037 A 
BRANCH  12  16
HETATM   16  N   UNL     1      38.950 -13.937  -1.138  1.00  0.00    -0.327 N 
HETATM   17  C   UNL     1      39.339 -14.221  -2.436  1.00  0.00     0.218 C 
HETATM   18  C   UNL     1      38.408 -15.191  -3.119  1.00  0.00     0.117 C 
HETATM   19  O   UNL     1      40.334 -13.798  -3.017  1.00  0.00    -0.274 OA
HETATM   20  H   UNL     1      38.120 -14.409  -0.801  1.00  0.00     0.169 HD
ENDBRANCH  12  16
ENDBRANCH   9  10
ENDBRANCH   8   9
ENDBRANCH   7   8
ENDBRANCH   6   7
ENDBRANCH   5   6
ENDBRANCH   1   5
BRANCH   2  21
HETATM   21  C   UNL     1      42.508 -13.904   5.445  1.00  0.00     0.120 A 
HETATM   22  N   UNL     1      43.353 -14.448   6.370  1.00  0.00    -0.272 N 
HETATM   23  H   UNL     1      43.671 -14.014   7.232  1.00  0.00     0.189 HD
HETATM   24  N   UNL     1      43.782 -15.682   6.067  1.00  0.00    -0.174 NA
HETATM   25  C   UNL     1      43.196 -15.969   4.894  1.00  0.00     0.089 A 
HETATM   26  C   UNL     1      42.394 -14.872   4.468  1.00  0.00     0.071 A 
BRANCH  25  27
HETATM   27  C   UNL     1      43.412 -17.255   4.221  1.00  0.00    -0.005 A 
HETATM   28  C   UNL     1      43.995 -18.342   4.896  1.00  0.00     0.017 A 
HETATM   29  C   UNL     1      44.197 -19.561   4.242  1.00  0.00     0.043 A 
HETATM   30  C   UNL     1      43.817 -19.700   2.913  1.00  0.00     0.116 A 
HETATM   31  F   UNL     1      44.012 -20.870   2.289  1.00  0.00    -0.206 F 
HETATM   32  C   UNL     1      43.241 -18.642   2.222  1.00  0.00     0.043 A 
HETATM   33  C   UNL     1      43.040 -17.424   2.874  1.00  0.00     0.017 A 
ENDBRANCH  25  27
ENDBRANCH   2  21
TORSDOF 9
ENDMDL
