MODEL 1
REMARK VINA RESULT:      -9.1      0.000      0.000
REMARK  5 active torsions:
REMARK  status: ('A' for Active; 'I' for Inactive)
REMARK    1  A    between atoms: C_7  and  N_8 
REMARK    2  A    between atoms: N_8  and  C_9 
REMARK    3  A    between atoms: C_11  and  C_12 
REMARK       I    between atoms: C_12  and  N_13 
REMARK    4  A    between atoms: N_13  and  C_14 
REMARK    5  A    between atoms: C_14  and  C_15 
ROOT
HETATM    1  C   UNL     1      42.345 -14.259   2.940  1.00  0.00     0.142 A 
HETATM    2  N   UNL     1      42.323 -13.512   4.080  1.00  0.00    -0.225 NA
HETATM    3  C   UNL     1      41.342 -12.581   4.282  1.00  0.00     0.129 A 
HETATM    4  C   UNL     1      40.318 -12.292   3.401  1.00  0.00     0.075 A 
HETATM    5  C   UNL     1      40.377 -13.042   2.244  1.00  0.00     0.091 A 
HETATM    6  C   UNL     1      41.340 -14.007   1.977  1.00  0.00     0.046 A 
HETATM    7  O   UNL     1      39.500 -12.942   1.207  1.00  0.00    -0.322 OA
HETATM    8  C   UNL     1      39.889 -13.838   0.266  1.00  0.00     0.143 A 
HETATM    9  C   UNL     1      41.008 -14.519   0.686  1.00  0.00     0.042 A 
ENDROOT
BRANCH   3  10
HETATM   10  C   UNL     1      41.410 -11.829   5.577  1.00  0.00     0.270 C 
HETATM   11  N   UNL     1      42.645 -11.300   5.868  1.00  0.00    -0.351 N 
HETATM   12  H   UNL     1      43.402 -11.514   5.226  1.00  0.00     0.163 HD
HETATM   13  O   UNL     1      40.428 -11.707   6.299  1.00  0.00    -0.266 OA
BRANCH  11  14
HETATM   14  C   UNL     1      42.921 -10.628   7.112  1.00  0.00     0.165 C 
BRANCH  14  15
HETATM   15  C   UNL     1      44.392 -10.486   7.258  1.00  0.00     0.002 A 
HETATM   16  C   UNL     1      45.124  -9.489   7.963  1.00  0.00     0.060 A 
HETATM   17  C   UNL     1      44.609  -8.330   8.735  1.00  0.00     0.073 C 
HETATM   18  N   UNL     1      46.446  -9.677   7.860  1.00  0.00    -0.180 NA
HETATM   19  N   UNL     1      46.565 -10.769   7.095  1.00  0.00    -0.288 N 
HETATM   20  H   UNL     1      47.498 -11.103   6.872  1.00  0.00     0.188 HD
HETATM   21  C   UNL     1      45.370 -11.292   6.709  1.00  0.00     0.120 A 
ENDBRANCH  14  15
ENDBRANCH  11  14
ENDBRANCH   3  10
BRANCH   1  22
HETATM   22  N   UNL     1      43.331 -15.228   2.705  1.00  0.00    -0.340 N 
HETATM   23  H   UNL     1      44.014 -14.939   2.019  1.00  0.00     0.167 HD
BRANCH  22  24
HETATM   24  C   UNL     1      43.524 -16.535   3.183  1.00  0.00     0.034 A 
HETATM   25  C   UNL     1      43.812 -16.712   4.544  1.00  0.00     0.031 A 
HETATM   26  C   UNL     1      43.977 -17.986   5.093  1.00  0.00     0.022 A 
HETATM   27  C   UNL     1      43.846 -19.117   4.287  1.00  0.00     0.017 A 
HETATM   28  C   UNL     1      43.558 -18.981   2.924  1.00  0.00    -0.043 A 
HETATM   29 BR   UNL     1      44.070 -20.813   5.110  1.00  0.00    -0.051 Br
HETATM   30  C   UNL     1      43.391 -20.166   2.012  1.00  0.00     0.049 C 
HETATM   31  C   UNL     1      43.401 -17.684   2.394  1.00  0.00     0.037 A 
ENDBRANCH  22  24
ENDBRANCH   1  22
TORSDOF 5
ENDMDL
MODEL 2
REMARK VINA RESULT:      -9.0      3.507      6.434
REMARK  5 active torsions:
REMARK  status: ('A' for Active; 'I' for Inactive)
REMARK    1  A    between atoms: C_7  and  N_8 
REMARK    2  A    between atoms: N_8  and  C_9 
REMARK    3  A    between atoms: C_11  and  C_12 
REMARK       I    between atoms: C_12  and  N_13 
REMARK    4  A    between atoms: N_13  and  C_14 
REMARK    5  A    between atoms: C_14  and  C_15 
ROOT
HETATM    1  C   UNL     1      42.017 -14.250   3.532  1.00  0.00     0.142 A 
HETATM    2  N   UNL     1      41.574 -13.515   2.474  1.00  0.00    -0.225 NA
HETATM    3  C   UNL     1      40.438 -12.762   2.577  1.00  0.00     0.129 A 
HETATM    4  C   UNL     1      39.639 -12.667   3.701  1.00  0.00     0.075 A 
HETATM    5  C   UNL     1      40.094 -13.439   4.751  1.00  0.00     0.091 A 
HETATM    6  C   UNL     1      41.242 -14.221   4.715  1.00  0.00     0.046 A 
HETATM    7  O   UNL     1      39.485 -13.539   5.964  1.00  0.00    -0.322 OA
HETATM    8  C   UNL     1      40.230 -14.384   6.718  1.00  0.00     0.143 A 
HETATM    9  C   UNL     1      41.319 -14.829   6.004  1.00  0.00     0.042 A 
ENDROOT
BRANCH   3  10
HETATM   10  C   UNL     1      40.053 -11.986   1.354  1.00  0.00     0.270 C 
HETATM   11  N   UNL     1      39.177 -12.633   0.516  1.00  0.00    -0.351 N 
HETATM   12  H   UNL     1      38.923 -13.585   0.761  1.00  0.00     0.163 HD
HETATM   13  O   UNL     1      40.496 -10.862   1.143  1.00  0.00    -0.266 OA
BRANCH  11  14
HETATM   14  C   UNL     1      38.772 -12.080  -0.751  1.00  0.00     0.165 C 
BRANCH  14  15
HETATM   15  C   UNL     1      39.756 -12.490  -1.784  1.00  0.00     0.002 A 
HETATM   16  C   UNL     1      39.831 -13.715  -2.505  1.00  0.00     0.060 A 
HETATM   17  C   UNL     1      38.946 -14.903  -2.412  1.00  0.00     0.073 C 
HETATM   18  N   UNL     1      40.870 -13.733  -3.350  1.00  0.00    -0.180 NA
HETATM   19  N   UNL     1      41.461 -12.544  -3.171  1.00  0.00    -0.288 N 
HETATM   20  H   UNL     1      42.293 -12.333  -3.712  1.00  0.00     0.188 HD
HETATM   21  C   UNL     1      40.837 -11.764  -2.247  1.00  0.00     0.120 A 
ENDBRANCH  14  15
ENDBRANCH  11  14
ENDBRANCH   3  10
BRANCH   1  22
HETATM   22  N   UNL     1      43.184 -15.026   3.463  1.00  0.00    -0.340 N 
HETATM   23  H   UNL     1      43.979 -14.513   3.110  1.00  0.00     0.167 HD
BRANCH  22  24
HETATM   24  C   UNL     1      43.452 -16.379   3.727  1.00  0.00     0.034 A 
HETATM   25  C   UNL     1      43.880 -16.735   5.014  1.00  0.00     0.031 A 
HETATM   26  C   UNL     1      44.128 -18.067   5.356  1.00  0.00     0.022 A 
HETATM   27  C   UNL     1      43.941 -19.078   4.412  1.00  0.00     0.017 A 
HETATM   28  C   UNL     1      43.513 -18.761   3.118  1.00  0.00    -0.043 A 
HETATM   29 BR   UNL     1      44.283 -20.864   4.957  1.00  0.00    -0.051 Br
HETATM   30  C   UNL     1      43.280 -19.811   2.065  1.00  0.00     0.049 C 
HETATM   31  C   UNL     1      43.275 -17.409   2.797  1.00  0.00     0.037 A 
ENDBRANCH  22  24
ENDBRANCH   1  22
TORSDOF 5
ENDMDL
MODEL 3
REMARK VINA RESULT:      -9.0      3.483      6.868
REMARK  5 active torsions:
REMARK  status: ('A' for Active; 'I' for Inactive)
REMARK    1  A    between atoms: C_7  and  N_8 
REMARK    2  A    between atoms: N_8  and  C_9 
REMARK    3  A    between atoms: C_11  and  C_12 
REMARK       I    between atoms: C_12  and  N_13 
REMARK    4  A    between atoms: N_13  and  C_14 
REMARK    5  A    between atoms: C_14  and  C_15 
ROOT
HETATM    1  C   UNL     1      41.997 -14.606   2.557  1.00  0.00     0.142 A 
HETATM    2  N   UNL     1      41.613 -14.596   1.250  1.00  0.00    -0.225 NA
HETATM    3  C   UNL     1      40.469 -13.955   0.865  1.00  0.00     0.129 A 
HETATM    4  C   UNL     1      39.604 -13.286   1.709  1.00  0.00     0.075 A 
HETATM    5  C   UNL     1      40.000 -13.330   3.031  1.00  0.00     0.091 A 
HETATM    6  C   UNL     1      41.152 -13.958   3.488  1.00  0.00     0.046 A 
HETATM    7  O   UNL     1      39.319 -12.767   4.066  1.00  0.00    -0.322 OA
HETATM    8  C   UNL     1      40.024 -13.025   5.196  1.00  0.00     0.143 A 
HETATM    9  C   UNL     1      41.156 -13.748   4.900  1.00  0.00     0.042 A 
ENDROOT
BRANCH   3  10
HETATM   10  C   UNL     1      40.153 -13.999  -0.600  1.00  0.00     0.270 C 
HETATM   11  N   UNL     1      40.862 -13.105  -1.366  1.00  0.00    -0.351 N 
HETATM   12  H   UNL     1      41.476 -12.463  -0.876  1.00  0.00     0.163 HD
HETATM   13  O   UNL     1      39.328 -14.784  -1.053  1.00  0.00    -0.266 OA
BRANCH  11  14
HETATM   14  C   UNL     1      40.622 -12.942  -2.777  1.00  0.00     0.165 C 
BRANCH  14  15
HETATM   15  C   UNL     1      39.947 -11.637  -2.995  1.00  0.00     0.002 A 
HETATM   16  C   UNL     1      38.563 -11.322  -2.889  1.00  0.00     0.060 A 
HETATM   17  C   UNL     1      37.432 -12.216  -2.535  1.00  0.00     0.073 C 
HETATM   18  N   UNL     1      38.322 -10.036  -3.176  1.00  0.00    -0.180 NA
HETATM   19  N   UNL     1      39.527  -9.533  -3.471  1.00  0.00    -0.288 N 
HETATM   20  H   UNL     1      39.590  -8.554  -3.732  1.00  0.00     0.188 HD
HETATM   21  C   UNL     1      40.532 -10.445  -3.378  1.00  0.00     0.120 A 
ENDBRANCH  14  15
ENDBRANCH  11  14
ENDBRANCH   3  10
BRANCH   1  22
HETATM   22  N   UNL     1      43.170 -15.245   2.983  1.00  0.00    -0.340 N 
HETATM   23  H   UNL     1      43.986 -14.653   2.928  1.00  0.00     0.167 HD
BRANCH  22  24
HETATM   24  C   UNL     1      43.447 -16.555   3.412  1.00  0.00     0.034 A 
HETATM   25  C   UNL     1      43.758 -16.761   4.764  1.00  0.00     0.031 A 
HETATM   26  C   UNL     1      44.007 -18.042   5.265  1.00  0.00     0.022 A 
HETATM   27  C   UNL     1      43.937 -19.149   4.420  1.00  0.00     0.017 A 
HETATM   28  C   UNL     1      43.627 -18.983   3.065  1.00  0.00    -0.043 A 
HETATM   29 BR   UNL     1      44.271 -20.857   5.179  1.00  0.00    -0.051 Br
HETATM   30  C   UNL     1      43.524 -20.142   2.113  1.00  0.00     0.049 C 
HETATM   31  C   UNL     1      43.387 -17.680   2.584  1.00  0.00     0.037 A 
ENDBRANCH  22  24
ENDBRANCH   1  22
TORSDOF 5
ENDMDL
MODEL 4
REMARK VINA RESULT:      -8.9      3.193      5.056
REMARK  5 active torsions:
REMARK  status: ('A' for Active; 'I' for Inactive)
REMARK    1  A    between atoms: C_7  and  N_8 
REMARK    2  A    between atoms: N_8  and  C_9 
REMARK    3  A    between atoms: C_11  and  C_12 
REMARK       I    between atoms: C_12  and  N_13 
REMARK    4  A    between atoms: N_13  and  C_14 
REMARK    5  A    between atoms: C_14  and  C_15 
ROOT
HETATM    1  C   UNL     1      41.641 -15.743   3.691  1.00  0.00     0.142 A 
HETATM    2  N   UNL     1      41.853 -15.031   4.833  1.00  0.00    -0.225 NA
HETATM    3  C   UNL     1      42.888 -15.347   5.668  1.00  0.00     0.129 A 
HETATM    4  C   UNL     1      43.789 -16.376   5.472  1.00  0.00     0.075 A 
HETATM    5  C   UNL     1      43.539 -17.098   4.323  1.00  0.00     0.091 A 
HETATM    6  C   UNL     1      42.510 -16.828   3.429  1.00  0.00     0.046 A 
HETATM    7  O   UNL     1      44.265 -18.171   3.905  1.00  0.00    -0.322 OA
HETATM    8  C   UNL     1      43.713 -18.601   2.743  1.00  0.00     0.143 A 
HETATM    9  C   UNL     1      42.637 -17.813   2.404  1.00  0.00     0.042 A 
ENDROOT
BRANCH   3  10
HETATM   10  C   UNL     1      43.032 -14.488   6.888  1.00  0.00     0.270 C 
HETATM   11  N   UNL     1      43.101 -13.139   6.634  1.00  0.00    -0.351 N 
HETATM   12  H   UNL     1      43.113 -12.853   5.660  1.00  0.00     0.163 HD
HETATM   13  O   UNL     1      43.077 -14.975   8.012  1.00  0.00    -0.266 OA
BRANCH  11  14
HETATM   14  C   UNL     1      43.334 -12.171   7.675  1.00  0.00     0.165 C 
BRANCH  14  15
HETATM   15  C   UNL     1      44.654 -11.533   7.442  1.00  0.00     0.002 A 
HETATM   16  C   UNL     1      45.377 -10.647   8.290  1.00  0.00     0.060 A 
HETATM   17  C   UNL     1      44.999 -10.129   9.629  1.00  0.00     0.073 C 
HETATM   18  N   UNL     1      46.534 -10.261   7.736  1.00  0.00    -0.180 NA
HETATM   19  N   UNL     1      46.552 -10.878   6.548  1.00  0.00    -0.288 N 
HETATM   20  H   UNL     1      47.348 -10.723   5.937  1.00  0.00     0.188 HD
HETATM   21  C   UNL     1      45.455 -11.649   6.322  1.00  0.00     0.120 A 
ENDBRANCH  14  15
ENDBRANCH  11  14
ENDBRANCH   3  10
BRANCH   1  22
HETATM   22  N   UNL     1      40.594 -15.439   2.808  1.00  0.00    -0.340 N 
HETATM   23  H   UNL     1      39.732 -15.912   3.040  1.00  0.00     0.167 HD
BRANCH  22  24
HETATM   24  C   UNL     1      40.520 -14.664   1.639  1.00  0.00     0.034 A 
HETATM   25  C   UNL     1      41.155 -13.413   1.628  1.00  0.00     0.031 A 
HETATM   26  C   UNL     1      41.154 -12.607   0.487  1.00  0.00     0.022 A 
HETATM   27  C   UNL     1      40.520 -13.044  -0.677  1.00  0.00     0.017 A 
HETATM   28  C   UNL     1      39.877 -14.287  -0.705  1.00  0.00    -0.043 A 
HETATM   29 BR   UNL     1      40.576 -11.899  -2.191  1.00  0.00    -0.051 Br
HETATM   30  C   UNL     1      39.193 -14.814  -1.936  1.00  0.00     0.049 C 
HETATM   31  C   UNL     1      39.889 -15.078   0.462  1.00  0.00     0.037 A 
ENDBRANCH  22  24
ENDBRANCH   1  22
TORSDOF 5
ENDMDL
MODEL 5
REMARK VINA RESULT:      -8.7      2.577      6.407
REMARK  5 active torsions:
REMARK  status: ('A' for Active; 'I' for Inactive)
REMARK    1  A    between atoms: C_7  and  N_8 
REMARK    2  A    between atoms: N_8  and  C_9 
REMARK    3  A    between atoms: C_11  and  C_12 
REMARK       I    between atoms: C_12  and  N_13 
REMARK    4  A    between atoms: N_13  and  C_14 
REMARK    5  A    between atoms: C_14  and  C_15 
ROOT
HETATM    1  C   UNL     1      42.728 -14.003   4.553  1.00  0.00     0.142 A 
HETATM    2  N   UNL     1      41.765 -13.803   3.611  1.00  0.00    -0.225 NA
HETATM    3  C   UNL     1      41.455 -12.540   3.191  1.00  0.00     0.129 A 
HETATM    4  C   UNL     1      42.038 -11.376   3.654  1.00  0.00     0.075 A 
HETATM    5  C   UNL     1      42.992 -11.602   4.625  1.00  0.00     0.091 A 
HETATM    6  C   UNL     1      43.360 -12.858   5.092  1.00  0.00     0.046 A 
HETATM    7  O   UNL     1      43.704 -10.630   5.258  1.00  0.00    -0.322 OA
HETATM    8  C   UNL     1      44.533 -11.247   6.135  1.00  0.00     0.143 A 
HETATM    9  C   UNL     1      44.367 -12.611   6.074  1.00  0.00     0.042 A 
ENDROOT
BRANCH   3  10
HETATM   10  C   UNL     1      40.389 -12.442   2.141  1.00  0.00     0.270 C 
HETATM   11  N   UNL     1      40.787 -11.832   0.976  1.00  0.00    -0.351 N 
HETATM   12  H   UNL     1      41.728 -11.452   0.951  1.00  0.00     0.163 HD
HETATM   13  O   UNL     1      39.261 -12.882   2.331  1.00  0.00    -0.266 OA
BRANCH  11  14
HETATM   14  C   UNL     1      39.872 -11.566  -0.105  1.00  0.00     0.165 C 
BRANCH  14  15
HETATM   15  C   UNL     1      40.414 -12.178  -1.346  1.00  0.00     0.002 A 
HETATM   16  C   UNL     1      40.214 -13.495  -1.849  1.00  0.00     0.060 A 
HETATM   17  C   UNL     1      39.416 -14.601  -1.265  1.00  0.00     0.073 C 
HETATM   18  N   UNL     1      40.877 -13.695  -2.996  1.00  0.00    -0.180 NA
HETATM   19  N   UNL     1      41.500 -12.532  -3.223  1.00  0.00    -0.288 N 
HETATM   20  H   UNL     1      42.082 -12.450  -4.052  1.00  0.00     0.188 HD
HETATM   21  C   UNL     1      41.257 -11.592  -2.270  1.00  0.00     0.120 A 
ENDBRANCH  14  15
ENDBRANCH  11  14
ENDBRANCH   3  10
BRANCH   1  22
HETATM   22  N   UNL     1      43.078 -15.286   4.999  1.00  0.00    -0.340 N 
HETATM   23  H   UNL     1      43.320 -15.312   5.979  1.00  0.00     0.167 HD
BRANCH  22  24
HETATM   24  C   UNL     1      43.217 -16.523   4.347  1.00  0.00     0.034 A 
HETATM   25  C   UNL     1      42.960 -16.583   2.970  1.00  0.00     0.031 A 
HETATM   26  C   UNL     1      43.116 -17.772   2.252  1.00  0.00     0.022 A 
HETATM   27  C   UNL     1      43.544 -18.930   2.902  1.00  0.00     0.017 A 
HETATM   28  C   UNL     1      43.811 -18.909   4.275  1.00  0.00    -0.043 A 
HETATM   29 BR   UNL     1      43.747 -20.501   1.855  1.00  0.00    -0.051 Br
HETATM   30  C   UNL     1      44.290 -20.123   5.023  1.00  0.00     0.049 C 
HETATM   31  C   UNL     1      43.641 -17.698   4.977  1.00  0.00     0.037 A 
ENDBRANCH  22  24
ENDBRANCH   1  22
TORSDOF 5
ENDMDL
MODEL 6
REMARK VINA RESULT:      -8.6      3.611      7.981
REMARK  5 active torsions:
REMARK  status: ('A' for Active; 'I' for Inactive)
REMARK    1  A    between atoms: C_7  and  N_8 
REMARK    2  A    between atoms: N_8  and  C_9 
REMARK    3  A    between atoms: C_11  and  C_12 
REMARK       I    between atoms: C_12  and  N_13 
REMARK    4  A    between atoms: N_13  and  C_14 
REMARK    5  A    between atoms: C_14  and  C_15 
ROOT
HETATM    1  C   UNL     1      42.431 -15.676   4.554  1.00  0.00     0.142 A 
HETATM    2  N   UNL     1      41.563 -15.259   3.591  1.00  0.00    -0.225 NA
HETATM    3  C   UNL     1      41.439 -15.952   2.419  1.00  0.00     0.129 A 
HETATM    4  C   UNL     1      42.148 -17.089   2.082  1.00  0.00     0.075 A 
HETATM    5  C   UNL     1      43.038 -17.478   3.062  1.00  0.00     0.091 A 
HETATM    6  C   UNL     1      43.209 -16.824   4.276  1.00  0.00     0.046 A 
HETATM    7  O   UNL     1      43.868 -18.553   2.977  1.00  0.00    -0.322 OA
HETATM    8  C   UNL     1      44.580 -18.602   4.130  1.00  0.00     0.143 A 
HETATM    9  C   UNL     1      44.215 -17.569   4.963  1.00  0.00     0.042 A 
ENDROOT
BRANCH   3  10
HETATM   10  C   UNL     1      40.445 -15.407   1.438  1.00  0.00     0.270 C 
HETATM   11  N   UNL     1      40.534 -14.052   1.225  1.00  0.00    -0.351 N 
HETATM   12  H   UNL     1      41.207 -13.540   1.785  1.00  0.00     0.163 HD
HETATM   13  O   UNL     1      39.630 -16.134   0.882  1.00  0.00    -0.266 OA
BRANCH  11  14
HETATM   14  C   UNL     1      39.600 -13.342   0.388  1.00  0.00     0.165 C 
BRANCH  14  15
HETATM   15  C   UNL     1      40.207 -13.164  -0.955  1.00  0.00     0.002 A 
HETATM   16  C   UNL     1      39.947 -13.889  -2.153  1.00  0.00     0.060 A 
HETATM   17  C   UNL     1      39.003 -15.013  -2.371  1.00  0.00     0.073 C 
HETATM   18  N   UNL     1      40.700 -13.453  -3.171  1.00  0.00    -0.180 NA
HETATM   19  N   UNL     1      41.440 -12.473  -2.638  1.00  0.00    -0.288 N 
HETATM   20  H   UNL     1      42.105 -11.991  -3.235  1.00  0.00     0.188 HD
HETATM   21  C   UNL     1      41.185 -12.259  -1.319  1.00  0.00     0.120 A 
ENDBRANCH  14  15
ENDBRANCH  11  14
ENDBRANCH   3  10
BRANCH   1  22
HETATM   22  N   UNL     1      42.576 -14.995   5.772  1.00  0.00    -0.340 N 
HETATM   23  H   UNL     1      42.530 -15.606   6.575  1.00  0.00     0.167 HD
BRANCH  22  24
HETATM   24  C   UNL     1      42.710 -13.635   6.100  1.00  0.00     0.034 A 
HETATM   25  C   UNL     1      41.602 -12.794   5.919  1.00  0.00     0.031 A 
HETATM   26  C   UNL     1      41.654 -11.440   6.261  1.00  0.00     0.022 A 
HETATM   27  C   UNL     1      42.821 -10.900   6.802  1.00  0.00     0.017 A 
HETATM   28  C   UNL     1      43.946 -11.708   6.998  1.00  0.00    -0.043 A 
HETATM   29 BR   UNL     1      42.808  -9.056   7.255  1.00  0.00    -0.051 Br
HETATM   30  C   UNL     1      45.224 -11.182   7.592  1.00  0.00     0.049 C 
HETATM   31  C   UNL     1      43.869 -13.069   6.640  1.00  0.00     0.037 A 
ENDBRANCH  22  24
ENDBRANCH   1  22
TORSDOF 5
ENDMDL
MODEL 7
REMARK VINA RESULT:      -8.4      2.015      2.344
REMARK  5 active torsions:
REMARK  status: ('A' for Active; 'I' for Inactive)
REMARK    1  A    between atoms: C_7  and  N_8 
REMARK    2  A    between atoms: N_8  and  C_9 
REMARK    3  A    between atoms: C_11  and  C_12 
REMARK       I    between atoms: C_12  and  N_13 
REMARK    4  A    between atoms: N_13  and  C_14 
REMARK    5  A    between atoms: C_14  and  C_15 
ROOT
HETATM    1  C   UNL     1      42.476 -14.096   3.353  1.00  0.00     0.142 A 
HETATM    2  N   UNL     1      43.362 -13.409   4.127  1.00  0.00    -0.225 NA
HETATM    3  C   UNL     1      42.983 -12.260   4.765  1.00  0.00     0.129 A 
HETATM    4  C   UNL     1      41.730 -11.683   4.697  1.00  0.00     0.075 A 
HETATM    5  C   UNL     1      40.858 -12.383   3.888  1.00  0.00     0.091 A 
HETATM    6  C   UNL     1      41.175 -13.558   3.217  1.00  0.00     0.046 A 
HETATM    7  O   UNL     1      39.570 -12.023   3.637  1.00  0.00    -0.322 OA
HETATM    8  C   UNL     1      39.047 -12.957   2.805  1.00  0.00     0.143 A 
HETATM    9  C   UNL     1      39.985 -13.922   2.518  1.00  0.00     0.042 A 
ENDROOT
BRANCH   3  10
HETATM   10  C   UNL     1      44.037 -11.596   5.599  1.00  0.00     0.270 C 
HETATM   11  N   UNL     1      43.751 -11.534   6.941  1.00  0.00    -0.351 N 
HETATM   12  H   UNL     1      42.842 -11.879   7.236  1.00  0.00     0.163 HD
HETATM   13  O   UNL     1      45.065 -11.155   5.098  1.00  0.00    -0.266 OA
BRANCH  11  14
HETATM   14  C   UNL     1      44.603 -10.849   7.879  1.00  0.00     0.165 C 
BRANCH  14  15
HETATM   15  C   UNL     1      43.757 -10.268   8.952  1.00  0.00     0.002 A 
HETATM   16  C   UNL     1      42.784  -9.233   8.857  1.00  0.00     0.060 A 
HETATM   17  C   UNL     1      42.363  -8.462   7.660  1.00  0.00     0.073 C 
HETATM   18  N   UNL     1      42.227  -8.962  10.044  1.00  0.00    -0.180 NA
HETATM   19  N   UNL     1      42.836  -9.800  10.892  1.00  0.00    -0.288 N 
HETATM   20  H   UNL     1      42.575  -9.767  11.873  1.00  0.00     0.188 HD
HETATM   21  C   UNL     1      43.757 -10.601  10.293  1.00  0.00     0.120 A 
ENDBRANCH  14  15
ENDBRANCH  11  14
ENDBRANCH   3  10
BRANCH   1  22
HETATM   22  N   UNL     1      42.829 -15.282   2.693  1.00  0.00    -0.340 N 
HETATM   23  H   UNL     1      42.750 -15.214   1.688  1.00  0.00     0.167 HD
BRANCH  22  24
HETATM   24  C   UNL     1      43.209 -16.557   3.147  1.00  0.00     0.034 A 
HETATM   25  C   UNL     1      43.606 -16.695   4.485  1.00  0.00     0.031 A 
HETATM   26  C   UNL     1      43.960 -17.940   5.013  1.00  0.00     0.022 A 
HETATM   27  C   UNL     1      43.913 -19.080   4.209  1.00  0.00     0.017 A 
HETATM   28  C   UNL     1      43.520 -18.980   2.870  1.00  0.00    -0.043 A 
HETATM   29 BR   UNL     1      44.393 -20.736   5.004  1.00  0.00    -0.051 Br
HETATM   30  C   UNL     1      43.437 -20.177   1.962  1.00  0.00     0.049 C 
HETATM   31  C   UNL     1      43.174 -17.712   2.360  1.00  0.00     0.037 A 
ENDBRANCH  22  24
ENDBRANCH   1  22
TORSDOF 5
ENDMDL
MODEL 8
REMARK VINA RESULT:      -8.4      3.569      8.165
REMARK  5 active torsions:
REMARK  status: ('A' for Active; 'I' for Inactive)
REMARK    1  A    between atoms: C_7  and  N_8 
REMARK    2  A    between atoms: N_8  and  C_9 
REMARK    3  A    between atoms: C_11  and  C_12 
REMARK       I    between atoms: C_12  and  N_13 
REMARK    4  A    between atoms: N_13  and  C_14 
REMARK    5  A    between atoms: C_14  and  C_15 
ROOT
HETATM    1  C   UNL     1      42.783 -13.508   4.149  1.00  0.00     0.142 A 
HETATM    2  N   UNL     1      41.963 -13.488   3.061  1.00  0.00    -0.225 NA
HETATM    3  C   UNL     1      41.197 -14.576   2.747  1.00  0.00     0.129 A 
HETATM    4  C   UNL     1      41.171 -15.766   3.448  1.00  0.00     0.075 A 
HETATM    5  C   UNL     1      42.027 -15.772   4.530  1.00  0.00     0.091 A 
HETATM    6  C   UNL     1      42.827 -14.701   4.908  1.00  0.00     0.046 A 
HETATM    7  O   UNL     1      42.206 -16.824   5.376  1.00  0.00    -0.322 OA
HETATM    8  C   UNL     1      43.119 -16.442   6.302  1.00  0.00     0.143 A 
HETATM    9  C   UNL     1      43.531 -15.151   6.066  1.00  0.00     0.042 A 
ENDROOT
BRANCH   3  10
HETATM   10  C   UNL     1      40.324 -14.434   1.537  1.00  0.00     0.270 C 
HETATM   11  N   UNL     1      40.192 -13.148   1.073  1.00  0.00    -0.351 N 
HETATM   12  H   UNL     1      40.635 -12.413   1.616  1.00  0.00     0.163 HD
HETATM   13  O   UNL     1      39.786 -15.406   1.018  1.00  0.00    -0.266 OA
BRANCH  11  14
HETATM   14  C   UNL     1      39.318 -12.810  -0.022  1.00  0.00     0.165 C 
BRANCH  14  15
HETATM   15  C   UNL     1      40.089 -12.897  -1.288  1.00  0.00     0.002 A 
HETATM   16  C   UNL     1      39.932 -13.815  -2.365  1.00  0.00     0.060 A 
HETATM   17  C   UNL     1      38.958 -14.926  -2.503  1.00  0.00     0.073 C 
HETATM   18  N   UNL     1      40.825 -13.596  -3.340  1.00  0.00    -0.180 NA
HETATM   19  N   UNL     1      41.551 -12.563  -2.896  1.00  0.00    -0.288 N 
HETATM   20  H   UNL     1      42.308 -12.220  -3.478  1.00  0.00     0.188 HD
HETATM   21  C   UNL     1      41.154 -12.107  -1.677  1.00  0.00     0.120 A 
ENDBRANCH  14  15
ENDBRANCH  11  14
ENDBRANCH   3  10
BRANCH   1  22
HETATM   22  N   UNL     1      43.575 -12.407   4.505  1.00  0.00    -0.340 N 
HETATM   23  H   UNL     1      44.127 -12.052   3.737  1.00  0.00     0.167 HD
BRANCH  22  24
HETATM   24  C   UNL     1      43.800 -11.740   5.721  1.00  0.00     0.034 A 
HETATM   25  C   UNL     1      45.075 -11.822   6.300  1.00  0.00     0.031 A 
HETATM   26  C   UNL     1      45.378 -11.153   7.489  1.00  0.00     0.022 A 
HETATM   27  C   UNL     1      44.407 -10.375   8.120  1.00  0.00     0.017 A 
HETATM   28  C   UNL     1      43.124 -10.268   7.572  1.00  0.00    -0.043 A 
HETATM   29 BR   UNL     1      44.901  -9.484   9.722  1.00  0.00    -0.051 Br
HETATM   30  C   UNL     1      42.044  -9.431   8.202  1.00  0.00     0.049 C 
HETATM   31  C   UNL     1      42.843 -10.958   6.375  1.00  0.00     0.037 A 
ENDBRANCH  22  24
ENDBRANCH   1  22
TORSDOF 5
ENDMDL
MODEL 9
REMARK VINA RESULT:      -8.2      2.190      2.757
REMARK  5 active torsions:
REMARK  status: ('A' for Active; 'I' for Inactive)
REMARK    1  A    between atoms: C_7  and  N_8 
REMARK    2  A    between atoms: N_8  and  C_9 
REMARK    3  A    between atoms: C_11  and  C_12 
REMARK       I    between atoms: C_12  and  N_13 
REMARK    4  A    between atoms: N_13  and  C_14 
REMARK    5  A    between atoms: C_14  and  C_15 
ROOT
HETATM    1  C   UNL     1      41.795 -14.445   3.045  1.00  0.00     0.142 A 
HETATM    2  N   UNL     1      41.326 -13.948   4.224  1.00  0.00    -0.225 NA
HETATM    3  C   UNL     1      40.163 -13.230   4.262  1.00  0.00     0.129 A 
HETATM    4  C   UNL     1      39.372 -12.928   3.170  1.00  0.00     0.075 A 
HETATM    5  C   UNL     1      39.881 -13.420   1.985  1.00  0.00     0.091 A 
HETATM    6  C   UNL     1      41.051 -14.160   1.876  1.00  0.00     0.046 A 
HETATM    7  O   UNL     1      39.307 -13.249   0.762  1.00  0.00    -0.322 OA
HETATM    8  C   UNL     1      40.100 -13.876  -0.142  1.00  0.00     0.143 A 
HETATM    9  C   UNL     1      41.179 -14.453   0.485  1.00  0.00     0.042 A 
ENDROOT
BRANCH   3  10
HETATM   10  C   UNL     1      39.737 -12.744   5.615  1.00  0.00     0.270 C 
HETATM   11  N   UNL     1      39.534 -11.388   5.699  1.00  0.00    -0.351 N 
HETATM   12  H   UNL     1      39.746 -10.837   4.873  1.00  0.00     0.163 HD
HETATM   13  O   UNL     1      39.586 -13.517   6.554  1.00  0.00    -0.266 OA
BRANCH  11  14
HETATM   14  C   UNL     1      39.214 -10.733   6.941  1.00  0.00     0.165 C 
BRANCH  14  15
HETATM   15  C   UNL     1      40.122  -9.570   7.112  1.00  0.00     0.002 A 
HETATM   16  C   UNL     1      39.867  -8.195   6.847  1.00  0.00     0.060 A 
HETATM   17  C   UNL     1      38.628  -7.564   6.329  1.00  0.00     0.073 C 
HETATM   18  N   UNL     1      40.936  -7.431   7.109  1.00  0.00    -0.180 NA
HETATM   19  N   UNL     1      41.867  -8.299   7.526  1.00  0.00    -0.288 N 
HETATM   20  H   UNL     1      42.783  -7.940   7.778  1.00  0.00     0.188 HD
HETATM   21  C   UNL     1      41.433  -9.588   7.547  1.00  0.00     0.120 A 
ENDBRANCH  14  15
ENDBRANCH  11  14
ENDBRANCH   3  10
BRANCH   1  22
HETATM   22  N   UNL     1      42.979 -15.193   2.972  1.00  0.00    -0.340 N 
HETATM   23  H   UNL     1      43.722 -14.711   2.487  1.00  0.00     0.167 HD
BRANCH  22  24
HETATM   24  C   UNL     1      43.318 -16.494   3.381  1.00  0.00     0.034 A 
HETATM   25  C   UNL     1      43.691 -16.696   4.717  1.00  0.00     0.031 A 
HETATM   26  C   UNL     1      44.004 -17.970   5.200  1.00  0.00     0.022 A 
HETATM   27  C   UNL     1      43.939 -19.075   4.351  1.00  0.00     0.017 A 
HETATM   28  C   UNL     1      43.568 -18.913   3.011  1.00  0.00    -0.043 A 
HETATM   29 BR   UNL     1      44.362 -20.774   5.085  1.00  0.00    -0.051 Br
HETATM   30  C   UNL     1      43.467 -20.070   2.056  1.00  0.00     0.049 C 
HETATM   31  C   UNL     1      43.264 -17.617   2.548  1.00  0.00     0.037 A 
ENDBRANCH  22  24
ENDBRANCH   1  22
TORSDOF 5
ENDMDL
MODEL 10
REMARK VINA RESULT:      -8.2      3.579      7.231
REMARK  5 active torsions:
REMARK  status: ('A' for Active; 'I' for Inactive)
REMARK    1  A    between atoms: C_7  and  N_8 
REMARK    2  A    between atoms: N_8  and  C_9 
REMARK    3  A    between atoms: C_11  and  C_12 
REMARK       I    between atoms: C_12  and  N_13 
REMARK    4  A    between atoms: N_13  and  C_14 
REMARK    5  A    between atoms: C_14  and  C_15 
ROOT
HETATM    1  C   UNL     1      41.732 -14.313   2.423  1.00  0.00     0.142 A 
HETATM    2  N   UNL     1      41.229 -14.294   1.157  1.00  0.00    -0.225 NA
HETATM    3  C   UNL     1      40.078 -13.612   0.876  1.00  0.00     0.129 A 
HETATM    4  C   UNL     1      39.320 -12.909   1.792  1.00  0.00     0.075 A 
HETATM    5  C   UNL     1      39.835 -12.963   3.071  1.00  0.00     0.091 A 
HETATM    6  C   UNL     1      41.001 -13.631   3.424  1.00  0.00     0.046 A 
HETATM    7  O   UNL     1      39.275 -12.371   4.161  1.00  0.00    -0.322 OA
HETATM    8  C   UNL     1      40.071 -12.651   5.222  1.00  0.00     0.143 A 
HETATM    9  C   UNL     1      41.144 -13.416   4.828  1.00  0.00     0.042 A 
ENDROOT
BRANCH   3  10
HETATM   10  C   UNL     1      39.627 -13.651  -0.553  1.00  0.00     0.270 C 
HETATM   11  N   UNL     1      38.426 -13.026  -0.792  1.00  0.00    -0.351 N 
HETATM   12  H   UNL     1      37.930 -12.658   0.013  1.00  0.00     0.163 HD
HETATM   13  O   UNL     1      40.296 -14.199  -1.421  1.00  0.00    -0.266 OA
BRANCH  11  14
HETATM   14  C   UNL     1      37.792 -13.045  -2.085  1.00  0.00     0.165 C 
BRANCH  14  15
HETATM   15  C   UNL     1      37.693 -11.651  -2.585  1.00  0.00     0.002 A 
HETATM   16  C   UNL     1      38.733 -10.793  -3.045  1.00  0.00     0.060 A 
HETATM   17  C   UNL     1      40.188 -11.069  -3.142  1.00  0.00     0.073 C 
HETATM   18  N   UNL     1      38.264  -9.592  -3.406  1.00  0.00    -0.180 NA
HETATM   19  N   UNL     1      36.947  -9.669  -3.175  1.00  0.00    -0.288 N 
HETATM   20  H   UNL     1      36.375  -8.854  -3.372  1.00  0.00     0.188 HD
HETATM   21  C   UNL     1      36.554 -10.875  -2.685  1.00  0.00     0.120 A 
ENDBRANCH  14  15
ENDBRANCH  11  14
ENDBRANCH   3  10
BRANCH   1  22
HETATM   22  N   UNL     1      42.916 -14.994   2.744  1.00  0.00    -0.340 N 
HETATM   23  H   UNL     1      43.747 -14.503   2.447  1.00  0.00     0.167 HD
BRANCH  22  24
HETATM   24  C   UNL     1      43.174 -16.242   3.336  1.00  0.00     0.034 A 
HETATM   25  C   UNL     1      43.489 -17.323   2.500  1.00  0.00     0.031 A 
HETATM   26  C   UNL     1      43.794 -18.582   3.023  1.00  0.00     0.022 A 
HETATM   27  C   UNL     1      43.799 -18.783   4.404  1.00  0.00     0.017 A 
HETATM   28  C   UNL     1      43.491 -17.727   5.270  1.00  0.00    -0.043 A 
HETATM   29 BR   UNL     1      44.239 -20.517   5.039  1.00  0.00    -0.051 Br
HETATM   30  C   UNL     1      43.496 -17.883   6.766  1.00  0.00     0.049 C 
HETATM   31  C   UNL     1      43.181 -16.468   4.716  1.00  0.00     0.037 A 
ENDBRANCH  22  24
ENDBRANCH   1  22
TORSDOF 5
ENDMDL
