MODEL 1
REMARK VINA RESULT:      -8.7      0.000      0.000
REMARK  2 active torsions:
REMARK  status: ('A' for Active; 'I' for Inactive)
REMARK    1  A    between atoms: C_11  and  N_12 
REMARK    2  A    between atoms: N_12  and  C_13 
ROOT
HETATM    1  C   UNL     1      44.008 -20.559   2.311  1.00  0.00     0.010 C 
HETATM    2  C   UNL     1      43.379 -19.368   3.031  1.00  0.00    -0.014 C 
HETATM    3  C   UNL     1      44.386 -18.732   4.009  1.00  0.00     0.051 C 
HETATM    4  C   UNL     1      43.860 -17.426   4.524  1.00  0.00    -0.008 A 
HETATM    5  C   UNL     1      42.840 -16.682   3.957  1.00  0.00    -0.028 A 
HETATM    6  C   UNL     1      42.550 -15.486   4.737  1.00  0.00     0.053 A 
HETATM    7  C   UNL     1      43.438 -15.388   5.805  1.00  0.00     0.114 A 
HETATM    8  N   UNL     1      43.494 -14.412   6.723  1.00  0.00    -0.234 NA
HETATM    9  C   UNL     1      42.569 -13.479   6.528  1.00  0.00     0.236 A 
HETATM   10  N   UNL     1      41.640 -13.448   5.564  1.00  0.00    -0.223 NA
HETATM   11  C   UNL     1      41.584 -14.445   4.646  1.00  0.00     0.143 A 
HETATM   12  S   UNL     1      44.529 -16.691   5.897  1.00  0.00    -0.073 SA
HETATM   13  C   UNL     1      42.142 -17.159   2.714  1.00  0.00     0.041 C 
HETATM   14  C   UNL     1      42.878 -18.317   2.021  1.00  0.00     0.009 C 
ENDROOT
BRANCH  11  15
HETATM   15  N   UNL     1      40.604 -14.417   3.641  1.00  0.00    -0.340 N 
HETATM   16  H   UNL     1      39.698 -14.722   3.950  1.00  0.00     0.167 HD
BRANCH  15  17
HETATM   17  C   UNL     1      40.595 -13.904   2.329  1.00  0.00     0.036 A 
HETATM   18  C   UNL     1      40.003 -14.684   1.318  1.00  0.00     0.069 A 
HETATM   19  C   UNL     1      40.002 -14.211   0.021  1.00  0.00     0.107 A 
HETATM   20  C   UNL     1      40.571 -13.008  -0.310  1.00  0.00     0.105 A 
HETATM   21  O   UNL     1      39.462 -14.845  -1.055  1.00  0.00    -0.323 OA
HETATM   22  O   UNL     1      40.462 -12.727  -1.635  1.00  0.00    -0.323 OA
HETATM   23  C   UNL     1      41.176 -12.217   0.638  1.00  0.00     0.042 A 
HETATM   24  C   UNL     1      39.758 -13.896  -2.102  1.00  0.00     0.352 A 
HETATM   25  C   UNL     1      41.190 -12.678   1.962  1.00  0.00     0.032 A 
ENDBRANCH  15  17
ENDBRANCH  11  15
TORSDOF 2
ENDMDL
MODEL 2
REMARK VINA RESULT:      -8.4      1.630      2.539
REMARK  2 active torsions:
REMARK  status: ('A' for Active; 'I' for Inactive)
REMARK    1  A    between atoms: C_11  and  N_12 
REMARK    2  A    between atoms: N_12  and  C_13 
ROOT
HETATM    1  C   UNL     1      44.324 -19.055   3.492  1.00  0.00     0.010 C 
HETATM    2  C   UNL     1      43.241 -17.984   3.608  1.00  0.00    -0.014 C 
HETATM    3  C   UNL     1      43.670 -16.885   4.599  1.00  0.00     0.051 C 
HETATM    4  C   UNL     1      42.730 -15.719   4.526  1.00  0.00    -0.008 A 
HETATM    5  C   UNL     1      41.848 -15.453   3.492  1.00  0.00    -0.028 A 
HETATM    6  C   UNL     1      41.050 -14.263   3.760  1.00  0.00     0.053 A 
HETATM    7  C   UNL     1      41.453 -13.681   4.959  1.00  0.00     0.114 A 
HETATM    8  N   UNL     1      40.967 -12.564   5.519  1.00  0.00    -0.234 NA
HETATM    9  C   UNL     1      39.998 -12.015   4.795  1.00  0.00     0.236 A 
HETATM   10  N   UNL     1      39.494 -12.468   3.640  1.00  0.00    -0.223 NA
HETATM   11  C   UNL     1      39.984 -13.604   3.086  1.00  0.00     0.143 A 
HETATM   12  S   UNL     1      42.688 -14.547   5.749  1.00  0.00    -0.073 SA
HETATM   13  C   UNL     1      41.761 -16.367   2.302  1.00  0.00     0.041 C 
HETATM   14  C   UNL     1      42.926 -17.369   2.231  1.00  0.00     0.009 C 
ENDROOT
BRANCH  11  15
HETATM   15  N   UNL     1      39.449 -14.084   1.881  1.00  0.00    -0.340 N 
HETATM   16  H   UNL     1      38.613 -14.630   1.997  1.00  0.00     0.167 HD
BRANCH  15  17
HETATM   17  C   UNL     1      39.756 -13.827   0.530  1.00  0.00     0.036 A 
HETATM   18  C   UNL     1      40.132 -12.518   0.175  1.00  0.00     0.069 A 
HETATM   19  C   UNL     1      40.416 -12.238  -1.147  1.00  0.00     0.107 A 
HETATM   20  C   UNL     1      40.333 -13.197  -2.123  1.00  0.00     0.105 A 
HETATM   21  O   UNL     1      40.799 -11.028  -1.638  1.00  0.00    -0.323 OA
HETATM   22  O   UNL     1      40.654 -12.718  -3.354  1.00  0.00    -0.323 OA
HETATM   23  C   UNL     1      39.955 -14.486  -1.830  1.00  0.00     0.042 A 
HETATM   24  C   UNL     1      40.949 -11.342  -3.039  1.00  0.00     0.352 A 
HETATM   25  C   UNL     1      39.660 -14.793  -0.494  1.00  0.00     0.032 A 
ENDBRANCH  15  17
ENDBRANCH  11  15
TORSDOF 2
ENDMDL
MODEL 3
REMARK VINA RESULT:      -8.3      4.261      6.424
REMARK  2 active torsions:
REMARK  status: ('A' for Active; 'I' for Inactive)
REMARK    1  A    between atoms: C_11  and  N_12 
REMARK    2  A    between atoms: N_12  and  C_13 
ROOT
HETATM    1  C   UNL     1      44.327 -19.917   4.847  1.00  0.00     0.010 C 
HETATM    2  C   UNL     1      44.229 -18.410   4.616  1.00  0.00    -0.014 C 
HETATM    3  C   UNL     1      43.483 -18.111   3.301  1.00  0.00     0.051 C 
HETATM    4  C   UNL     1      43.169 -16.648   3.199  1.00  0.00    -0.008 A 
HETATM    5  C   UNL     1      43.172 -15.743   4.247  1.00  0.00    -0.028 A 
HETATM    6  C   UNL     1      42.864 -14.394   3.792  1.00  0.00     0.053 A 
HETATM    7  C   UNL     1      42.580 -14.405   2.430  1.00  0.00     0.114 A 
HETATM    8  N   UNL     1      42.231 -13.358   1.668  1.00  0.00    -0.234 NA
HETATM    9  C   UNL     1      42.178 -12.224   2.359  1.00  0.00     0.236 A 
HETATM   10  N   UNL     1      42.444 -12.056   3.660  1.00  0.00    -0.223 NA
HETATM   11  C   UNL     1      42.805 -13.119   4.421  1.00  0.00     0.143 A 
HETATM   12  S   UNL     1      42.725 -15.946   1.722  1.00  0.00    -0.073 SA
HETATM   13  C   UNL     1      43.514 -16.187   5.643  1.00  0.00     0.041 C 
HETATM   14  C   UNL     1      43.528 -17.717   5.799  1.00  0.00     0.009 C 
ENDROOT
BRANCH  11  15
HETATM   15  N   UNL     1      43.093 -12.940   5.783  1.00  0.00    -0.340 N 
HETATM   16  H   UNL     1      42.838 -13.725   6.357  1.00  0.00     0.167 HD
BRANCH  15  17
HETATM   17  C   UNL     1      43.805 -11.950   6.488  1.00  0.00     0.036 A 
HETATM   18  C   UNL     1      43.079 -10.873   7.030  1.00  0.00     0.069 A 
HETATM   19  C   UNL     1      43.760  -9.879   7.705  1.00  0.00     0.107 A 
HETATM   20  C   UNL     1      45.123  -9.908   7.853  1.00  0.00     0.105 A 
HETATM   21  O   UNL     1      43.196  -8.786   8.288  1.00  0.00    -0.323 OA
HETATM   22  O   UNL     1      45.595  -8.841   8.549  1.00  0.00    -0.323 OA
HETATM   23  C   UNL     1      45.878 -10.930   7.328  1.00  0.00     0.042 A 
HETATM   24  C   UNL     1      44.368  -8.133   8.822  1.00  0.00     0.352 A 
HETATM   25  C   UNL     1      45.208 -11.950   6.637  1.00  0.00     0.032 A 
ENDBRANCH  15  17
ENDBRANCH  11  15
TORSDOF 2
ENDMDL
MODEL 4
REMARK VINA RESULT:      -8.3      3.788      7.056
REMARK  2 active torsions:
REMARK  status: ('A' for Active; 'I' for Inactive)
REMARK    1  A    between atoms: C_11  and  N_12 
REMARK    2  A    between atoms: N_12  and  C_13 
ROOT
HETATM    1  C   UNL     1      45.777  -9.479   9.094  1.00  0.00     0.010 C 
HETATM    2  C   UNL     1      44.832 -10.462   8.405  1.00  0.00    -0.014 C 
HETATM    3  C   UNL     1      43.598  -9.725   7.846  1.00  0.00     0.051 C 
HETATM    4  C   UNL     1      42.802 -10.638   6.962  1.00  0.00    -0.008 A 
HETATM    5  C   UNL     1      43.255 -11.817   6.395  1.00  0.00    -0.028 A 
HETATM    6  C   UNL     1      42.210 -12.480   5.627  1.00  0.00     0.053 A 
HETATM    7  C   UNL     1      41.058 -11.698   5.618  1.00  0.00     0.114 A 
HETATM    8  N   UNL     1      39.901 -11.969   4.996  1.00  0.00    -0.234 NA
HETATM    9  C   UNL     1      39.936 -13.126   4.345  1.00  0.00     0.236 A 
HETATM   10  N   UNL     1      40.957 -13.989   4.280  1.00  0.00    -0.223 NA
HETATM   11  C   UNL     1      42.119 -13.712   4.921  1.00  0.00     0.143 A 
HETATM   12  S   UNL     1      41.206 -10.267   6.528  1.00  0.00    -0.073 SA
HETATM   13  C   UNL     1      44.658 -12.298   6.643  1.00  0.00     0.041 C 
HETATM   14  C   UNL     1      45.556 -11.224   7.279  1.00  0.00     0.009 C 
ENDROOT
BRANCH  11  15
HETATM   15  N   UNL     1      43.187 -14.621   4.860  1.00  0.00    -0.340 N 
HETATM   16  H   UNL     1      43.985 -14.346   5.406  1.00  0.00     0.167 HD
BRANCH  15  17
HETATM   17  C   UNL     1      43.311 -15.915   4.316  1.00  0.00     0.036 A 
HETATM   18  C   UNL     1      43.628 -16.971   5.190  1.00  0.00     0.069 A 
HETATM   19  C   UNL     1      43.777 -18.245   4.676  1.00  0.00     0.107 A 
HETATM   20  C   UNL     1      43.633 -18.504   3.337  1.00  0.00     0.105 A 
HETATM   21  O   UNL     1      44.073 -19.361   5.393  1.00  0.00    -0.323 OA
HETATM   22  O   UNL     1      43.817 -19.817   3.038  1.00  0.00    -0.323 OA
HETATM   23  C   UNL     1      43.339 -17.504   2.441  1.00  0.00     0.042 A 
HETATM   24  C   UNL     1      44.096 -20.356   4.346  1.00  0.00     0.352 A 
HETATM   25  C   UNL     1      43.185 -16.203   2.941  1.00  0.00     0.032 A 
ENDBRANCH  15  17
ENDBRANCH  11  15
TORSDOF 2
ENDMDL
MODEL 5
REMARK VINA RESULT:      -8.1      3.100      6.289
REMARK  2 active torsions:
REMARK  status: ('A' for Active; 'I' for Inactive)
REMARK    1  A    between atoms: C_11  and  N_12 
REMARK    2  A    between atoms: N_12  and  C_13 
ROOT
HETATM    1  C   UNL     1      39.236 -14.211  -3.322  1.00  0.00     0.010 C 
HETATM    2  C   UNL     1      40.041 -14.027  -2.037  1.00  0.00    -0.014 C 
HETATM    3  C   UNL     1      40.216 -12.529  -1.717  1.00  0.00     0.051 C 
HETATM    4  C   UNL     1      40.783 -12.352  -0.340  1.00  0.00    -0.008 A 
HETATM    5  C   UNL     1      40.797 -13.309   0.661  1.00  0.00    -0.028 A 
HETATM    6  C   UNL     1      41.463 -12.821   1.861  1.00  0.00     0.053 A 
HETATM    7  C   UNL     1      41.839 -11.492   1.689  1.00  0.00     0.114 A 
HETATM    8  N   UNL     1      42.453 -10.703   2.582  1.00  0.00    -0.234 NA
HETATM    9  C   UNL     1      42.699 -11.330   3.727  1.00  0.00     0.236 A 
HETATM   10  N   UNL     1      42.417 -12.603   4.030  1.00  0.00    -0.223 NA
HETATM   11  C   UNL     1      41.805 -13.397   3.116  1.00  0.00     0.143 A 
HETATM   12  S   UNL     1      41.459 -10.877   0.147  1.00  0.00    -0.073 SA
HETATM   13  C   UNL     1      40.214 -14.675   0.425  1.00  0.00     0.041 C 
HETATM   14  C   UNL     1      39.367 -14.752  -0.856  1.00  0.00     0.009 C 
ENDROOT
BRANCH  11  15
HETATM   15  N   UNL     1      41.517 -14.734   3.431  1.00  0.00    -0.340 N 
HETATM   16  H   UNL     1      40.535 -14.948   3.432  1.00  0.00     0.167 HD
BRANCH  15  17
HETATM   17  C   UNL     1      42.329 -15.873   3.593  1.00  0.00     0.036 A 
HETATM   18  C   UNL     1      42.194 -16.920   2.662  1.00  0.00     0.069 A 
HETATM   19  C   UNL     1      42.964 -18.056   2.814  1.00  0.00     0.107 A 
HETATM   20  C   UNL     1      43.848 -18.196   3.852  1.00  0.00     0.105 A 
HETATM   21  O   UNL     1      42.949 -19.141   1.992  1.00  0.00    -0.323 OA
HETATM   22  O   UNL     1      44.508 -19.384   3.819  1.00  0.00    -0.323 OA
HETATM   23  C   UNL     1      44.006 -17.210   4.796  1.00  0.00     0.042 A 
HETATM   24  C   UNL     1      43.933 -19.979   2.637  1.00  0.00     0.352 A 
HETATM   25  C   UNL     1      43.233 -16.047   4.663  1.00  0.00     0.032 A 
ENDBRANCH  15  17
ENDBRANCH  11  15
TORSDOF 2
ENDMDL
MODEL 6
REMARK VINA RESULT:      -7.8      4.033      7.535
REMARK  2 active torsions:
REMARK  status: ('A' for Active; 'I' for Inactive)
REMARK    1  A    between atoms: C_11  and  N_12 
REMARK    2  A    between atoms: N_12  and  C_13 
ROOT
HETATM    1  C   UNL     1      38.735  -9.171   5.851  1.00  0.00     0.010 C 
HETATM    2  C   UNL     1      38.709 -10.371   4.907  1.00  0.00    -0.014 C 
HETATM    3  C   UNL     1      39.056  -9.939   3.469  1.00  0.00     0.051 C 
HETATM    4  C   UNL     1      39.275 -11.141   2.600  1.00  0.00    -0.008 A 
HETATM    5  C   UNL     1      39.524 -12.428   3.044  1.00  0.00    -0.028 A 
HETATM    6  C   UNL     1      39.644 -13.365   1.935  1.00  0.00     0.053 A 
HETATM    7  C   UNL     1      39.546 -12.684   0.725  1.00  0.00     0.114 A 
HETATM    8  N   UNL     1      39.633 -13.207  -0.506  1.00  0.00    -0.234 NA
HETATM    9  C   UNL     1      39.830 -14.521  -0.486  1.00  0.00     0.236 A 
HETATM   10  N   UNL     1      39.924 -15.309   0.592  1.00  0.00    -0.223 NA
HETATM   11  C   UNL     1      39.824 -14.773   1.834  1.00  0.00     0.143 A 
HETATM   12  S   UNL     1      39.271 -11.014   0.910  1.00  0.00    -0.073 SA
HETATM   13  C   UNL     1      39.593 -12.732   4.515  1.00  0.00     0.041 C 
HETATM   14  C   UNL     1      39.681 -11.467   5.385  1.00  0.00     0.009 C 
ENDROOT
BRANCH  11  15
HETATM   15  N   UNL     1      39.914 -15.601   2.964  1.00  0.00    -0.340 N 
HETATM   16  H   UNL     1      39.025 -15.934   3.293  1.00  0.00     0.167 HD
BRANCH  15  17
HETATM   17  C   UNL     1      41.005 -16.184   3.636  1.00  0.00     0.036 A 
HETATM   18  C   UNL     1      41.057 -16.067   5.038  1.00  0.00     0.069 A 
HETATM   19  C   UNL     1      42.129 -16.612   5.717  1.00  0.00     0.107 A 
HETATM   20  C   UNL     1      43.148 -17.255   5.062  1.00  0.00     0.105 A 
HETATM   21  O   UNL     1      42.312 -16.586   7.065  1.00  0.00    -0.323 OA
HETATM   22  O   UNL     1      44.103 -17.719   5.911  1.00  0.00    -0.323 OA
HETATM   23  C   UNL     1      43.152 -17.381   3.693  1.00  0.00     0.042 A 
HETATM   24  C   UNL     1      43.567 -17.291   7.179  1.00  0.00     0.352 A 
HETATM   25  C   UNL     1      42.073 -16.834   2.983  1.00  0.00     0.032 A 
ENDBRANCH  15  17
ENDBRANCH  11  15
TORSDOF 2
ENDMDL
MODEL 7
REMARK VINA RESULT:      -7.7     14.568     16.586
REMARK  2 active torsions:
REMARK  status: ('A' for Active; 'I' for Inactive)
REMARK    1  A    between atoms: C_11  and  N_12 
REMARK    2  A    between atoms: N_12  and  C_13 
ROOT
HETATM    1  C   UNL     1      53.114 -32.643  -1.874  1.00  0.00     0.010 C 
HETATM    2  C   UNL     1      51.785 -32.011  -1.462  1.00  0.00    -0.014 C 
HETATM    3  C   UNL     1      51.756 -31.754   0.057  1.00  0.00     0.051 C 
HETATM    4  C   UNL     1      50.568 -30.914   0.422  1.00  0.00    -0.008 A 
HETATM    5  C   UNL     1      49.818 -30.148  -0.453  1.00  0.00    -0.028 A 
HETATM    6  C   UNL     1      48.707 -29.492   0.225  1.00  0.00     0.053 A 
HETATM    7  C   UNL     1      48.755 -29.765   1.589  1.00  0.00     0.114 A 
HETATM    8  N   UNL     1      47.915 -29.316   2.533  1.00  0.00    -0.234 NA
HETATM    9  C   UNL     1      46.961 -28.539   2.034  1.00  0.00     0.236 A 
HETATM   10  N   UNL     1      46.776 -28.206   0.751  1.00  0.00    -0.223 NA
HETATM   11  C   UNL     1      47.624 -28.672  -0.199  1.00  0.00     0.143 A 
HETATM   12  S   UNL     1      50.035 -30.798   2.027  1.00  0.00    -0.073 SA
HETATM   13  C   UNL     1      50.156 -30.101  -1.917  1.00  0.00     0.041 C 
HETATM   14  C   UNL     1      51.537 -30.700  -2.232  1.00  0.00     0.009 C 
ENDROOT
BRANCH  11  15
HETATM   15  N   UNL     1      47.424 -28.330  -1.546  1.00  0.00    -0.340 N 
HETATM   16  H   UNL     1      48.151 -27.750  -1.929  1.00  0.00     0.167 HD
BRANCH  15  17
HETATM   17  C   UNL     1      46.495 -28.761  -2.513  1.00  0.00     0.036 A 
HETATM   18  C   UNL     1      46.598 -30.082  -2.986  1.00  0.00     0.069 A 
HETATM   19  C   UNL     1      45.712 -30.520  -3.951  1.00  0.00     0.107 A 
HETATM   20  C   UNL     1      44.742 -29.699  -4.467  1.00  0.00     0.105 A 
HETATM   21  O   UNL     1      45.682 -31.766  -4.495  1.00  0.00    -0.323 OA
HETATM   22  O   UNL     1      43.975 -30.321  -5.400  1.00  0.00    -0.323 OA
HETATM   23  C   UNL     1      44.611 -28.396  -4.049  1.00  0.00     0.042 A 
HETATM   24  C   UNL     1      44.577 -31.631  -5.414  1.00  0.00     0.352 A 
HETATM   25  C   UNL     1      45.501 -27.929  -3.071  1.00  0.00     0.032 A 
ENDBRANCH  15  17
ENDBRANCH  11  15
TORSDOF 2
ENDMDL
MODEL 8
REMARK VINA RESULT:      -7.6      4.587      6.982
REMARK  2 active torsions:
REMARK  status: ('A' for Active; 'I' for Inactive)
REMARK    1  A    between atoms: C_11  and  N_12 
REMARK    2  A    between atoms: N_12  and  C_13 
ROOT
HETATM    1  C   UNL     1      43.374 -18.425   6.446  1.00  0.00     0.010 C 
HETATM    2  C   UNL     1      43.515 -17.102   5.698  1.00  0.00    -0.014 C 
HETATM    3  C   UNL     1      42.386 -16.943   4.660  1.00  0.00     0.051 C 
HETATM    4  C   UNL     1      42.377 -15.549   4.107  1.00  0.00    -0.008 A 
HETATM    5  C   UNL     1      42.994 -14.447   4.675  1.00  0.00    -0.028 A 
HETATM    6  C   UNL     1      42.824 -13.255   3.855  1.00  0.00     0.053 A 
HETATM    7  C   UNL     1      42.022 -13.545   2.755  1.00  0.00     0.114 A 
HETATM    8  N   UNL     1      41.628 -12.695   1.795  1.00  0.00    -0.234 NA
HETATM    9  C   UNL     1      42.100 -11.467   1.981  1.00  0.00     0.236 A 
HETATM   10  N   UNL     1      42.894 -11.046   2.972  1.00  0.00    -0.223 NA
HETATM   11  C   UNL     1      43.296 -11.914   3.934  1.00  0.00     0.143 A 
HETATM   12  S   UNL     1      41.539 -15.175   2.682  1.00  0.00    -0.073 SA
HETATM   13  C   UNL     1      43.764 -14.576   5.960  1.00  0.00     0.041 C 
HETATM   14  C   UNL     1      43.513 -15.913   6.678  1.00  0.00     0.009 C 
ENDROOT
BRANCH  11  15
HETATM   15  N   UNL     1      44.136 -11.475   4.969  1.00  0.00    -0.340 N 
HETATM   16  H   UNL     1      45.107 -11.430   4.711  1.00  0.00     0.167 HD
BRANCH  15  17
HETATM   17  C   UNL     1      43.879 -10.937   6.245  1.00  0.00     0.036 A 
HETATM   18  C   UNL     1      44.824 -11.169   7.262  1.00  0.00     0.069 A 
HETATM   19  C   UNL     1      44.583 -10.670   8.527  1.00  0.00     0.107 A 
HETATM   20  C   UNL     1      43.444  -9.964   8.821  1.00  0.00     0.105 A 
HETATM   21  O   UNL     1      45.403 -10.805   9.604  1.00  0.00    -0.323 OA
HETATM   22  O   UNL     1      43.400  -9.561  10.118  1.00  0.00    -0.323 OA
HETATM   23  C   UNL     1      42.485  -9.725   7.866  1.00  0.00     0.042 A 
HETATM   24  C   UNL     1      44.645 -10.098  10.609  1.00  0.00     0.352 A 
HETATM   25  C   UNL     1      42.708 -10.223   6.574  1.00  0.00     0.032 A 
ENDBRANCH  15  17
ENDBRANCH  11  15
TORSDOF 2
ENDMDL
MODEL 9
REMARK VINA RESULT:      -7.6      3.409      6.884
REMARK  2 active torsions:
REMARK  status: ('A' for Active; 'I' for Inactive)
REMARK    1  A    between atoms: C_11  and  N_12 
REMARK    2  A    between atoms: N_12  and  C_13 
ROOT
HETATM    1  C   UNL     1      43.028 -10.223   7.355  1.00  0.00     0.010 C 
HETATM    2  C   UNL     1      42.608 -11.282   6.339  1.00  0.00    -0.014 C 
HETATM    3  C   UNL     1      41.536 -10.722   5.384  1.00  0.00     0.051 C 
HETATM    4  C   UNL     1      41.307 -11.667   4.242  1.00  0.00    -0.008 A 
HETATM    5  C   UNL     1      42.158 -12.687   3.851  1.00  0.00    -0.028 A 
HETATM    6  C   UNL     1      41.611 -13.442   2.732  1.00  0.00     0.053 A 
HETATM    7  C   UNL     1      40.408 -12.877   2.319  1.00  0.00     0.114 A 
HETATM    8  N   UNL     1      39.629 -13.283   1.306  1.00  0.00    -0.234 NA
HETATM    9  C   UNL     1      40.124 -14.346   0.681  1.00  0.00     0.236 A 
HETATM   10  N   UNL     1      41.251 -15.006   0.975  1.00  0.00    -0.223 NA
HETATM   11  C   UNL     1      42.027 -14.595   2.008  1.00  0.00     0.143 A 
HETATM   12  S   UNL     1      39.932 -11.540   3.259  1.00  0.00    -0.073 SA
HETATM   13  C   UNL     1      43.446 -12.937   4.586  1.00  0.00     0.041 C 
HETATM   14  C   UNL     1      43.823 -11.791   5.540  1.00  0.00     0.009 C 
ENDROOT
BRANCH  11  15
HETATM   15  N   UNL     1      43.204 -15.293   2.321  1.00  0.00    -0.340 N 
HETATM   16  H   UNL     1      44.046 -14.792   2.092  1.00  0.00     0.167 HD
BRANCH  15  17
HETATM   17  C   UNL     1      43.448 -16.484   3.033  1.00  0.00     0.036 A 
HETATM   18  C   UNL     1      43.416 -17.697   2.320  1.00  0.00     0.069 A 
HETATM   19  C   UNL     1      43.630 -18.880   3.001  1.00  0.00     0.107 A 
HETATM   20  C   UNL     1      43.861 -18.904   4.352  1.00  0.00     0.105 A 
HETATM   21  O   UNL     1      43.638 -20.123   2.449  1.00  0.00    -0.323 OA
HETATM   22  O   UNL     1      44.049 -20.164   4.827  1.00  0.00    -0.323 OA
HETATM   23  C   UNL     1      43.886 -17.747   5.095  1.00  0.00     0.042 A 
HETATM   24  C   UNL     1      43.905 -20.932   3.615  1.00  0.00     0.352 A 
HETATM   25  C   UNL     1      43.670 -16.535   4.425  1.00  0.00     0.032 A 
ENDBRANCH  15  17
ENDBRANCH  11  15
TORSDOF 2
ENDMDL
MODEL 10
REMARK VINA RESULT:      -7.3      4.100      6.271
REMARK  2 active torsions:
REMARK  status: ('A' for Active; 'I' for Inactive)
REMARK    1  A    between atoms: C_11  and  N_12 
REMARK    2  A    between atoms: N_12  and  C_13 
ROOT
HETATM    1  C   UNL     1      43.337 -18.751   3.563  1.00  0.00     0.010 C 
HETATM    2  C   UNL     1      43.343 -17.287   3.128  1.00  0.00    -0.014 C 
HETATM    3  C   UNL     1      42.074 -16.958   2.317  1.00  0.00     0.051 C 
HETATM    4  C   UNL     1      41.958 -15.478   2.106  1.00  0.00    -0.008 A 
HETATM    5  C   UNL     1      42.627 -14.501   2.825  1.00  0.00    -0.028 A 
HETATM    6  C   UNL     1      42.318 -13.166   2.332  1.00  0.00     0.053 A 
HETATM    7  C   UNL     1      41.373 -13.242   1.313  1.00  0.00     0.114 A 
HETATM    8  N   UNL     1      40.829 -12.220   0.636  1.00  0.00    -0.234 NA
HETATM    9  C   UNL     1      41.297 -11.042   1.035  1.00  0.00     0.236 A 
HETATM   10  N   UNL     1      42.217 -10.815   1.980  1.00  0.00    -0.223 NA
HETATM   11  C   UNL     1      42.769 -11.855   2.653  1.00  0.00     0.143 A 
HETATM   12  S   UNL     1      40.917 -14.838   0.932  1.00  0.00    -0.073 SA
HETATM   13  C   UNL     1      43.576 -14.876   3.930  1.00  0.00     0.041 C 
HETATM   14  C   UNL     1      43.457 -16.351   4.347  1.00  0.00     0.009 C 
ENDROOT
BRANCH  11  15
HETATM   15  N   UNL     1      43.740 -11.616   3.638  1.00  0.00    -0.340 N 
HETATM   16  H   UNL     1      44.678 -11.572   3.280  1.00  0.00     0.167 HD
BRANCH  15  17
HETATM   17  C   UNL     1      43.654 -11.273   5.001  1.00  0.00     0.036 A 
HETATM   18  C   UNL     1      42.568 -10.478   5.415  1.00  0.00     0.069 A 
HETATM   19  C   UNL     1      42.475 -10.110   6.743  1.00  0.00     0.107 A 
HETATM   20  C   UNL     1      43.415 -10.490   7.666  1.00  0.00     0.105 A 
HETATM   21  O   UNL     1      41.483  -9.356   7.290  1.00  0.00    -0.323 OA
HETATM   22  O   UNL     1      43.138 -10.027   8.913  1.00  0.00    -0.323 OA
HETATM   23  C   UNL     1      44.501 -11.253   7.309  1.00  0.00     0.042 A 
HETATM   24  C   UNL     1      41.912  -9.308   8.668  1.00  0.00     0.352 A 
HETATM   25  C   UNL     1      44.618 -11.637   5.965  1.00  0.00     0.032 A 
ENDBRANCH  15  17
ENDBRANCH  11  15
TORSDOF 2
ENDMDL
