MODEL 1
REMARK VINA RESULT:      -9.1      0.000      0.000
REMARK  6 active torsions:
REMARK  status: ('A' for Active; 'I' for Inactive)
REMARK    1  A    between atoms: C_8  and  C_9 
REMARK    2  A    between atoms: C_9  and  C_10 
REMARK    3  A    between atoms: C_10  and  N_11 
REMARK    4  A    between atoms: C_10  and  C_19 
REMARK       I    between atoms: N_11  and  C_12 
REMARK    5  A    between atoms: C_12  and  C_13 
REMARK       I    between atoms: C_19  and  N_20 
REMARK    6  A    between atoms: N_20  and  C_21 
ROOT
HETATM    1  C   UNL     1      41.818 -15.162   2.964  1.00  0.00     0.181 C 
ENDROOT
BRANCH   1   2
HETATM    2  C   UNL     1      43.217 -15.781   2.769  1.00  0.00     0.075 C 
BRANCH   2   3
HETATM    3  C   UNL     1      43.578 -16.865   3.743  1.00  0.00    -0.028 A 
HETATM    4  C   UNL     1      43.633 -18.272   3.469  1.00  0.00    -0.002 A 
HETATM    5  C   UNL     1      43.424 -19.062   2.318  1.00  0.00     0.014 A 
HETATM    6  C   UNL     1      43.969 -18.916   4.659  1.00  0.00     0.042 A 
HETATM    7  C   UNL     1      43.550 -20.453   2.402  1.00  0.00     0.001 A 
HETATM    8  C   UNL     1      43.877 -21.065   3.608  1.00  0.00     0.002 A 
HETATM    9  C   UNL     1      44.093 -20.307   4.763  1.00  0.00     0.030 A 
HETATM   10  N   UNL     1      44.136 -17.943   5.615  1.00  0.00    -0.365 N 
HETATM   11  H   UNL     1      44.387 -18.120   6.578  1.00  0.00     0.165 HD
HETATM   12  C   UNL     1      43.922 -16.706   5.071  1.00  0.00     0.096 A 
ENDBRANCH   2   3
ENDBRANCH   1   2
BRANCH   1  13
HETATM   13  N   UNL     1      41.336 -14.492   1.755  1.00  0.00    -0.343 N 
HETATM   14  C   UNL     1      40.343 -14.992   0.951  1.00  0.00     0.259 C 
HETATM   15  O   UNL     1      39.773 -16.046   1.229  1.00  0.00    -0.267 OA
HETATM   16  H   UNL     1      41.713 -13.568   1.558  1.00  0.00     0.163 HD
BRANCH  14  17
HETATM   17  C   UNL     1      40.037 -14.213  -0.241  1.00  0.00     0.072 A 
HETATM   18  S   UNL     1      40.562 -12.592  -0.442  1.00  0.00    -0.097 SA
HETATM   19  C   UNL     1      39.854 -12.476  -1.992  1.00  0.00     0.050 A 
HETATM   20  C   UNL     1      39.225 -13.644  -2.360  1.00  0.00     0.009 A 
HETATM   21  C   UNL     1      39.327 -14.643  -1.350  1.00  0.00     0.025 A 
ENDBRANCH  14  17
ENDBRANCH   1  13
BRANCH   1  22
HETATM   22  C   UNL     1      41.719 -14.131   4.122  1.00  0.00     0.245 C 
HETATM   23  N   UNL     1      42.871 -13.405   4.365  1.00  0.00    -0.324 N 
HETATM   24  H   UNL     1      43.623 -13.482   3.695  1.00  0.00     0.169 HD
HETATM   25  O   UNL     1      40.680 -14.039   4.779  1.00  0.00    -0.271 OA
BRANCH  23  26
HETATM   26  C   UNL     1      43.037 -12.400   5.344  1.00  0.00     0.052 A 
HETATM   27  C   UNL     1      42.480 -11.125   5.295  1.00  0.00     0.145 A 
HETATM   28  N   UNL     1      42.662 -10.176   6.252  1.00  0.00    -0.271 NA
HETATM   29  C   UNL     1      43.438 -10.509   7.302  1.00  0.00     0.116 A 
HETATM   30  C   UNL     1      44.037 -11.748   7.448  1.00  0.00     0.021 A 
HETATM   31  C   UNL     1      43.828 -12.704   6.456  1.00  0.00     0.032 A 
ENDBRANCH  23  26
ENDBRANCH   1  22
TORSDOF 6
ENDMDL
MODEL 2
REMARK VINA RESULT:      -8.9      2.036      2.300
REMARK  6 active torsions:
REMARK  status: ('A' for Active; 'I' for Inactive)
REMARK    1  A    between atoms: C_8  and  C_9 
REMARK    2  A    between atoms: C_9  and  C_10 
REMARK    3  A    between atoms: C_10  and  N_11 
REMARK    4  A    between atoms: C_10  and  C_19 
REMARK       I    between atoms: N_11  and  C_12 
REMARK    5  A    between atoms: C_12  and  C_13 
REMARK       I    between atoms: C_19  and  N_20 
REMARK    6  A    between atoms: N_20  and  C_21 
ROOT
HETATM    1  C   UNL     1      41.622 -15.010   2.444  1.00  0.00     0.181 C 
ENDROOT
BRANCH   1   2
HETATM    2  C   UNL     1      43.070 -15.534   2.355  1.00  0.00     0.075 C 
BRANCH   2   3
HETATM    3  C   UNL     1      43.437 -16.571   3.375  1.00  0.00    -0.028 A 
HETATM    4  C   UNL     1      43.514 -17.988   3.160  1.00  0.00    -0.002 A 
HETATM    5  C   UNL     1      43.325 -18.827   2.042  1.00  0.00     0.014 A 
HETATM    6  C   UNL     1      43.849 -18.578   4.379  1.00  0.00     0.042 A 
HETATM    7  C   UNL     1      43.468 -20.212   2.184  1.00  0.00     0.001 A 
HETATM    8  C   UNL     1      43.794 -20.768   3.417  1.00  0.00     0.002 A 
HETATM    9  C   UNL     1      43.991 -19.961   4.540  1.00  0.00     0.030 A 
HETATM   10  N   UNL     1      43.995 -17.563   5.294  1.00  0.00    -0.365 N 
HETATM   11  H   UNL     1      44.241 -17.697   6.265  1.00  0.00     0.165 HD
HETATM   12  C   UNL     1      43.769 -16.353   4.698  1.00  0.00     0.096 A 
ENDBRANCH   2   3
ENDBRANCH   1   2
BRANCH   1  13
HETATM   13  N   UNL     1      41.125 -14.535   1.151  1.00  0.00    -0.343 N 
HETATM   14  C   UNL     1      40.112 -15.143   0.454  1.00  0.00     0.259 C 
HETATM   15  O   UNL     1      39.536 -16.131   0.906  1.00  0.00    -0.267 OA
HETATM   16  H   UNL     1      41.509 -13.660   0.803  1.00  0.00     0.163 HD
BRANCH  14  17
HETATM   17  C   UNL     1      39.793 -14.561  -0.842  1.00  0.00     0.072 A 
HETATM   18  S   UNL     1      40.293 -12.983  -1.292  1.00  0.00    -0.097 SA
HETATM   19  C   UNL     1      39.581 -13.117  -2.838  1.00  0.00     0.050 A 
HETATM   20  C   UNL     1      38.969 -14.336  -3.020  1.00  0.00     0.009 A 
HETATM   21  C   UNL     1      39.088 -15.166  -1.869  1.00  0.00     0.025 A 
ENDBRANCH  14  17
ENDBRANCH   1  13
BRANCH   1  22
HETATM   22  C   UNL     1      41.410 -13.854   3.460  1.00  0.00     0.245 C 
HETATM   23  N   UNL     1      40.090 -13.549   3.739  1.00  0.00    -0.324 N 
HETATM   24  H   UNL     1      39.380 -14.180   3.393  1.00  0.00     0.169 HD
HETATM   25  O   UNL     1      42.381 -13.250   3.920  1.00  0.00    -0.271 OA
BRANCH  23  26
HETATM   26  C   UNL     1      39.629 -12.559   4.634  1.00  0.00     0.052 A 
HETATM   27  C   UNL     1      39.520 -12.706   6.015  1.00  0.00     0.145 A 
HETATM   28  N   UNL     1      39.069 -11.734   6.852  1.00  0.00    -0.271 NA
HETATM   29  C   UNL     1      38.703 -10.565   6.289  1.00  0.00     0.116 A 
HETATM   30  C   UNL     1      38.773 -10.315   4.930  1.00  0.00     0.021 A 
HETATM   31  C   UNL     1      39.247 -11.326   4.096  1.00  0.00     0.032 A 
ENDBRANCH  23  26
ENDBRANCH   1  22
TORSDOF 6
ENDMDL
MODEL 3
REMARK VINA RESULT:      -8.4      1.631      5.625
REMARK  6 active torsions:
REMARK  status: ('A' for Active; 'I' for Inactive)
REMARK    1  A    between atoms: C_8  and  C_9 
REMARK    2  A    between atoms: C_9  and  C_10 
REMARK    3  A    between atoms: C_10  and  N_11 
REMARK    4  A    between atoms: C_10  and  C_19 
REMARK       I    between atoms: N_11  and  C_12 
REMARK    5  A    between atoms: C_12  and  C_13 
REMARK       I    between atoms: C_19  and  N_20 
REMARK    6  A    between atoms: N_20  and  C_21 
ROOT
HETATM    1  C   UNL     1      41.101 -14.008   2.156  1.00  0.00     0.181 C 
ENDROOT
BRANCH   1   2
HETATM    2  C   UNL     1      40.536 -13.029   3.204  1.00  0.00     0.075 C 
BRANCH   2   3
HETATM    3  C   UNL     1      41.150 -13.130   4.570  1.00  0.00    -0.028 A 
HETATM    4  C   UNL     1      42.423 -12.606   4.972  1.00  0.00    -0.002 A 
HETATM    5  C   UNL     1      43.433 -11.864   4.323  1.00  0.00     0.014 A 
HETATM    6  C   UNL     1      42.619 -12.959   6.307  1.00  0.00     0.042 A 
HETATM    7  C   UNL     1      44.594 -11.515   5.024  1.00  0.00     0.001 A 
HETATM    8  C   UNL     1      44.760 -11.892   6.353  1.00  0.00     0.002 A 
HETATM    9  C   UNL     1      43.774 -12.622   7.022  1.00  0.00     0.030 A 
HETATM   10  N   UNL     1      41.501 -13.649   6.712  1.00  0.00    -0.365 N 
HETATM   11  H   UNL     1      41.364 -14.027   7.639  1.00  0.00     0.165 HD
HETATM   12  C   UNL     1      40.604 -13.742   5.682  1.00  0.00     0.096 A 
ENDBRANCH   2   3
ENDBRANCH   1   2
BRANCH   1  13
HETATM   13  N   UNL     1      40.230 -14.129   0.985  1.00  0.00    -0.343 N 
HETATM   14  C   UNL     1      40.323 -13.322  -0.121  1.00  0.00     0.259 C 
HETATM   15  O   UNL     1      41.186 -12.449  -0.198  1.00  0.00    -0.267 OA
HETATM   16  H   UNL     1      39.578 -14.909   0.975  1.00  0.00     0.163 HD
BRANCH  14  17
HETATM   17  C   UNL     1      39.332 -13.554  -1.163  1.00  0.00     0.072 A 
HETATM   18  S   UNL     1      38.044 -12.463  -1.469  1.00  0.00    -0.097 SA
HETATM   19  C   UNL     1      37.446 -13.414  -2.755  1.00  0.00     0.050 A 
HETATM   20  C   UNL     1      38.204 -14.545  -2.956  1.00  0.00     0.009 A 
HETATM   21  C   UNL     1      39.288 -14.628  -2.036  1.00  0.00     0.025 A 
ENDBRANCH  14  17
ENDBRANCH   1  13
BRANCH   1  22
HETATM   22  C   UNL     1      41.356 -15.448   2.679  1.00  0.00     0.245 C 
HETATM   23  N   UNL     1      42.684 -15.828   2.739  1.00  0.00    -0.324 N 
HETATM   24  H   UNL     1      43.383 -15.113   2.591  1.00  0.00     0.169 HD
HETATM   25  O   UNL     1      40.404 -16.179   2.961  1.00  0.00    -0.271 OA
BRANCH  23  26
HETATM   26  C   UNL     1      43.182 -17.070   3.191  1.00  0.00     0.052 A 
HETATM   27  C   UNL     1      43.687 -17.323   4.464  1.00  0.00     0.145 A 
HETATM   28  N   UNL     1      44.163 -18.530   4.870  1.00  0.00    -0.271 NA
HETATM   29  C   UNL     1      44.141 -19.530   3.966  1.00  0.00     0.116 A 
HETATM   30  C   UNL     1      43.658 -19.386   2.677  1.00  0.00     0.021 A 
HETATM   31  C   UNL     1      43.170 -18.139   2.290  1.00  0.00     0.032 A 
ENDBRANCH  23  26
ENDBRANCH   1  22
TORSDOF 6
ENDMDL
MODEL 4
REMARK VINA RESULT:      -8.4      2.393      6.152
REMARK  6 active torsions:
REMARK  status: ('A' for Active; 'I' for Inactive)
REMARK    1  A    between atoms: C_8  and  C_9 
REMARK    2  A    between atoms: C_9  and  C_10 
REMARK    3  A    between atoms: C_10  and  N_11 
REMARK    4  A    between atoms: C_10  and  C_19 
REMARK       I    between atoms: N_11  and  C_12 
REMARK    5  A    between atoms: C_12  and  C_13 
REMARK       I    between atoms: C_19  and  N_20 
REMARK    6  A    between atoms: N_20  and  C_21 
ROOT
HETATM    1  C   UNL     1      42.676 -13.448   3.119  1.00  0.00     0.181 C 
ENDROOT
BRANCH   1   2
HETATM    2  C   UNL     1      41.171 -13.231   2.870  1.00  0.00     0.075 C 
BRANCH   2   3
HETATM    3  C   UNL     1      40.610 -13.949   1.677  1.00  0.00    -0.028 A 
HETATM    4  C   UNL     1      40.578 -13.463   0.328  1.00  0.00    -0.002 A 
HETATM    5  C   UNL     1      41.032 -12.288  -0.308  1.00  0.00     0.014 A 
HETATM    6  C   UNL     1      39.936 -14.427  -0.449  1.00  0.00     0.042 A 
HETATM    7  C   UNL     1      40.821 -12.119  -1.682  1.00  0.00     0.001 A 
HETATM    8  C   UNL     1      40.169 -13.097  -2.425  1.00  0.00     0.002 A 
HETATM    9  C   UNL     1      39.713 -14.273  -1.823  1.00  0.00     0.030 A 
HETATM   10  N   UNL     1      39.612 -15.470   0.385  1.00  0.00    -0.365 N 
HETATM   11  H   UNL     1      39.138 -16.314   0.093  1.00  0.00     0.165 HD
HETATM   12  C   UNL     1      40.029 -15.202   1.661  1.00  0.00     0.096 A 
ENDBRANCH   2   3
ENDBRANCH   1   2
BRANCH   1  13
HETATM   13  N   UNL     1      42.943 -14.689   3.850  1.00  0.00    -0.343 N 
HETATM   14  C   UNL     1      43.350 -15.854   3.252  1.00  0.00     0.259 C 
HETATM   15  O   UNL     1      43.543 -15.909   2.038  1.00  0.00    -0.267 OA
HETATM   16  H   UNL     1      42.895 -14.645   4.865  1.00  0.00     0.163 HD
BRANCH  14  17
HETATM   17  C   UNL     1      43.509 -17.001   4.135  1.00  0.00     0.072 A 
HETATM   18  S   UNL     1      43.087 -16.949   5.797  1.00  0.00    -0.097 SA
HETATM   19  C   UNL     1      43.529 -18.582   6.036  1.00  0.00     0.050 A 
HETATM   20  C   UNL     1      43.992 -19.166   4.879  1.00  0.00     0.009 A 
HETATM   21  C   UNL     1      43.984 -18.254   3.785  1.00  0.00     0.025 A 
ENDBRANCH  14  17
ENDBRANCH   1  13
BRANCH   1  22
HETATM   22  C   UNL     1      43.379 -12.304   3.901  1.00  0.00     0.245 C 
HETATM   23  N   UNL     1      43.354 -12.429   5.278  1.00  0.00    -0.324 N 
HETATM   24  H   UNL     1      43.028 -13.305   5.663  1.00  0.00     0.169 HD
HETATM   25  O   UNL     1      43.866 -11.349   3.292  1.00  0.00    -0.271 OA
BRANCH  23  26
HETATM   26  C   UNL     1      43.931 -11.540   6.212  1.00  0.00     0.052 A 
HETATM   27  C   UNL     1      43.254 -10.532   6.892  1.00  0.00     0.145 A 
HETATM   28  N   UNL     1      43.838  -9.688   7.784  1.00  0.00    -0.271 NA
HETATM   29  C   UNL     1      45.158  -9.851   8.003  1.00  0.00     0.116 A 
HETATM   30  C   UNL     1      45.923 -10.822   7.381  1.00  0.00     0.021 A 
HETATM   31  C   UNL     1      45.296 -11.678   6.478  1.00  0.00     0.032 A 
ENDBRANCH  23  26
ENDBRANCH   1  22
TORSDOF 6
ENDMDL
MODEL 5
REMARK VINA RESULT:      -8.4      2.974      6.691
REMARK  6 active torsions:
REMARK  status: ('A' for Active; 'I' for Inactive)
REMARK    1  A    between atoms: C_8  and  C_9 
REMARK    2  A    between atoms: C_9  and  C_10 
REMARK    3  A    between atoms: C_10  and  N_11 
REMARK    4  A    between atoms: C_10  and  C_19 
REMARK       I    between atoms: N_11  and  C_12 
REMARK    5  A    between atoms: C_12  and  C_13 
REMARK       I    between atoms: C_19  and  N_20 
REMARK    6  A    between atoms: N_20  and  C_21 
ROOT
HETATM    1  C   UNL     1      43.223 -13.220   6.055  1.00  0.00     0.181 C 
ENDROOT
BRANCH   1   2
HETATM    2  C   UNL     1      42.813 -14.606   6.593  1.00  0.00     0.075 C 
BRANCH   2   3
HETATM    3  C   UNL     1      43.431 -15.775   5.883  1.00  0.00    -0.028 A 
HETATM    4  C   UNL     1      42.996 -16.342   4.639  1.00  0.00    -0.002 A 
HETATM    5  C   UNL     1      41.973 -16.032   3.718  1.00  0.00     0.014 A 
HETATM    6  C   UNL     1      43.822 -17.432   4.365  1.00  0.00     0.042 A 
HETATM    7  C   UNL     1      41.809 -16.822   2.574  1.00  0.00     0.001 A 
HETATM    8  C   UNL     1      42.644 -17.909   2.337  1.00  0.00     0.002 A 
HETATM    9  C   UNL     1      43.669 -18.236   3.229  1.00  0.00     0.030 A 
HETATM   10  N   UNL     1      44.738 -17.514   5.386  1.00  0.00    -0.365 N 
HETATM   11  H   UNL     1      45.466 -18.211   5.450  1.00  0.00     0.165 HD
HETATM   12  C   UNL     1      44.525 -16.511   6.293  1.00  0.00     0.096 A 
ENDBRANCH   2   3
ENDBRANCH   1   2
BRANCH   1  13
HETATM   13  N   UNL     1      43.293 -12.214   7.117  1.00  0.00    -0.343 N 
HETATM   14  C   UNL     1      44.396 -11.432   7.355  1.00  0.00     0.259 C 
HETATM   15  O   UNL     1      45.400 -11.522   6.650  1.00  0.00    -0.267 OA
HETATM   16  H   UNL     1      42.442 -12.042   7.647  1.00  0.00     0.163 HD
BRANCH  14  17
HETATM   17  C   UNL     1      44.301 -10.527   8.491  1.00  0.00     0.072 A 
HETATM   18  S   UNL     1      42.916  -9.557   8.783  1.00  0.00    -0.097 SA
HETATM   19  C   UNL     1      43.588  -8.893  10.206  1.00  0.00     0.050 A 
HETATM   20  C   UNL     1      44.845  -9.393  10.464  1.00  0.00     0.009 A 
HETATM   21  C   UNL     1      45.256 -10.330   9.474  1.00  0.00     0.025 A 
ENDBRANCH  14  17
ENDBRANCH   1  13
BRANCH   1  22
HETATM   22  C   UNL     1      42.291 -12.647   4.952  1.00  0.00     0.245 C 
HETATM   23  N   UNL     1      42.856 -12.552   3.693  1.00  0.00    -0.324 N 
HETATM   24  H   UNL     1      43.754 -12.992   3.549  1.00  0.00     0.169 HD
HETATM   25  O   UNL     1      41.153 -12.271   5.240  1.00  0.00    -0.271 OA
BRANCH  23  26
HETATM   26  C   UNL     1      42.221 -12.084   2.522  1.00  0.00     0.052 A 
HETATM   27  C   UNL     1      42.071 -10.747   2.163  1.00  0.00     0.145 A 
HETATM   28  N   UNL     1      41.451 -10.326   1.030  1.00  0.00    -0.271 NA
HETATM   29  C   UNL     1      40.950 -11.279   0.218  1.00  0.00     0.116 A 
HETATM   30  C   UNL     1      41.045 -12.634   0.481  1.00  0.00     0.021 A 
HETATM   31  C   UNL     1      41.693 -13.037   1.647  1.00  0.00     0.032 A 
ENDBRANCH  23  26
ENDBRANCH   1  22
TORSDOF 6
ENDMDL
MODEL 6
REMARK VINA RESULT:      -8.3      2.086      7.681
REMARK  6 active torsions:
REMARK  status: ('A' for Active; 'I' for Inactive)
REMARK    1  A    between atoms: C_8  and  C_9 
REMARK    2  A    between atoms: C_9  and  C_10 
REMARK    3  A    between atoms: C_10  and  N_11 
REMARK    4  A    between atoms: C_10  and  C_19 
REMARK       I    between atoms: N_11  and  C_12 
REMARK    5  A    between atoms: C_12  and  C_13 
REMARK       I    between atoms: C_19  and  N_20 
REMARK    6  A    between atoms: N_20  and  C_21 
ROOT
HETATM    1  C   UNL     1      41.391 -14.305   3.145  1.00  0.00     0.181 C 
ENDROOT
BRANCH   1   2
HETATM    2  C   UNL     1      41.663 -13.904   1.682  1.00  0.00     0.075 C 
BRANCH   2   3
HETATM    3  C   UNL     1      40.571 -13.113   1.023  1.00  0.00    -0.028 A 
HETATM    4  C   UNL     1      39.829 -13.495  -0.145  1.00  0.00    -0.002 A 
HETATM    5  C   UNL     1      39.828 -14.628  -0.986  1.00  0.00     0.014 A 
HETATM    6  C   UNL     1      38.945 -12.456  -0.436  1.00  0.00     0.042 A 
HETATM    7  C   UNL     1      38.959 -14.676  -2.082  1.00  0.00     0.001 A 
HETATM    8  C   UNL     1      38.097 -13.617  -2.349  1.00  0.00     0.002 A 
HETATM    9  C   UNL     1      38.072 -12.484  -1.531  1.00  0.00     0.030 A 
HETATM   10  N   UNL     1      39.122 -11.491   0.526  1.00  0.00    -0.365 N 
HETATM   11  H   UNL     1      38.609 -10.621   0.567  1.00  0.00     0.165 HD
HETATM   12  C   UNL     1      40.082 -11.884   1.418  1.00  0.00     0.096 A 
ENDBRANCH   2   3
ENDBRANCH   1   2
BRANCH   1  13
HETATM   13  N   UNL     1      42.249 -13.582   4.086  1.00  0.00    -0.343 N 
HETATM   14  C   UNL     1      41.795 -13.012   5.249  1.00  0.00     0.259 C 
HETATM   15  O   UNL     1      40.615 -13.107   5.582  1.00  0.00    -0.267 OA
HETATM   16  H   UNL     1      43.247 -13.580   3.891  1.00  0.00     0.163 HD
BRANCH  14  17
HETATM   17  C   UNL     1      42.785 -12.284   6.029  1.00  0.00     0.072 A 
HETATM   18  S   UNL     1      42.609 -10.623   6.421  1.00  0.00    -0.097 SA
HETATM   19  C   UNL     1      44.073 -10.598   7.300  1.00  0.00     0.050 A 
HETATM   20  C   UNL     1      44.695 -11.826   7.301  1.00  0.00     0.009 A 
HETATM   21  C   UNL     1      43.955 -12.796   6.565  1.00  0.00     0.025 A 
ENDBRANCH  14  17
ENDBRANCH   1  13
BRANCH   1  22
HETATM   22  C   UNL     1      41.566 -15.819   3.449  1.00  0.00     0.245 C 
HETATM   23  N   UNL     1      42.768 -16.368   3.041  1.00  0.00    -0.324 N 
HETATM   24  H   UNL     1      43.489 -15.733   2.726  1.00  0.00     0.169 HD
HETATM   25  O   UNL     1      40.647 -16.454   3.971  1.00  0.00    -0.271 OA
BRANCH  23  26
HETATM   26  C   UNL     1      43.180 -17.708   3.212  1.00  0.00     0.052 A 
HETATM   27  C   UNL     1      43.837 -18.215   4.330  1.00  0.00     0.145 A 
HETATM   28  N   UNL     1      44.224 -19.511   4.465  1.00  0.00    -0.271 NA
HETATM   29  C   UNL     1      43.950 -20.340   3.437  1.00  0.00     0.116 A 
HETATM   30  C   UNL     1      43.300 -19.938   2.284  1.00  0.00     0.021 A 
HETATM   31  C   UNL     1      42.908 -18.605   2.176  1.00  0.00     0.032 A 
ENDBRANCH  23  26
ENDBRANCH   1  22
TORSDOF 6
ENDMDL
MODEL 7
REMARK VINA RESULT:      -8.3      2.215      7.401
REMARK  6 active torsions:
REMARK  status: ('A' for Active; 'I' for Inactive)
REMARK    1  A    between atoms: C_8  and  C_9 
REMARK    2  A    between atoms: C_9  and  C_10 
REMARK    3  A    between atoms: C_10  and  N_11 
REMARK    4  A    between atoms: C_10  and  C_19 
REMARK       I    between atoms: N_11  and  C_12 
REMARK    5  A    between atoms: C_12  and  C_13 
REMARK       I    between atoms: C_19  and  N_20 
REMARK    6  A    between atoms: N_20  and  C_21 
ROOT
HETATM    1  C   UNL     1      41.867 -13.452   3.797  1.00  0.00     0.181 C 
ENDROOT
BRANCH   1   2
HETATM    2  C   UNL     1      42.891 -12.323   4.030  1.00  0.00     0.075 C 
BRANCH   2   3
HETATM    3  C   UNL     1      42.799 -11.642   5.365  1.00  0.00    -0.028 A 
HETATM    4  C   UNL     1      43.896 -11.289   6.218  1.00  0.00    -0.002 A 
HETATM    5  C   UNL     1      45.299 -11.406   6.119  1.00  0.00     0.014 A 
HETATM    6  C   UNL     1      43.362 -10.715   7.371  1.00  0.00     0.042 A 
HETATM    7  C   UNL     1      46.107 -10.957   7.171  1.00  0.00     0.001 A 
HETATM    8  C   UNL     1      45.539 -10.399   8.312  1.00  0.00     0.002 A 
HETATM    9  C   UNL     1      44.154 -10.266   8.436  1.00  0.00     0.030 A 
HETATM   10  N   UNL     1      41.996 -10.697   7.220  1.00  0.00    -0.365 N 
HETATM   11  H   UNL     1      41.347 -10.333   7.904  1.00  0.00     0.165 HD
HETATM   12  C   UNL     1      41.648 -11.234   6.010  1.00  0.00     0.096 A 
ENDBRANCH   2   3
ENDBRANCH   1   2
BRANCH   1  13
HETATM   13  N   UNL     1      42.513 -14.750   3.589  1.00  0.00    -0.343 N 
HETATM   14  C   UNL     1      42.034 -15.930   4.098  1.00  0.00     0.259 C 
HETATM   15  O   UNL     1      40.992 -15.962   4.752  1.00  0.00    -0.267 OA
HETATM   16  H   UNL     1      43.316 -14.770   2.965  1.00  0.00     0.163 HD
BRANCH  14  17
HETATM   17  C   UNL     1      42.843 -17.112   3.835  1.00  0.00     0.072 A 
HETATM   18  S   UNL     1      43.791 -17.869   5.049  1.00  0.00    -0.097 SA
HETATM   19  C   UNL     1      44.332 -19.082   3.974  1.00  0.00     0.050 A 
HETATM   20  C   UNL     1      43.808 -18.922   2.711  1.00  0.00     0.009 A 
HETATM   21  C   UNL     1      42.954 -17.785   2.630  1.00  0.00     0.025 A 
ENDBRANCH  14  17
ENDBRANCH   1  13
BRANCH   1  22
HETATM   22  C   UNL     1      40.911 -13.226   2.594  1.00  0.00     0.245 C 
HETATM   23  N   UNL     1      41.436 -13.546   1.355  1.00  0.00    -0.324 N 
HETATM   24  H   UNL     1      42.321 -14.035   1.333  1.00  0.00     0.169 HD
HETATM   25  O   UNL     1      39.790 -12.747   2.778  1.00  0.00    -0.271 OA
BRANCH  23  26
HETATM   26  C   UNL     1      40.772 -13.449   0.112  1.00  0.00     0.052 A 
HETATM   27  C   UNL     1      40.858 -12.373  -0.768  1.00  0.00     0.145 A 
HETATM   28  N   UNL     1      40.203 -12.307  -1.957  1.00  0.00    -0.271 NA
HETATM   29  C   UNL     1      39.422 -13.357  -2.283  1.00  0.00     0.116 A 
HETATM   30  C   UNL     1      39.269 -14.474  -1.482  1.00  0.00     0.021 A 
HETATM   31  C   UNL     1      39.958 -14.519  -0.272  1.00  0.00     0.032 A 
ENDBRANCH  23  26
ENDBRANCH   1  22
TORSDOF 6
ENDMDL
MODEL 8
REMARK VINA RESULT:      -8.0      1.562      2.454
REMARK  6 active torsions:
REMARK  status: ('A' for Active; 'I' for Inactive)
REMARK    1  A    between atoms: C_8  and  C_9 
REMARK    2  A    between atoms: C_9  and  C_10 
REMARK    3  A    between atoms: C_10  and  N_11 
REMARK    4  A    between atoms: C_10  and  C_19 
REMARK       I    between atoms: N_11  and  C_12 
REMARK    5  A    between atoms: C_12  and  C_13 
REMARK       I    between atoms: C_19  and  N_20 
REMARK    6  A    between atoms: N_20  and  C_21 
ROOT
HETATM    1  C   UNL     1      42.272 -15.007   2.028  1.00  0.00     0.181 C 
ENDROOT
BRANCH   1   2
HETATM    2  C   UNL     1      43.503 -15.918   1.850  1.00  0.00     0.075 C 
BRANCH   2   3
HETATM    3  C   UNL     1      43.532 -17.133   2.730  1.00  0.00    -0.028 A 
HETATM    4  C   UNL     1      43.516 -17.146   4.165  1.00  0.00    -0.002 A 
HETATM    5  C   UNL     1      43.445 -16.147   5.159  1.00  0.00     0.014 A 
HETATM    6  C   UNL     1      43.596 -18.477   4.572  1.00  0.00     0.042 A 
HETATM    7  C   UNL     1      43.465 -16.512   6.510  1.00  0.00     0.001 A 
HETATM    8  C   UNL     1      43.555 -17.850   6.881  1.00  0.00     0.002 A 
HETATM    9  C   UNL     1      43.622 -18.861   5.918  1.00  0.00     0.030 A 
HETATM   10  N   UNL     1      43.634 -19.248   3.434  1.00  0.00    -0.365 N 
HETATM   11  H   UNL     1      43.690 -20.257   3.426  1.00  0.00     0.165 HD
HETATM   12  C   UNL     1      43.577 -18.452   2.323  1.00  0.00     0.096 A 
ENDBRANCH   2   3
ENDBRANCH   1   2
BRANCH   1  13
HETATM   13  N   UNL     1      41.701 -14.590   0.746  1.00  0.00    -0.343 N 
HETATM   14  C   UNL     1      40.367 -14.330   0.554  1.00  0.00     0.259 C 
HETATM   15  O   UNL     1      39.566 -14.410   1.484  1.00  0.00    -0.267 OA
HETATM   16  H   UNL     1      42.353 -14.413  -0.013  1.00  0.00     0.163 HD
BRANCH  14  17
HETATM   17  C   UNL     1      39.976 -13.984  -0.805  1.00  0.00     0.072 A 
HETATM   18  S   UNL     1      40.467 -12.524  -1.561  1.00  0.00    -0.097 SA
HETATM   19  C   UNL     1      39.658 -12.918  -3.014  1.00  0.00     0.050 A 
HETATM   20  C   UNL     1      39.022 -14.136  -2.936  1.00  0.00     0.009 A 
HETATM   21  C   UNL     1      39.201 -14.747  -1.662  1.00  0.00     0.025 A 
ENDBRANCH  14  17
ENDBRANCH   1  13
BRANCH   1  22
HETATM   22  C   UNL     1      42.532 -13.713   2.847  1.00  0.00     0.245 C 
HETATM   23  N   UNL     1      41.557 -13.395   3.775  1.00  0.00    -0.324 N 
HETATM   24  H   UNL     1      40.843 -14.087   3.960  1.00  0.00     0.169 HD
HETATM   25  O   UNL     1      43.528 -13.025   2.614  1.00  0.00    -0.271 OA
BRANCH  23  26
HETATM   26  C   UNL     1      41.562 -12.288   4.652  1.00  0.00     0.052 A 
HETATM   27  C   UNL     1      42.392 -12.140   5.761  1.00  0.00     0.145 A 
HETATM   28  N   UNL     1      42.372 -11.063   6.590  1.00  0.00    -0.271 NA
HETATM   29  C   UNL     1      41.481 -10.091   6.307  1.00  0.00     0.116 A 
HETATM   30  C   UNL     1      40.614 -10.139   5.230  1.00  0.00     0.021 A 
HETATM   31  C   UNL     1      40.661 -11.252   4.392  1.00  0.00     0.032 A 
ENDBRANCH  23  26
ENDBRANCH   1  22
TORSDOF 6
ENDMDL
MODEL 9
REMARK VINA RESULT:      -8.0      2.159      6.066
REMARK  6 active torsions:
REMARK  status: ('A' for Active; 'I' for Inactive)
REMARK    1  A    between atoms: C_8  and  C_9 
REMARK    2  A    between atoms: C_9  and  C_10 
REMARK    3  A    between atoms: C_10  and  N_11 
REMARK    4  A    between atoms: C_10  and  C_19 
REMARK       I    between atoms: N_11  and  C_12 
REMARK    5  A    between atoms: C_12  and  C_13 
REMARK       I    between atoms: C_19  and  N_20 
REMARK    6  A    between atoms: N_20  and  C_21 
ROOT
HETATM    1  C   UNL     1      41.834 -13.946   4.857  1.00  0.00     0.181 C 
ENDROOT
BRANCH   1   2
HETATM    2  C   UNL     1      41.319 -15.180   5.623  1.00  0.00     0.075 C 
BRANCH   2   3
HETATM    3  C   UNL     1      42.285 -16.325   5.714  1.00  0.00    -0.028 A 
HETATM    4  C   UNL     1      42.775 -17.115   4.621  1.00  0.00    -0.002 A 
HETATM    5  C   UNL     1      42.579 -17.093   3.224  1.00  0.00     0.014 A 
HETATM    6  C   UNL     1      43.615 -18.092   5.155  1.00  0.00     0.042 A 
HETATM    7  C   UNL     1      43.218 -18.045   2.421  1.00  0.00     0.001 A 
HETATM    8  C   UNL     1      44.043 -19.013   2.987  1.00  0.00     0.002 A 
HETATM    9  C   UNL     1      44.258 -19.055   4.367  1.00  0.00     0.030 A 
HETATM   10  N   UNL     1      43.657 -17.893   6.514  1.00  0.00    -0.365 N 
HETATM   11  H   UNL     1      44.193 -18.455   7.160  1.00  0.00     0.165 HD
HETATM   12  C   UNL     1      42.877 -16.823   6.859  1.00  0.00     0.096 A 
ENDBRANCH   2   3
ENDBRANCH   1   2
BRANCH   1  13
HETATM   13  N   UNL     1      41.912 -12.758   5.710  1.00  0.00    -0.343 N 
HETATM   14  C   UNL     1      42.943 -11.853   5.663  1.00  0.00     0.259 C 
HETATM   15  O   UNL     1      43.865 -11.983   4.860  1.00  0.00    -0.267 OA
HETATM   16  H   UNL     1      41.113 -12.567   6.309  1.00  0.00     0.163 HD
BRANCH  14  17
HETATM   17  C   UNL     1      42.877 -10.764   6.629  1.00  0.00     0.072 A 
HETATM   18  S   UNL     1      41.678  -9.540   6.557  1.00  0.00    -0.097 SA
HETATM   19  C   UNL     1      42.277  -8.767   7.958  1.00  0.00     0.050 A 
HETATM   20  C   UNL     1      43.370  -9.420   8.479  1.00  0.00     0.009 A 
HETATM   21  C   UNL     1      43.719 -10.568   7.711  1.00  0.00     0.025 A 
ENDBRANCH  14  17
ENDBRANCH   1  13
BRANCH   1  22
HETATM   22  C   UNL     1      40.990 -13.552   3.613  1.00  0.00     0.245 C 
HETATM   23  N   UNL     1      41.564 -13.856   2.392  1.00  0.00    -0.324 N 
HETATM   24  H   UNL     1      42.392 -14.435   2.394  1.00  0.00     0.169 HD
HETATM   25  O   UNL     1      39.915 -12.966   3.757  1.00  0.00    -0.271 OA
BRANCH  23  26
HETATM   26  C   UNL     1      40.999 -13.620   1.119  1.00  0.00     0.052 A 
HETATM   27  C   UNL     1      41.069 -12.420   0.414  1.00  0.00     0.145 A 
HETATM   28  N   UNL     1      40.512 -12.222  -0.810  1.00  0.00    -0.271 NA
HETATM   29  C   UNL     1      39.850 -13.261  -1.355  1.00  0.00     0.116 A 
HETATM   30  C   UNL     1      39.723 -14.494  -0.741  1.00  0.00     0.021 A 
HETATM   31  C   UNL     1      40.311 -14.673   0.510  1.00  0.00     0.032 A 
ENDBRANCH  23  26
ENDBRANCH   1  22
TORSDOF 6
ENDMDL
MODEL 10
REMARK VINA RESULT:      -7.8      2.119      7.444
REMARK  6 active torsions:
REMARK  status: ('A' for Active; 'I' for Inactive)
REMARK    1  A    between atoms: C_8  and  C_9 
REMARK    2  A    between atoms: C_9  and  C_10 
REMARK    3  A    between atoms: C_10  and  N_11 
REMARK    4  A    between atoms: C_10  and  C_19 
REMARK       I    between atoms: N_11  and  C_12 
REMARK    5  A    between atoms: C_12  and  C_13 
REMARK       I    between atoms: C_19  and  N_20 
REMARK    6  A    between atoms: N_20  and  C_21 
ROOT
HETATM    1  C   UNL     1      40.885 -14.375   2.640  1.00  0.00     0.181 C 
ENDROOT
BRANCH   1   2
HETATM    2  C   UNL     1      41.485 -14.069   1.253  1.00  0.00     0.075 C 
BRANCH   2   3
HETATM    3  C   UNL     1      40.641 -13.196   0.370  1.00  0.00    -0.028 A 
HETATM    4  C   UNL     1      39.846 -13.627  -0.743  1.00  0.00    -0.002 A 
HETATM    5  C   UNL     1      39.570 -14.879  -1.332  1.00  0.00     0.014 A 
HETATM    6  C   UNL     1      39.262 -12.491  -1.304  1.00  0.00     0.042 A 
HETATM    7  C   UNL     1      38.735 -14.948  -2.453  1.00  0.00     0.001 A 
HETATM    8  C   UNL     1      38.176 -13.793  -2.993  1.00  0.00     0.002 A 
HETATM    9  C   UNL     1      38.428 -12.540  -2.428  1.00  0.00     0.030 A 
HETATM   10  N   UNL     1      39.663 -11.414  -0.550  1.00  0.00    -0.365 N 
HETATM   11  H   UNL     1      39.389 -10.457  -0.724  1.00  0.00     0.165 HD
HETATM   12  C   UNL     1      40.476 -11.828   0.470  1.00  0.00     0.096 A 
ENDBRANCH   2   3
ENDBRANCH   1   2
BRANCH   1  13
HETATM   13  N   UNL     1      41.272 -13.380   3.642  1.00  0.00    -0.343 N 
HETATM   14  C   UNL     1      40.386 -12.527   4.251  1.00  0.00     0.259 C 
HETATM   15  O   UNL     1      39.183 -12.576   3.997  1.00  0.00    -0.267 OA
HETATM   16  H   UNL     1      42.241 -13.388   3.949  1.00  0.00     0.163 HD
BRANCH  14  17
HETATM   17  C   UNL     1      40.963 -11.566   5.179  1.00  0.00     0.072 A 
HETATM   18  S   UNL     1      42.592 -11.038   5.064  1.00  0.00    -0.097 SA
HETATM   19  C   UNL     1      42.426  -9.991   6.404  1.00  0.00     0.050 A 
HETATM   20  C   UNL     1      41.158 -10.035   6.938  1.00  0.00     0.009 A 
HETATM   21  C   UNL     1      40.317 -10.945   6.235  1.00  0.00     0.025 A 
ENDBRANCH  14  17
ENDBRANCH   1  13
BRANCH   1  22
HETATM   22  C   UNL     1      41.261 -15.767   3.219  1.00  0.00     0.245 C 
HETATM   23  N   UNL     1      42.445 -16.303   2.746  1.00  0.00    -0.324 N 
HETATM   24  H   UNL     1      43.042 -15.703   2.193  1.00  0.00     0.169 HD
HETATM   25  O   UNL     1      40.498 -16.335   4.004  1.00  0.00    -0.271 OA
BRANCH  23  26
HETATM   26  C   UNL     1      43.016 -17.538   3.123  1.00  0.00     0.052 A 
HETATM   27  C   UNL     1      43.631 -17.805   4.343  1.00  0.00     0.145 A 
HETATM   28  N   UNL     1      44.176 -19.004   4.677  1.00  0.00    -0.271 NA
HETATM   29  C   UNL     1      44.111 -19.983   3.752  1.00  0.00     0.116 A 
HETATM   30  C   UNL     1      43.522 -19.823   2.510  1.00  0.00     0.021 A 
HETATM   31  C   UNL     1      42.964 -18.585   2.198  1.00  0.00     0.032 A 
ENDBRANCH  23  26
ENDBRANCH   1  22
TORSDOF 6
ENDMDL
