MODEL 1
REMARK VINA RESULT:      -9.1      0.000      0.000
REMARK  8 active torsions:
REMARK  status: ('A' for Active; 'I' for Inactive)
REMARK    1  A    between atoms: C_2  and  O_3 
REMARK    2  A    between atoms: O_3  and  C_4 
REMARK    3  A    between atoms: C_4  and  C_5 
REMARK    4  A    between atoms: C_10  and  C_11 
REMARK       I    between atoms: C_11  and  N_12 
REMARK    5  A    between atoms: N_12  and  C_13 
REMARK    6  A    between atoms: C_15  and  C_16 
REMARK    7  A    between atoms: C_16  and  C_17 
REMARK    8  A    between atoms: C_17  and  C_18 
ROOT
HETATM    1  C   UNL     1      44.626 -11.795   7.383  1.00  0.00     0.725 A 
HETATM    2  N   UNL     1      44.459 -11.482   8.643  1.00  0.00    -0.046 NA
HETATM    3  C   UNL     1      45.116 -10.292   8.787  1.00  0.00     0.166 A 
HETATM    4  N   UNL     1      45.675  -9.826   7.663  1.00  0.00    -0.144 NA
HETATM    5  N   UNL     1      45.343 -10.792   6.788  1.00  0.00    -0.106 N 
HETATM    6  H   UNL     1      45.638 -10.705   5.824  1.00  0.00     0.208 HD
ENDROOT
BRANCH   1   7
HETATM    7  N   UNL     1      44.182 -12.902   6.703  1.00  0.00    -0.152 N 
HETATM    8  C   UNL     1      43.011 -12.870   5.973  1.00  0.00     0.272 C 
HETATM    9  O   UNL     1      42.218 -11.938   5.918  1.00  0.00    -0.267 OA
HETATM   10  H   UNL     1      44.684 -13.771   6.770  1.00  0.00     0.187 HD
BRANCH   8  11
HETATM   11  C   UNL     1      42.729 -14.123   5.248  1.00  0.00     0.063 A 
HETATM   12  C   UNL     1      42.323 -15.345   5.780  1.00  0.00     0.022 A 
HETATM   13  N   UNL     1      42.258 -16.243   4.744  1.00  0.00    -0.354 N 
HETATM   14  C   UNL     1      42.053 -15.797   7.172  1.00  0.00     0.069 C 
HETATM   15  C   UNL     1      42.699 -15.680   3.569  1.00  0.00     0.115 A 
HETATM   16  H   UNL     1      42.022 -17.225   4.828  1.00  0.00     0.166 HD
HETATM   17  C   UNL     1      42.918 -14.332   3.830  1.00  0.00    -0.011 A 
HETATM   18  C   UNL     1      43.332 -13.280   2.851  1.00  0.00     0.052 C 
BRANCH  15  19
HETATM   19  C   UNL     1      42.873 -16.497   2.387  1.00  0.00     0.310 C 
HETATM   20  O   UNL     1      43.167 -16.050   1.286  1.00  0.00    -0.258 OA
BRANCH  19  21
HETATM   21  O   UNL     1      42.589 -17.799   2.654  1.00  0.00    -0.317 OA
BRANCH  21  22
HETATM   22  C   UNL     1      43.691 -18.713   2.591  1.00  0.00     0.175 C 
HETATM   23  C   UNL     1      43.216 -20.053   2.059  1.00  0.00     0.034 C 
ENDBRANCH  21  22
ENDBRANCH  19  21
ENDBRANCH  15  19
ENDBRANCH   8  11
ENDBRANCH   1   7
BRANCH   3  24
HETATM   24  C   UNL     1      45.185  -9.605  10.100  1.00  0.00     0.087 C 
BRANCH  24  25
HETATM   25  C   UNL     1      44.056  -8.583  10.253  1.00  0.00     0.048 C 
BRANCH  25  26
HETATM   26  C   UNL     1      43.012  -9.023  11.230  1.00  0.00    -0.030 A 
HETATM   27  C   UNL     1      42.803  -8.487  12.542  1.00  0.00    -0.002 A 
HETATM   28  C   UNL     1      41.726  -9.169  13.108  1.00  0.00     0.042 A 
HETATM   29  C   UNL     1      43.435  -7.477  13.299  1.00  0.00     0.014 A 
HETATM   30  C   UNL     1      41.247  -8.894  14.393  1.00  0.00     0.030 A 
HETATM   31  N   UNL     1      41.296 -10.084  12.175  1.00  0.00    -0.365 N 
HETATM   32  C   UNL     1      41.891  -7.890  15.124  1.00  0.00     0.002 A 
HETATM   33  C   UNL     1      42.970  -7.191  14.588  1.00  0.00     0.001 A 
HETATM   34  H   UNL     1      40.520 -10.716  12.312  1.00  0.00     0.165 HD
HETATM   35  C   UNL     1      42.062 -10.008  11.043  1.00  0.00     0.096 A 
ENDBRANCH  25  26
ENDBRANCH  24  25
ENDBRANCH   3  24
TORSDOF 8
ENDMDL
MODEL 2
REMARK VINA RESULT:      -9.0      1.432      2.193
REMARK  8 active torsions:
REMARK  status: ('A' for Active; 'I' for Inactive)
REMARK    1  A    between atoms: C_2  and  O_3 
REMARK    2  A    between atoms: O_3  and  C_4 
REMARK    3  A    between atoms: C_4  and  C_5 
REMARK    4  A    between atoms: C_10  and  C_11 
REMARK       I    between atoms: C_11  and  N_12 
REMARK    5  A    between atoms: N_12  and  C_13 
REMARK    6  A    between atoms: C_15  and  C_16 
REMARK    7  A    between atoms: C_16  and  C_17 
REMARK    8  A    between atoms: C_17  and  C_18 
ROOT
HETATM    1  C   UNL     1      44.101 -11.960   7.232  1.00  0.00     0.725 A 
HETATM    2  N   UNL     1      44.638 -11.592   8.368  1.00  0.00    -0.046 NA
HETATM    3  C   UNL     1      44.257 -10.289   8.517  1.00  0.00     0.166 A 
HETATM    4  N   UNL     1      43.479  -9.821   7.532  1.00  0.00    -0.144 NA
HETATM    5  N   UNL     1      43.390 -10.901   6.736  1.00  0.00    -0.106 N 
HETATM    6  H   UNL     1      42.843 -10.842   5.887  1.00  0.00     0.208 HD
ENDROOT
BRANCH   1   7
HETATM    7  N   UNL     1      44.179 -13.173   6.594  1.00  0.00    -0.152 N 
HETATM    8  C   UNL     1      43.040 -13.857   6.219  1.00  0.00     0.272 C 
HETATM    9  O   UNL     1      41.885 -13.537   6.477  1.00  0.00    -0.267 OA
HETATM   10  H   UNL     1      45.073 -13.604   6.434  1.00  0.00     0.187 HD
BRANCH   8  11
HETATM   11  C   UNL     1      43.313 -15.104   5.479  1.00  0.00     0.063 A 
HETATM   12  C   UNL     1      43.188 -15.329   4.111  1.00  0.00     0.022 A 
HETATM   13  N   UNL     1      43.474 -16.653   3.884  1.00  0.00    -0.354 N 
HETATM   14  C   UNL     1      42.759 -14.460   2.982  1.00  0.00     0.069 C 
HETATM   15  C   UNL     1      43.687 -17.324   5.066  1.00  0.00     0.115 A 
HETATM   16  H   UNL     1      43.434 -17.120   2.986  1.00  0.00     0.166 HD
HETATM   17  C   UNL     1      43.680 -16.368   6.076  1.00  0.00    -0.011 A 
HETATM   18  C   UNL     1      43.944 -16.592   7.531  1.00  0.00     0.052 C 
BRANCH  15  19
HETATM   19  C   UNL     1      43.839 -18.764   5.071  1.00  0.00     0.310 C 
HETATM   20  O   UNL     1      43.573 -19.474   6.033  1.00  0.00    -0.258 OA
BRANCH  19  21
HETATM   21  O   UNL     1      44.384 -19.196   3.904  1.00  0.00    -0.317 OA
BRANCH  21  22
HETATM   22  C   UNL     1      43.850 -20.413   3.367  1.00  0.00     0.175 C 
HETATM   23  C   UNL     1      43.227 -20.144   2.009  1.00  0.00     0.034 C 
ENDBRANCH  21  22
ENDBRANCH  19  21
ENDBRANCH  15  19
ENDBRANCH   8  11
ENDBRANCH   1   7
BRANCH   3  24
HETATM   24  C   UNL     1      44.691  -9.489   9.689  1.00  0.00     0.087 C 
BRANCH  24  25
HETATM   25  C   UNL     1      43.646  -8.436  10.063  1.00  0.00     0.048 C 
BRANCH  25  26
HETATM   26  C   UNL     1      42.707  -8.910  11.126  1.00  0.00    -0.030 A 
HETATM   27  C   UNL     1      42.625  -8.407  12.465  1.00  0.00    -0.002 A 
HETATM   28  C   UNL     1      41.615  -9.114  13.118  1.00  0.00     0.042 A 
HETATM   29  C   UNL     1      43.320  -7.409  13.181  1.00  0.00     0.014 A 
HETATM   30  C   UNL     1      41.263  -8.874  14.451  1.00  0.00     0.030 A 
HETATM   31  N   UNL     1      41.101 -10.011  12.210  1.00  0.00    -0.365 N 
HETATM   32  C   UNL     1      41.968  -7.882  15.139  1.00  0.00     0.002 A 
HETATM   33  C   UNL     1      42.982  -7.158  14.516  1.00  0.00     0.001 A 
HETATM   34  H   UNL     1      40.348 -10.655  12.407  1.00  0.00     0.165 HD
HETATM   35  C   UNL     1      41.752  -9.900  11.010  1.00  0.00     0.096 A 
ENDBRANCH  25  26
ENDBRANCH  24  25
ENDBRANCH   3  24
TORSDOF 8
ENDMDL
MODEL 3
REMARK VINA RESULT:      -8.9      1.028      1.819
REMARK  8 active torsions:
REMARK  status: ('A' for Active; 'I' for Inactive)
REMARK    1  A    between atoms: C_2  and  O_3 
REMARK    2  A    between atoms: O_3  and  C_4 
REMARK    3  A    between atoms: C_4  and  C_5 
REMARK    4  A    between atoms: C_10  and  C_11 
REMARK       I    between atoms: C_11  and  N_12 
REMARK    5  A    between atoms: N_12  and  C_13 
REMARK    6  A    between atoms: C_15  and  C_16 
REMARK    7  A    between atoms: C_16  and  C_17 
REMARK    8  A    between atoms: C_17  and  C_18 
ROOT
HETATM    1  C   UNL     1      45.005 -11.293   7.355  1.00  0.00     0.725 A 
HETATM    2  N   UNL     1      44.686 -11.173   8.619  1.00  0.00    -0.046 NA
HETATM    3  C   UNL     1      45.482 -10.161   9.075  1.00  0.00     0.166 A 
HETATM    4  N   UNL     1      46.279  -9.618   8.145  1.00  0.00    -0.144 NA
HETATM    5  N   UNL     1      45.951 -10.348   7.064  1.00  0.00    -0.106 N 
HETATM    6  H   UNL     1      46.407 -10.153   6.182  1.00  0.00     0.208 HD
ENDROOT
BRANCH   1   7
HETATM    7  N   UNL     1      44.516 -12.173   6.422  1.00  0.00    -0.152 N 
HETATM    8  C   UNL     1      43.224 -12.065   5.947  1.00  0.00     0.272 C 
HETATM    9  O   UNL     1      42.371 -11.279   6.342  1.00  0.00    -0.267 OA
HETATM   10  H   UNL     1      45.081 -12.943   6.107  1.00  0.00     0.187 HD
BRANCH   8  11
HETATM   11  C   UNL     1      42.894 -13.047   4.896  1.00  0.00     0.063 A 
HETATM   12  C   UNL     1      42.690 -12.809   3.539  1.00  0.00     0.022 A 
HETATM   13  N   UNL     1      42.332 -14.002   2.962  1.00  0.00    -0.354 N 
HETATM   14  C   UNL     1      42.723 -11.569   2.718  1.00  0.00     0.069 C 
HETATM   15  C   UNL     1      42.200 -14.992   3.908  1.00  0.00     0.115 A 
HETATM   16  H   UNL     1      42.088 -14.137   1.988  1.00  0.00     0.166 HD
HETATM   17  C   UNL     1      42.629 -14.451   5.115  1.00  0.00    -0.011 A 
HETATM   18  C   UNL     1      42.746 -15.156   6.429  1.00  0.00     0.052 C 
BRANCH  15  19
HETATM   19  C   UNL     1      41.667 -16.287   3.542  1.00  0.00     0.310 C 
HETATM   20  O   UNL     1      40.481 -16.500   3.326  1.00  0.00    -0.258 OA
BRANCH  19  21
HETATM   21  O   UNL     1      42.644 -17.231   3.550  1.00  0.00    -0.317 OA
BRANCH  21  22
HETATM   22  C   UNL     1      43.120 -17.662   2.268  1.00  0.00     0.175 C 
HETATM   23  C   UNL     1      43.212 -19.176   2.238  1.00  0.00     0.034 C 
ENDBRANCH  21  22
ENDBRANCH  19  21
ENDBRANCH  15  19
ENDBRANCH   8  11
ENDBRANCH   1   7
BRANCH   3  24
HETATM   24  C   UNL     1      45.441  -9.728  10.493  1.00  0.00     0.087 C 
BRANCH  24  25
HETATM   25  C   UNL     1      44.369  -8.660  10.719  1.00  0.00     0.048 C 
BRANCH  25  26
HETATM   26  C   UNL     1      43.290  -9.117  11.649  1.00  0.00    -0.030 A 
HETATM   27  C   UNL     1      42.919  -8.493  12.885  1.00  0.00    -0.002 A 
HETATM   28  C   UNL     1      41.866  -9.229  13.427  1.00  0.00     0.042 A 
HETATM   29  C   UNL     1      43.387  -7.364  13.590  1.00  0.00     0.014 A 
HETATM   30  C   UNL     1      41.254  -8.893  14.640  1.00  0.00     0.030 A 
HETATM   31  N   UNL     1      41.604 -10.259  12.554  1.00  0.00    -0.365 N 
HETATM   32  C   UNL     1      41.737  -7.771  15.321  1.00  0.00     0.002 A 
HETATM   33  C   UNL     1      42.788  -7.015  14.806  1.00  0.00     0.001 A 
HETATM   34  H   UNL     1      40.882 -10.952  12.690  1.00  0.00     0.165 HD
HETATM   35  C   UNL     1      42.456 -10.205  11.482  1.00  0.00     0.096 A 
ENDBRANCH  25  26
ENDBRANCH  24  25
ENDBRANCH   3  24
TORSDOF 8
ENDMDL
MODEL 4
REMARK VINA RESULT:      -8.8      2.857     10.499
REMARK  8 active torsions:
REMARK  status: ('A' for Active; 'I' for Inactive)
REMARK    1  A    between atoms: C_2  and  O_3 
REMARK    2  A    between atoms: O_3  and  C_4 
REMARK    3  A    between atoms: C_4  and  C_5 
REMARK    4  A    between atoms: C_10  and  C_11 
REMARK       I    between atoms: C_11  and  N_12 
REMARK    5  A    between atoms: N_12  and  C_13 
REMARK    6  A    between atoms: C_15  and  C_16 
REMARK    7  A    between atoms: C_16  and  C_17 
REMARK    8  A    between atoms: C_17  and  C_18 
ROOT
HETATM    1  C   UNL     1      41.874 -12.741   5.783  1.00  0.00     0.725 A 
HETATM    2  N   UNL     1      42.377 -13.747   5.112  1.00  0.00    -0.046 NA
HETATM    3  C   UNL     1      41.355 -14.160   4.304  1.00  0.00     0.166 A 
HETATM    4  N   UNL     1      40.230 -13.442   4.419  1.00  0.00    -0.144 NA
HETATM    5  N   UNL     1      40.588 -12.546   5.356  1.00  0.00    -0.106 N 
HETATM    6  H   UNL     1      39.917 -11.849   5.652  1.00  0.00     0.208 HD
ENDROOT
BRANCH   1   7
HETATM    7  N   UNL     1      42.468 -11.965   6.747  1.00  0.00    -0.152 N 
HETATM    8  C   UNL     1      42.637 -10.607   6.565  1.00  0.00     0.272 C 
HETATM    9  O   UNL     1      42.382  -9.976   5.547  1.00  0.00    -0.267 OA
HETATM   10  H   UNL     1      42.834 -12.388   7.583  1.00  0.00     0.187 HD
BRANCH   8  11
HETATM   11  C   UNL     1      43.223  -9.921   7.732  1.00  0.00     0.063 A 
HETATM   12  C   UNL     1      44.558  -9.897   8.128  1.00  0.00     0.022 A 
HETATM   13  N   UNL     1      44.625  -9.202   9.309  1.00  0.00    -0.354 N 
HETATM   14  C   UNL     1      45.787 -10.517   7.562  1.00  0.00     0.069 C 
HETATM   15  C   UNL     1      43.370  -8.851   9.751  1.00  0.00     0.115 A 
HETATM   16  H   UNL     1      45.463  -9.047   9.857  1.00  0.00     0.166 HD
HETATM   17  C   UNL     1      42.478  -9.208   8.746  1.00  0.00    -0.011 A 
HETATM   18  C   UNL     1      41.003  -8.964   8.721  1.00  0.00     0.052 C 
BRANCH  15  19
HETATM   19  C   UNL     1      43.195  -8.258  11.061  1.00  0.00     0.310 C 
HETATM   20  O   UNL     1      42.768  -7.126  11.245  1.00  0.00    -0.258 OA
BRANCH  19  21
HETATM   21  O   UNL     1      43.641  -9.096  12.033  1.00  0.00    -0.317 OA
BRANCH  21  22
HETATM   22  C   UNL     1      42.869 -10.285  12.248  1.00  0.00     0.175 C 
HETATM   23  C   UNL     1      41.479  -9.913  12.731  1.00  0.00     0.034 C 
ENDBRANCH  21  22
ENDBRANCH  19  21
ENDBRANCH  15  19
ENDBRANCH   8  11
ENDBRANCH   1   7
BRANCH   3  24
HETATM   24  C   UNL     1      41.517 -15.316   3.389  1.00  0.00     0.087 C 
BRANCH  24  25
HETATM   25  C   UNL     1      42.994 -15.642   3.159  1.00  0.00     0.048 C 
BRANCH  25  26
HETATM   26  C   UNL     1      43.448 -16.833   3.941  1.00  0.00    -0.030 A 
HETATM   27  C   UNL     1      43.495 -18.186   3.470  1.00  0.00    -0.002 A 
HETATM   28  C   UNL     1      43.988 -18.975   4.509  1.00  0.00     0.042 A 
HETATM   29  C   UNL     1      43.164 -18.809   2.248  1.00  0.00     0.014 A 
HETATM   30  C   UNL     1      44.167 -20.358   4.389  1.00  0.00     0.030 A 
HETATM   31  N   UNL     1      44.232 -18.136   5.570  1.00  0.00    -0.365 N 
HETATM   32  C   UNL     1      43.830 -20.952   3.168  1.00  0.00     0.002 A 
HETATM   33  C   UNL     1      43.335 -20.191   2.112  1.00  0.00     0.001 A 
HETATM   34  H   UNL     1      44.602 -18.435   6.461  1.00  0.00     0.165 HD
HETATM   35  C   UNL     1      43.909 -16.845   5.243  1.00  0.00     0.096 A 
ENDBRANCH  25  26
ENDBRANCH  24  25
ENDBRANCH   3  24
TORSDOF 8
ENDMDL
MODEL 5
REMARK VINA RESULT:      -8.7      2.977     10.358
REMARK  8 active torsions:
REMARK  status: ('A' for Active; 'I' for Inactive)
REMARK    1  A    between atoms: C_2  and  O_3 
REMARK    2  A    between atoms: O_3  and  C_4 
REMARK    3  A    between atoms: C_4  and  C_5 
REMARK    4  A    between atoms: C_10  and  C_11 
REMARK       I    between atoms: C_11  and  N_12 
REMARK    5  A    between atoms: N_12  and  C_13 
REMARK    6  A    between atoms: C_15  and  C_16 
REMARK    7  A    between atoms: C_16  and  C_17 
REMARK    8  A    between atoms: C_17  and  C_18 
ROOT
HETATM    1  C   UNL     1      42.675 -12.166   3.401  1.00  0.00     0.725 A 
HETATM    2  N   UNL     1      43.406 -13.237   3.224  1.00  0.00    -0.046 NA
HETATM    3  C   UNL     1      42.901 -13.809   2.090  1.00  0.00     0.166 A 
HETATM    4  N   UNL     1      41.892 -13.131   1.528  1.00  0.00    -0.144 NA
HETATM    5  N   UNL     1      41.775 -12.091   2.373  1.00  0.00    -0.106 N 
HETATM    6  H   UNL     1      41.070 -11.388   2.193  1.00  0.00     0.208 HD
ENDROOT
BRANCH   1   7
HETATM    7  N   UNL     1      42.745 -11.231   4.403  1.00  0.00    -0.152 N 
HETATM    8  C   UNL     1      42.171 -11.462   5.638  1.00  0.00     0.272 C 
HETATM    9  O   UNL     1      41.487 -12.430   5.948  1.00  0.00    -0.267 OA
HETATM   10  H   UNL     1      43.176 -10.338   4.233  1.00  0.00     0.187 HD
BRANCH   8  11
HETATM   11  C   UNL     1      42.409 -10.382   6.614  1.00  0.00     0.063 A 
HETATM   12  C   UNL     1      41.616  -9.264   6.861  1.00  0.00     0.022 A 
HETATM   13  N   UNL     1      42.266  -8.497   7.796  1.00  0.00    -0.354 N 
HETATM   14  C   UNL     1      40.339  -8.784   6.267  1.00  0.00     0.069 C 
HETATM   15  C   UNL     1      43.500  -9.024   8.099  1.00  0.00     0.115 A 
HETATM   16  H   UNL     1      41.948  -7.603   8.151  1.00  0.00     0.166 HD
HETATM   17  C   UNL     1      43.584 -10.248   7.445  1.00  0.00    -0.011 A 
HETATM   18  C   UNL     1      44.703 -11.237   7.522  1.00  0.00     0.052 C 
BRANCH  15  19
HETATM   19  C   UNL     1      44.424  -8.287   8.936  1.00  0.00     0.310 C 
HETATM   20  O   UNL     1      44.890  -7.195   8.640  1.00  0.00    -0.258 OA
BRANCH  19  21
HETATM   21  O   UNL     1      44.755  -9.008  10.040  1.00  0.00    -0.317 OA
BRANCH  21  22
HETATM   22  C   UNL     1      43.761  -9.081  11.070  1.00  0.00     0.175 C 
HETATM   23  C   UNL     1      43.583 -10.522  11.511  1.00  0.00     0.034 C 
ENDBRANCH  21  22
ENDBRANCH  19  21
ENDBRANCH  15  19
ENDBRANCH   8  11
ENDBRANCH   1   7
BRANCH   3  24
HETATM   24  C   UNL     1      43.451 -15.079   1.558  1.00  0.00     0.087 C 
BRANCH  24  25
HETATM   25  C   UNL     1      42.576 -16.272   1.947  1.00  0.00     0.048 C 
BRANCH  25  26
HETATM   26  C   UNL     1      43.142 -17.051   3.092  1.00  0.00    -0.030 A 
HETATM   27  C   UNL     1      43.403 -18.459   3.109  1.00  0.00    -0.002 A 
HETATM   28  C   UNL     1      43.937 -18.773   4.359  1.00  0.00     0.042 A 
HETATM   29  C   UNL     1      43.236 -19.497   2.168  1.00  0.00     0.014 A 
HETATM   30  C   UNL     1      44.312 -20.072   4.717  1.00  0.00     0.030 A 
HETATM   31  N   UNL     1      43.999 -17.600   5.074  1.00  0.00    -0.365 N 
HETATM   32  C   UNL     1      44.134 -21.084   3.767  1.00  0.00     0.002 A 
HETATM   33  C   UNL     1      43.604 -20.803   2.510  1.00  0.00     0.001 A 
HETATM   34  H   UNL     1      44.352 -17.525   6.018  1.00  0.00     0.165 HD
HETATM   35  C   UNL     1      43.521 -16.557   4.325  1.00  0.00     0.096 A 
ENDBRANCH  25  26
ENDBRANCH  24  25
ENDBRANCH   3  24
TORSDOF 8
ENDMDL
MODEL 6
REMARK VINA RESULT:      -8.5      2.895     10.586
REMARK  8 active torsions:
REMARK  status: ('A' for Active; 'I' for Inactive)
REMARK    1  A    between atoms: C_2  and  O_3 
REMARK    2  A    between atoms: O_3  and  C_4 
REMARK    3  A    between atoms: C_4  and  C_5 
REMARK    4  A    between atoms: C_10  and  C_11 
REMARK       I    between atoms: C_11  and  N_12 
REMARK    5  A    between atoms: N_12  and  C_13 
REMARK    6  A    between atoms: C_15  and  C_16 
REMARK    7  A    between atoms: C_16  and  C_17 
REMARK    8  A    between atoms: C_17  and  C_18 
ROOT
HETATM    1  C   UNL     1      43.339 -11.573   6.654  1.00  0.00     0.725 A 
HETATM    2  N   UNL     1      42.646 -12.529   6.090  1.00  0.00    -0.046 NA
HETATM    3  C   UNL     1      43.106 -12.566   4.803  1.00  0.00     0.166 A 
HETATM    4  N   UNL     1      44.080 -11.687   4.535  1.00  0.00    -0.144 NA
HETATM    5  N   UNL     1      44.214 -11.077   5.726  1.00  0.00    -0.106 N 
HETATM    6  H   UNL     1      44.903 -10.343   5.828  1.00  0.00     0.208 HD
ENDROOT
BRANCH   1   7
HETATM    7  N   UNL     1      43.271 -11.104   7.942  1.00  0.00    -0.152 N 
HETATM    8  C   UNL     1      42.938  -9.790   8.207  1.00  0.00     0.272 C 
HETATM    9  O   UNL     1      42.765  -8.906   7.377  1.00  0.00    -0.267 OA
HETATM   10  H   UNL     1      43.512 -11.703   8.713  1.00  0.00     0.187 HD
BRANCH   8  11
HETATM   11  C   UNL     1      42.838  -9.482   9.646  1.00  0.00     0.063 A 
HETATM   12  C   UNL     1      43.868  -9.434  10.583  1.00  0.00     0.022 A 
HETATM   13  N   UNL     1      43.299  -9.184  11.807  1.00  0.00    -0.354 N 
HETATM   14  C   UNL     1      45.334  -9.666  10.480  1.00  0.00     0.069 C 
HETATM   15  C   UNL     1      41.927  -9.162  11.722  1.00  0.00     0.115 A 
HETATM   16  H   UNL     1      43.796  -9.127  12.688  1.00  0.00     0.166 HD
HETATM   17  C   UNL     1      41.608  -9.258  10.372  1.00  0.00    -0.011 A 
HETATM   18  C   UNL     1      40.244  -9.201   9.761  1.00  0.00     0.052 C 
BRANCH  15  19
HETATM   19  C   UNL     1      41.121  -9.082  12.923  1.00  0.00     0.310 C 
HETATM   20  O   UNL     1      40.617 -10.053  13.472  1.00  0.00    -0.258 OA
BRANCH  19  21
HETATM   21  O   UNL     1      40.942  -7.789  13.297  1.00  0.00    -0.317 OA
BRANCH  21  22
HETATM   22  C   UNL     1      41.296  -7.466  14.649  1.00  0.00     0.175 C 
HETATM   23  C   UNL     1      42.764  -7.086  14.717  1.00  0.00     0.034 C 
ENDBRANCH  21  22
ENDBRANCH  19  21
ENDBRANCH  15  19
ENDBRANCH   8  11
ENDBRANCH   1   7
BRANCH   3  24
HETATM   24  C   UNL     1      42.544 -13.517   3.812  1.00  0.00     0.087 C 
BRANCH  24  25
HETATM   25  C   UNL     1      41.855 -14.697   4.501  1.00  0.00     0.048 C 
BRANCH  25  26
HETATM   26  C   UNL     1      42.796 -15.823   4.789  1.00  0.00    -0.030 A 
HETATM   27  C   UNL     1      43.031 -16.962   3.952  1.00  0.00    -0.002 A 
HETATM   28  C   UNL     1      43.985 -17.758   4.585  1.00  0.00     0.042 A 
HETATM   29  C   UNL     1      42.519 -17.385   2.707  1.00  0.00     0.014 A 
HETATM   30  C   UNL     1      44.454 -18.958   4.037  1.00  0.00     0.030 A 
HETATM   31  N   UNL     1      44.318 -17.128   5.761  1.00  0.00    -0.365 N 
HETATM   32  C   UNL     1      43.929 -19.356   2.804  1.00  0.00     0.002 A 
HETATM   33  C   UNL     1      42.975 -18.583   2.146  1.00  0.00     0.001 A 
HETATM   34  H   UNL     1      44.995 -17.478   6.424  1.00  0.00     0.165 HD
HETATM   35  C   UNL     1      43.607 -15.965   5.897  1.00  0.00     0.096 A 
ENDBRANCH  25  26
ENDBRANCH  24  25
ENDBRANCH   3  24
TORSDOF 8
ENDMDL
MODEL 7
REMARK VINA RESULT:      -8.5      1.924      2.251
REMARK  8 active torsions:
REMARK  status: ('A' for Active; 'I' for Inactive)
REMARK    1  A    between atoms: C_2  and  O_3 
REMARK    2  A    between atoms: O_3  and  C_4 
REMARK    3  A    between atoms: C_4  and  C_5 
REMARK    4  A    between atoms: C_10  and  C_11 
REMARK       I    between atoms: C_11  and  N_12 
REMARK    5  A    between atoms: N_12  and  C_13 
REMARK    6  A    between atoms: C_15  and  C_16 
REMARK    7  A    between atoms: C_16  and  C_17 
REMARK    8  A    between atoms: C_17  and  C_18 
ROOT
HETATM    1  C   UNL     1      43.960 -11.551   7.323  1.00  0.00     0.725 A 
HETATM    2  N   UNL     1      43.829 -10.858   8.426  1.00  0.00    -0.046 NA
HETATM    3  C   UNL     1      45.094 -10.418   8.702  1.00  0.00     0.166 A 
HETATM    4  N   UNL     1      46.018 -10.786   7.805  1.00  0.00    -0.144 NA
HETATM    5  N   UNL     1      45.273 -11.495   6.940  1.00  0.00    -0.106 N 
HETATM    6  H   UNL     1      45.719 -11.908   6.130  1.00  0.00     0.208 HD
ENDROOT
BRANCH   1   7
HETATM    7  N   UNL     1      43.002 -12.229   6.613  1.00  0.00    -0.152 N 
HETATM    8  C   UNL     1      42.603 -11.801   5.363  1.00  0.00     0.272 C 
HETATM    9  O   UNL     1      42.960 -10.771   4.802  1.00  0.00    -0.267 OA
HETATM   10  H   UNL     1      42.540 -13.026   7.018  1.00  0.00     0.187 HD
BRANCH   8  11
HETATM   11  C   UNL     1      41.621 -12.691   4.715  1.00  0.00     0.063 A 
HETATM   12  C   UNL     1      40.269 -12.835   5.017  1.00  0.00     0.022 A 
HETATM   13  N   UNL     1      39.771 -13.828   4.211  1.00  0.00    -0.354 N 
HETATM   14  C   UNL     1      39.390 -12.194   6.032  1.00  0.00     0.069 C 
HETATM   15  C   UNL     1      40.769 -14.406   3.460  1.00  0.00     0.115 A 
HETATM   16  H   UNL     1      38.821 -14.180   4.226  1.00  0.00     0.166 HD
HETATM   17  C   UNL     1      41.921 -13.661   3.686  1.00  0.00    -0.011 A 
HETATM   18  C   UNL     1      43.257 -13.848   3.039  1.00  0.00     0.052 C 
BRANCH  15  19
HETATM   19  C   UNL     1      40.496 -15.585   2.666  1.00  0.00     0.310 C 
HETATM   20  O   UNL     1      39.734 -15.601   1.708  1.00  0.00    -0.258 OA
BRANCH  19  21
HETATM   21  O   UNL     1      41.134 -16.670   3.178  1.00  0.00    -0.317 OA
BRANCH  21  22
HETATM   22  C   UNL     1      42.146 -17.259   2.350  1.00  0.00     0.175 C 
HETATM   23  C   UNL     1      43.353 -17.622   3.196  1.00  0.00     0.034 C 
ENDBRANCH  21  22
ENDBRANCH  19  21
ENDBRANCH  15  19
ENDBRANCH   8  11
ENDBRANCH   1   7
BRANCH   3  24
HETATM   24  C   UNL     1      45.379  -9.603   9.908  1.00  0.00     0.087 C 
BRANCH  24  25
HETATM   25  C   UNL     1      44.217  -9.652  10.902  1.00  0.00     0.048 C 
BRANCH  25  26
HETATM   26  C   UNL     1      43.445  -8.371  10.947  1.00  0.00    -0.030 A 
HETATM   27  C   UNL     1      43.047  -7.666  12.129  1.00  0.00    -0.002 A 
HETATM   28  C   UNL     1      42.361  -6.521  11.724  1.00  0.00     0.042 A 
HETATM   29  C   UNL     1      43.213  -7.899  13.510  1.00  0.00     0.014 A 
HETATM   30  C   UNL     1      41.831  -5.596  12.630  1.00  0.00     0.030 A 
HETATM   31  N   UNL     1      42.343  -6.529  10.349  1.00  0.00    -0.365 N 
HETATM   32  C   UNL     1      42.007  -5.851  13.994  1.00  0.00     0.002 A 
HETATM   33  C   UNL     1      42.687  -6.985  14.431  1.00  0.00     0.001 A 
HETATM   34  H   UNL     1      41.915  -5.813   9.779  1.00  0.00     0.165 HD
HETATM   35  C   UNL     1      42.989  -7.638   9.869  1.00  0.00     0.096 A 
ENDBRANCH  25  26
ENDBRANCH  24  25
ENDBRANCH   3  24
TORSDOF 8
ENDMDL
MODEL 8
REMARK VINA RESULT:      -8.4      2.270      2.790
REMARK  8 active torsions:
REMARK  status: ('A' for Active; 'I' for Inactive)
REMARK    1  A    between atoms: C_2  and  O_3 
REMARK    2  A    between atoms: O_3  and  C_4 
REMARK    3  A    between atoms: C_4  and  C_5 
REMARK    4  A    between atoms: C_10  and  C_11 
REMARK       I    between atoms: C_11  and  N_12 
REMARK    5  A    between atoms: N_12  and  C_13 
REMARK    6  A    between atoms: C_15  and  C_16 
REMARK    7  A    between atoms: C_16  and  C_17 
REMARK    8  A    between atoms: C_17  and  C_18 
ROOT
HETATM    1  C   UNL     1      44.170 -11.155   6.469  1.00  0.00     0.725 A 
HETATM    2  N   UNL     1      44.013 -10.362   7.499  1.00  0.00    -0.046 NA
HETATM    3  C   UNL     1      45.268 -10.240   8.027  1.00  0.00     0.166 A 
HETATM    4  N   UNL     1      46.219 -10.906   7.360  1.00  0.00    -0.144 NA
HETATM    5  N   UNL     1      45.499 -11.470   6.374  1.00  0.00    -0.106 N 
HETATM    6  H   UNL     1      45.969 -12.049   5.690  1.00  0.00     0.208 HD
ENDROOT
BRANCH   1   7
HETATM    7  N   UNL     1      43.227 -11.620   5.587  1.00  0.00    -0.152 N 
HETATM    8  C   UNL     1      42.882 -12.957   5.550  1.00  0.00     0.272 C 
HETATM    9  O   UNL     1      43.410 -13.858   6.191  1.00  0.00    -0.267 OA
HETATM   10  H   UNL     1      42.807 -10.996   4.919  1.00  0.00     0.187 HD
BRANCH   8  11
HETATM   11  C   UNL     1      41.800 -13.264   4.596  1.00  0.00     0.063 A 
HETATM   12  C   UNL     1      40.427 -13.128   4.789  1.00  0.00     0.022 A 
HETATM   13  N   UNL     1      39.804 -13.605   3.663  1.00  0.00    -0.354 N 
HETATM   14  C   UNL     1      39.614 -12.662   5.944  1.00  0.00     0.069 C 
HETATM   15  C   UNL     1      40.714 -14.139   2.780  1.00  0.00     0.115 A 
HETATM   16  H   UNL     1      38.803 -13.666   3.523  1.00  0.00     0.166 HD
HETATM   17  C   UNL     1      41.977 -13.863   3.292  1.00  0.00    -0.011 A 
HETATM   18  C   UNL     1      43.295 -14.173   2.657  1.00  0.00     0.052 C 
BRANCH  15  19
HETATM   19  C   UNL     1      40.261 -14.849   1.602  1.00  0.00     0.310 C 
HETATM   20  O   UNL     1      39.688 -15.930   1.637  1.00  0.00    -0.258 OA
BRANCH  19  21
HETATM   21  O   UNL     1      40.628 -14.191   0.471  1.00  0.00    -0.317 OA
BRANCH  21  22
HETATM   22  C   UNL     1      39.615 -13.392  -0.154  1.00  0.00     0.175 C 
HETATM   23  C   UNL     1      39.202 -14.025  -1.470  1.00  0.00     0.034 C 
ENDBRANCH  21  22
ENDBRANCH  19  21
ENDBRANCH  15  19
ENDBRANCH   8  11
ENDBRANCH   1   7
BRANCH   3  24
HETATM   24  C   UNL     1      45.515  -9.428   9.244  1.00  0.00     0.087 C 
BRANCH  24  25
HETATM   25  C   UNL     1      44.247  -8.702   9.697  1.00  0.00     0.048 C 
BRANCH  25  26
HETATM   26  C   UNL     1      43.639  -9.315  10.919  1.00  0.00    -0.030 A 
HETATM   27  C   UNL     1      43.183  -8.610  12.080  1.00  0.00    -0.002 A 
HETATM   28  C   UNL     1      42.679  -9.555  12.973  1.00  0.00     0.042 A 
HETATM   29  C   UNL     1      43.152  -7.249  12.449  1.00  0.00     0.014 A 
HETATM   30  C   UNL     1      42.144  -9.208  14.219  1.00  0.00     0.030 A 
HETATM   31  N   UNL     1      42.821 -10.786  12.378  1.00  0.00    -0.365 N 
HETATM   32  C   UNL     1      42.127  -7.852  14.562  1.00  0.00     0.002 A 
HETATM   33  C   UNL     1      42.623  -6.885  13.692  1.00  0.00     0.001 A 
HETATM   34  H   UNL     1      42.533 -11.659  12.797  1.00  0.00     0.165 HD
HETATM   35  C   UNL     1      43.400 -10.657  11.144  1.00  0.00     0.096 A 
ENDBRANCH  25  26
ENDBRANCH  24  25
ENDBRANCH   3  24
TORSDOF 8
ENDMDL
MODEL 9
REMARK VINA RESULT:      -8.3      6.632     10.179
REMARK  8 active torsions:
REMARK  status: ('A' for Active; 'I' for Inactive)
REMARK    1  A    between atoms: C_2  and  O_3 
REMARK    2  A    between atoms: O_3  and  C_4 
REMARK    3  A    between atoms: C_4  and  C_5 
REMARK    4  A    between atoms: C_10  and  C_11 
REMARK       I    between atoms: C_11  and  N_12 
REMARK    5  A    between atoms: N_12  and  C_13 
REMARK    6  A    between atoms: C_15  and  C_16 
REMARK    7  A    between atoms: C_16  and  C_17 
REMARK    8  A    between atoms: C_17  and  C_18 
ROOT
HETATM    1  C   UNL     1      39.873 -14.343   2.382  1.00  0.00     0.725 A 
HETATM    2  N   UNL     1      40.540 -13.830   3.384  1.00  0.00    -0.046 NA
HETATM    3  C   UNL     1      40.706 -14.874   4.251  1.00  0.00     0.166 A 
HETATM    4  N   UNL     1      40.189 -16.035   3.828  1.00  0.00    -0.144 NA
HETATM    5  N   UNL     1      39.675 -15.672   2.639  1.00  0.00    -0.106 N 
HETATM    6  H   UNL     1      39.209 -16.369   2.072  1.00  0.00     0.208 HD
ENDROOT
BRANCH   1   7
HETATM    7  N   UNL     1      39.428 -13.728   1.238  1.00  0.00    -0.152 N 
HETATM    8  C   UNL     1      40.050 -13.940   0.024  1.00  0.00     0.272 C 
HETATM    9  O   UNL     1      41.073 -14.588  -0.161  1.00  0.00    -0.267 OA
HETATM   10  H   UNL     1      38.666 -13.072   1.280  1.00  0.00     0.187 HD
BRANCH   8  11
HETATM   11  C   UNL     1      39.392 -13.260  -1.107  1.00  0.00     0.063 A 
HETATM   12  C   UNL     1      38.795 -13.840  -2.223  1.00  0.00     0.022 A 
HETATM   13  N   UNL     1      38.384 -12.822  -3.047  1.00  0.00    -0.354 N 
HETATM   14  C   UNL     1      38.624 -15.255  -2.652  1.00  0.00     0.069 C 
HETATM   15  C   UNL     1      38.776 -11.598  -2.557  1.00  0.00     0.115 A 
HETATM   16  H   UNL     1      37.945 -12.936  -3.953  1.00  0.00     0.166 HD
HETATM   17  C   UNL     1      39.331 -11.828  -1.303  1.00  0.00    -0.011 A 
HETATM   18  C   UNL     1      39.835 -10.803  -0.337  1.00  0.00     0.052 C 
BRANCH  15  19
HETATM   19  C   UNL     1      38.593 -10.400  -3.350  1.00  0.00     0.310 C 
HETATM   20  O   UNL     1      37.500  -9.926  -3.627  1.00  0.00    -0.258 OA
BRANCH  19  21
HETATM   21  O   UNL     1      39.787  -9.935  -3.802  1.00  0.00    -0.317 OA
BRANCH  21  22
HETATM   22  C   UNL     1      40.106  -8.578  -3.468  1.00  0.00     0.175 C 
HETATM   23  C   UNL     1      41.450  -8.204  -4.065  1.00  0.00     0.034 C 
ENDBRANCH  21  22
ENDBRANCH  19  21
ENDBRANCH  15  19
ENDBRANCH   8  11
ENDBRANCH   1   7
BRANCH   3  24
HETATM   24  C   UNL     1      41.405 -14.695   5.547  1.00  0.00     0.087 C 
BRANCH  24  25
HETATM   25  C   UNL     1      42.893 -15.029   5.429  1.00  0.00     0.048 C 
BRANCH  25  26
HETATM   26  C   UNL     1      43.188 -16.459   5.757  1.00  0.00    -0.030 A 
HETATM   27  C   UNL     1      43.431 -17.509   4.813  1.00  0.00    -0.002 A 
HETATM   28  C   UNL     1      43.675 -18.676   5.537  1.00  0.00     0.042 A 
HETATM   29  C   UNL     1      43.469 -17.569   3.403  1.00  0.00     0.014 A 
HETATM   30  C   UNL     1      43.955 -19.902   4.923  1.00  0.00     0.030 A 
HETATM   31  N   UNL     1      43.585 -18.348   6.869  1.00  0.00    -0.365 N 
HETATM   32  C   UNL     1      43.984 -19.936   3.525  1.00  0.00     0.002 A 
HETATM   33  C   UNL     1      43.744 -18.788   2.774  1.00  0.00     0.001 A 
HETATM   34  H   UNL     1      43.723 -19.000   7.628  1.00  0.00     0.165 HD
HETATM   35  C   UNL     1      43.290 -17.018   7.015  1.00  0.00     0.096 A 
ENDBRANCH  25  26
ENDBRANCH  24  25
ENDBRANCH   3  24
TORSDOF 8
ENDMDL
MODEL 10
REMARK VINA RESULT:      -8.1      6.289      9.538
REMARK  8 active torsions:
REMARK  status: ('A' for Active; 'I' for Inactive)
REMARK    1  A    between atoms: C_2  and  O_3 
REMARK    2  A    between atoms: O_3  and  C_4 
REMARK    3  A    between atoms: C_4  and  C_5 
REMARK    4  A    between atoms: C_10  and  C_11 
REMARK       I    between atoms: C_11  and  N_12 
REMARK    5  A    between atoms: N_12  and  C_13 
REMARK    6  A    between atoms: C_15  and  C_16 
REMARK    7  A    between atoms: C_16  and  C_17 
REMARK    8  A    between atoms: C_17  and  C_18 
ROOT
HETATM    1  C   UNL     1      40.481 -14.087   4.299  1.00  0.00     0.725 A 
HETATM    2  N   UNL     1      41.410 -14.899   4.737  1.00  0.00    -0.046 NA
HETATM    3  C   UNL     1      41.158 -15.011   6.075  1.00  0.00     0.166 A 
HETATM    4  N   UNL     1      40.092 -14.321   6.501  1.00  0.00    -0.144 NA
HETATM    5  N   UNL     1      39.678 -13.752   5.355  1.00  0.00    -0.106 N 
HETATM    6  H   UNL     1      38.861 -13.155   5.370  1.00  0.00     0.208 HD
ENDROOT
BRANCH   1   7
HETATM    7  N   UNL     1      40.275 -13.621   3.025  1.00  0.00    -0.152 N 
HETATM    8  C   UNL     1      41.326 -13.178   2.247  1.00  0.00     0.272 C 
HETATM    9  O   UNL     1      42.492 -13.061   2.605  1.00  0.00    -0.267 OA
HETATM   10  H   UNL     1      39.341 -13.550   2.657  1.00  0.00     0.187 HD
BRANCH   8  11
HETATM   11  C   UNL     1      40.930 -12.784   0.882  1.00  0.00     0.063 A 
HETATM   12  C   UNL     1      41.028 -11.526   0.293  1.00  0.00     0.022 A 
HETATM   13  N   UNL     1      40.469 -11.612  -0.957  1.00  0.00    -0.354 N 
HETATM   14  C   UNL     1      41.524 -10.216   0.794  1.00  0.00     0.069 C 
HETATM   15  C   UNL     1      39.923 -12.856  -1.173  1.00  0.00     0.115 A 
HETATM   16  H   UNL     1      40.365 -10.846  -1.612  1.00  0.00     0.166 HD
HETATM   17  C   UNL     1      40.270 -13.640  -0.078  1.00  0.00    -0.011 A 
HETATM   18  C   UNL     1      39.975 -15.093   0.121  1.00  0.00     0.052 C 
BRANCH  15  19
HETATM   19  C   UNL     1      39.136 -13.113  -2.361  1.00  0.00     0.310 C 
HETATM   20  O   UNL     1      39.618 -13.315  -3.468  1.00  0.00    -0.258 OA
BRANCH  19  21
HETATM   21  O   UNL     1      37.808 -13.019  -2.089  1.00  0.00    -0.317 OA
BRANCH  21  22
HETATM   22  C   UNL     1      37.341 -11.738  -1.648  1.00  0.00     0.175 C 
HETATM   23  C   UNL     1      36.953 -10.893  -2.847  1.00  0.00     0.034 C 
ENDBRANCH  21  22
ENDBRANCH  19  21
ENDBRANCH  15  19
ENDBRANCH   8  11
ENDBRANCH   1   7
BRANCH   3  24
HETATM   24  C   UNL     1      42.021 -15.839   6.954  1.00  0.00     0.087 C 
BRANCH  24  25
HETATM   25  C   UNL     1      43.339 -16.195   6.266  1.00  0.00     0.048 C 
BRANCH  25  26
HETATM   26  C   UNL     1      43.457 -17.657   5.970  1.00  0.00    -0.030 A 
HETATM   27  C   UNL     1      43.561 -18.251   4.670  1.00  0.00    -0.002 A 
HETATM   28  C   UNL     1      43.663 -19.631   4.846  1.00  0.00     0.042 A 
HETATM   29  C   UNL     1      43.580 -17.734   3.357  1.00  0.00     0.014 A 
HETATM   30  C   UNL     1      43.783 -20.523   3.774  1.00  0.00     0.030 A 
HETATM   31  N   UNL     1      43.624 -19.867   6.200  1.00  0.00    -0.365 N 
HETATM   32  C   UNL     1      43.797 -19.986   2.482  1.00  0.00     0.002 A 
HETATM   33  C   UNL     1      43.697 -18.613   2.274  1.00  0.00     0.001 A 
HETATM   34  H   UNL     1      43.684 -20.784   6.621  1.00  0.00     0.165 HD
HETATM   35  C   UNL     1      43.497 -18.689   6.887  1.00  0.00     0.096 A 
ENDBRANCH  25  26
ENDBRANCH  24  25
ENDBRANCH   3  24
TORSDOF 8
ENDMDL
