MODEL 1
REMARK VINA RESULT:      -7.4      0.000      0.000
REMARK  4 active torsions:
REMARK  status: ('A' for Active; 'I' for Inactive)
REMARK    1  A    between atoms: C_6  and  C_7 
REMARK    2  A    between atoms: C_7  and  N_8 
REMARK    3  A    between atoms: N_8  and  C_9 
REMARK    4  A    between atoms: C_9  and  C_10 
ROOT
HETATM    1  C   UNL     1      42.064 -14.098   1.507  1.00  0.00     0.327 C 
ENDROOT
BRANCH   1   2
HETATM    2  N   UNL     1      41.893 -15.531   1.779  1.00  0.00     0.097 N 
HETATM    3  H   UNL     1      40.913 -15.787   1.638  1.00  0.00     0.317 HD
BRANCH   2   4
HETATM    4  C   UNL     1      42.226 -15.874   3.178  1.00  0.00     0.252 C 
HETATM    5  C   UNL     1      40.996 -15.924   4.093  1.00  0.00     0.048 C 
BRANCH   4   6
HETATM    6  C   UNL     1      42.933 -17.198   3.156  1.00  0.00     0.006 A 
HETATM    7  C   UNL     1      43.796 -17.697   4.120  1.00  0.00     0.058 A 
HETATM    8  O   UNL     1      44.215 -18.948   3.787  1.00  0.00    -0.320 OA
HETATM    9  C   UNL     1      44.314 -17.168   5.401  1.00  0.00     0.077 C 
HETATM   10  C   UNL     1      43.609 -19.282   2.618  1.00  0.00     0.050 A 
HETATM   11  C   UNL     1      43.890 -20.633   2.092  1.00  0.00     0.076 C 
HETATM   12  C   UNL     1      42.819 -18.241   2.184  1.00  0.00     0.044 A 
ENDBRANCH   4   6
ENDBRANCH   2   4
ENDBRANCH   1   2
BRANCH   1  13
HETATM   13  C   UNL     1      40.868 -13.568   0.741  1.00  0.00     0.044 A 
HETATM   14  N   UNL     1      40.546 -14.257  -0.414  1.00  0.00    -0.338 N 
HETATM   15  H   UNL     1      41.099 -15.078  -0.673  1.00  0.00     0.168 HD
HETATM   16  C   UNL     1      39.527 -13.885  -1.147  1.00  0.00     0.158 A 
HETATM   17  N   UNL     1      38.776 -12.854  -0.815  1.00  0.00    -0.269 N 
HETATM   18  S   UNL     1      39.035 -14.675  -2.613  1.00  0.00    -0.064 SA
HETATM   19  C   UNL     1      38.987 -12.077   0.341  1.00  0.00     0.255 A 
HETATM   20  C   UNL     1      37.756 -12.623  -1.716  1.00  0.00     0.109 A 
HETATM   21  O   UNL     1      38.270 -11.136   0.621  1.00  0.00    -0.268 OA
HETATM   22  C   UNL     1      40.136 -12.521   1.147  1.00  0.00     0.101 A 
HETATM   23  C   UNL     1      37.744 -13.495  -2.734  1.00  0.00     0.071 A 
ENDBRANCH   1  13
TORSDOF 4
ENDMDL
MODEL 2
REMARK VINA RESULT:      -7.4      2.052      2.320
REMARK  4 active torsions:
REMARK  status: ('A' for Active; 'I' for Inactive)
REMARK    1  A    between atoms: C_6  and  C_7 
REMARK    2  A    between atoms: C_7  and  N_8 
REMARK    3  A    between atoms: N_8  and  C_9 
REMARK    4  A    between atoms: C_9  and  C_10 
ROOT
HETATM    1  C   UNL     1      40.352 -15.308   1.204  1.00  0.00     0.327 C 
ENDROOT
BRANCH   1   2
HETATM    2  N   UNL     1      41.764 -15.372   1.603  1.00  0.00     0.097 N 
HETATM    3  H   UNL     1      42.241 -16.081   1.042  1.00  0.00     0.317 HD
BRANCH   2   4
HETATM    4  C   UNL     1      41.923 -15.773   3.018  1.00  0.00     0.252 C 
HETATM    5  C   UNL     1      40.587 -15.934   3.752  1.00  0.00     0.048 C 
BRANCH   4   6
HETATM    6  C   UNL     1      42.701 -17.056   3.031  1.00  0.00     0.006 A 
HETATM    7  C   UNL     1      43.600 -17.475   4.001  1.00  0.00     0.058 A 
HETATM    8  O   UNL     1      44.084 -18.712   3.705  1.00  0.00    -0.320 OA
HETATM    9  C   UNL     1      44.101 -16.876   5.257  1.00  0.00     0.077 C 
HETATM   10  C   UNL     1      43.485 -19.118   2.555  1.00  0.00     0.050 A 
HETATM   11  C   UNL     1      43.834 -20.469   2.071  1.00  0.00     0.076 C 
HETATM   12  C   UNL     1      42.635 -18.137   2.096  1.00  0.00     0.044 A 
ENDBRANCH   4   6
ENDBRANCH   2   4
ENDBRANCH   1   2
BRANCH   1  13
HETATM   13  C   UNL     1      40.197 -14.426  -0.020  1.00  0.00     0.044 A 
HETATM   14  N   UNL     1      40.681 -13.136   0.109  1.00  0.00    -0.338 N 
HETATM   15  H   UNL     1      41.126 -12.858   0.988  1.00  0.00     0.168 HD
HETATM   16  C   UNL     1      40.602 -12.294  -0.890  1.00  0.00     0.158 A 
HETATM   17  N   UNL     1      40.068 -12.639  -2.044  1.00  0.00    -0.269 N 
HETATM   18  S   UNL     1      41.175 -10.656  -0.838  1.00  0.00    -0.064 SA
HETATM   19  C   UNL     1      39.552 -13.924  -2.311  1.00  0.00     0.255 A 
HETATM   20  C   UNL     1      40.077 -11.613  -2.967  1.00  0.00     0.109 A 
HETATM   21  O   UNL     1      39.071 -14.210  -3.390  1.00  0.00    -0.268 OA
HETATM   22  C   UNL     1      39.657 -14.849  -1.171  1.00  0.00     0.101 A 
HETATM   23  C   UNL     1      40.627 -10.485  -2.494  1.00  0.00     0.071 A 
ENDBRANCH   1  13
TORSDOF 4
ENDMDL
MODEL 3
REMARK VINA RESULT:      -7.0      2.028      2.902
REMARK  4 active torsions:
REMARK  status: ('A' for Active; 'I' for Inactive)
REMARK    1  A    between atoms: C_6  and  C_7 
REMARK    2  A    between atoms: C_7  and  N_8 
REMARK    3  A    between atoms: N_8  and  C_9 
REMARK    4  A    between atoms: C_9  and  C_10 
ROOT
HETATM    1  C   UNL     1      41.060 -14.662   1.806  1.00  0.00     0.327 C 
ENDROOT
BRANCH   1   2
HETATM    2  N   UNL     1      41.484 -16.065   1.711  1.00  0.00     0.097 N 
HETATM    3  H   UNL     1      41.062 -16.598   2.475  1.00  0.00     0.317 HD
BRANCH   2   4
HETATM    4  C   UNL     1      42.949 -16.213   1.851  1.00  0.00     0.252 C 
HETATM    5  C   UNL     1      43.701 -14.880   1.749  1.00  0.00     0.048 C 
BRANCH   4   6
HETATM    6  C   UNL     1      43.206 -16.875   3.172  1.00  0.00     0.006 A 
HETATM    7  C   UNL     1      43.508 -18.211   3.390  1.00  0.00     0.058 A 
HETATM    8  O   UNL     1      43.719 -18.446   4.713  1.00  0.00    -0.320 OA
HETATM    9  C   UNL     1      43.662 -19.383   2.499  1.00  0.00     0.077 C 
HETATM   10  C   UNL     1      43.582 -17.262   5.363  1.00  0.00     0.050 A 
HETATM   11  C   UNL     1      43.819 -17.279   6.821  1.00  0.00     0.076 C 
HETATM   12  C   UNL     1      43.259 -16.268   4.467  1.00  0.00     0.044 A 
ENDBRANCH   4   6
ENDBRANCH   2   4
ENDBRANCH   1   2
BRANCH   1  13
HETATM   13  C   UNL     1      40.590 -14.169   0.451  1.00  0.00     0.044 A 
HETATM   14  N   UNL     1      41.071 -12.931   0.066  1.00  0.00    -0.338 N 
HETATM   15  H   UNL     1      41.718 -12.435   0.685  1.00  0.00     0.168 HD
HETATM   16  C   UNL     1      40.730 -12.415  -1.088  1.00  0.00     0.158 A 
HETATM   17  N   UNL     1      39.928 -13.049  -1.919  1.00  0.00    -0.269 N 
HETATM   18  S   UNL     1      41.272 -10.871  -1.668  1.00  0.00    -0.064 SA
HETATM   19  C   UNL     1      39.381 -14.321  -1.654  1.00  0.00     0.255 A 
HETATM   20  C   UNL     1      39.688 -12.340  -3.078  1.00  0.00     0.109 A 
HETATM   21  O   UNL     1      38.648 -14.881  -2.448  1.00  0.00    -0.268 OA
HETATM   22  C   UNL     1      39.784 -14.877  -0.353  1.00  0.00     0.101 A 
HETATM   23  C   UNL     1      40.323 -11.159  -3.114  1.00  0.00     0.071 A 
ENDBRANCH   1  13
TORSDOF 4
ENDMDL
MODEL 4
REMARK VINA RESULT:      -7.0      2.621      7.481
REMARK  4 active torsions:
REMARK  status: ('A' for Active; 'I' for Inactive)
REMARK    1  A    between atoms: C_6  and  C_7 
REMARK    2  A    between atoms: C_7  and  N_8 
REMARK    3  A    between atoms: N_8  and  C_9 
REMARK    4  A    between atoms: C_9  and  C_10 
ROOT
HETATM    1  C   UNL     1      42.861 -14.996   2.238  1.00  0.00     0.327 C 
ENDROOT
BRANCH   1   2
HETATM    2  N   UNL     1      42.167 -15.367   0.998  1.00  0.00     0.097 N 
HETATM    3  H   UNL     1      42.399 -14.691   0.266  1.00  0.00     0.317 HD
BRANCH   2   4
HETATM    4  C   UNL     1      40.697 -15.335   1.154  1.00  0.00     0.252 C 
HETATM    5  C   UNL     1      40.246 -14.708   2.479  1.00  0.00     0.048 C 
BRANCH   4   6
HETATM    6  C   UNL     1      40.141 -14.578  -0.016  1.00  0.00     0.006 A 
HETATM    7  C   UNL     1      40.325 -13.233  -0.300  1.00  0.00     0.058 A 
HETATM    8  O   UNL     1      39.709 -12.901  -1.467  1.00  0.00    -0.320 OA
HETATM    9  C   UNL     1      41.049 -12.135   0.376  1.00  0.00     0.077 C 
HETATM   10  C   UNL     1      39.142 -14.031  -1.964  1.00  0.00     0.050 A 
HETATM   11  C   UNL     1      38.453 -13.907  -3.264  1.00  0.00     0.076 C 
HETATM   12  C   UNL     1      39.370 -15.086  -1.108  1.00  0.00     0.044 A 
ENDBRANCH   4   6
ENDBRANCH   2   4
ENDBRANCH   1   2
BRANCH   1  13
HETATM   13  C   UNL     1      43.207 -16.241   3.032  1.00  0.00     0.044 A 
HETATM   14  N   UNL     1      43.212 -17.424   2.315  1.00  0.00    -0.338 N 
HETATM   15  H   UNL     1      43.012 -17.397   1.312  1.00  0.00     0.168 HD
HETATM   16  C   UNL     1      43.502 -18.556   2.904  1.00  0.00     0.158 A 
HETATM   17  N   UNL     1      43.800 -18.612   4.186  1.00  0.00    -0.269 N 
HETATM   18  S   UNL     1      43.536 -20.096   2.102  1.00  0.00    -0.064 SA
HETATM   19  C   UNL     1      43.844 -17.481   5.026  1.00  0.00     0.255 A 
HETATM   20  C   UNL     1      44.073 -19.894   4.617  1.00  0.00     0.109 A 
HETATM   21  O   UNL     1      44.130 -17.568   6.205  1.00  0.00    -0.268 OA
HETATM   22  C   UNL     1      43.518 -16.223   4.336  1.00  0.00     0.101 A 
HETATM   23  C   UNL     1      43.979 -20.809   3.641  1.00  0.00     0.071 A 
ENDBRANCH   1  13
TORSDOF 4
ENDMDL
MODEL 5
REMARK VINA RESULT:      -7.0      1.556      2.516
REMARK  4 active torsions:
REMARK  status: ('A' for Active; 'I' for Inactive)
REMARK    1  A    between atoms: C_6  and  C_7 
REMARK    2  A    between atoms: C_7  and  N_8 
REMARK    3  A    between atoms: N_8  and  C_9 
REMARK    4  A    between atoms: C_9  and  C_10 
ROOT
HETATM    1  C   UNL     1      40.151 -15.712   1.697  1.00  0.00     0.327 C 
ENDROOT
BRANCH   1   2
HETATM    2  N   UNL     1      41.219 -15.626   2.703  1.00  0.00     0.097 N 
HETATM    3  H   UNL     1      41.622 -14.687   2.687  1.00  0.00     0.317 HD
BRANCH   2   4
HETATM    4  C   UNL     1      42.324 -16.568   2.421  1.00  0.00     0.252 C 
HETATM    5  C   UNL     1      43.412 -15.967   1.524  1.00  0.00     0.048 C 
BRANCH   4   6
HETATM    6  C   UNL     1      42.892 -16.994   3.743  1.00  0.00     0.006 A 
HETATM    7  C   UNL     1      43.606 -18.153   4.008  1.00  0.00     0.058 A 
HETATM    8  O   UNL     1      44.001 -18.186   5.309  1.00  0.00    -0.320 OA
HETATM    9  C   UNL     1      44.025 -19.307   3.182  1.00  0.00     0.077 C 
HETATM   10  C   UNL     1      43.572 -17.038   5.894  1.00  0.00     0.050 A 
HETATM   11  C   UNL     1      43.937 -16.843   7.312  1.00  0.00     0.076 C 
HETATM   12  C   UNL     1      42.879 -16.276   4.981  1.00  0.00     0.044 A 
ENDBRANCH   4   6
ENDBRANCH   2   4
ENDBRANCH   1   2
BRANCH   1  13
HETATM   13  C   UNL     1      40.177 -14.485   0.805  1.00  0.00     0.044 A 
HETATM   14  N   UNL     1      39.474 -14.595  -0.380  1.00  0.00    -0.338 N 
HETATM   15  H   UNL     1      38.968 -15.462  -0.580  1.00  0.00     0.168 HD
HETATM   16  C   UNL     1      39.427 -13.591  -1.220  1.00  0.00     0.158 A 
HETATM   17  N   UNL     1      40.039 -12.451  -0.969  1.00  0.00    -0.269 N 
HETATM   18  S   UNL     1      38.578 -13.620  -2.734  1.00  0.00    -0.064 SA
HETATM   19  C   UNL     1      40.777 -12.205   0.207  1.00  0.00     0.255 A 
HETATM   20  C   UNL     1      39.872 -11.522  -1.975  1.00  0.00     0.109 A 
HETATM   21  O   UNL     1      41.323 -11.138   0.409  1.00  0.00    -0.268 OA
HETATM   22  C   UNL     1      40.808 -13.349   1.132  1.00  0.00     0.101 A 
HETATM   23  C   UNL     1      39.124 -11.974  -2.992  1.00  0.00     0.071 A 
ENDBRANCH   1  13
TORSDOF 4
ENDMDL
MODEL 6
REMARK VINA RESULT:      -6.8      3.609      7.352
REMARK  4 active torsions:
REMARK  status: ('A' for Active; 'I' for Inactive)
REMARK    1  A    between atoms: C_6  and  C_7 
REMARK    2  A    between atoms: C_7  and  N_8 
REMARK    3  A    between atoms: N_8  and  C_9 
REMARK    4  A    between atoms: C_9  and  C_10 
ROOT
HETATM    1  C   UNL     1      43.101 -16.136   1.434  1.00  0.00     0.327 C 
ENDROOT
BRANCH   1   2
HETATM    2  N   UNL     1      43.411 -14.724   1.698  1.00  0.00     0.097 N 
HETATM    3  H   UNL     1      43.739 -14.625   2.662  1.00  0.00     0.317 HD
BRANCH   2   4
HETATM    4  C   UNL     1      42.218 -13.860   1.565  1.00  0.00     0.252 C 
HETATM    5  C   UNL     1      41.040 -14.562   0.879  1.00  0.00     0.048 C 
BRANCH   4   6
HETATM    6  C   UNL     1      41.843 -13.404   2.944  1.00  0.00     0.006 A 
HETATM    7  C   UNL     1      42.523 -12.487   3.732  1.00  0.00     0.058 A 
HETATM    8  O   UNL     1      41.868 -12.285   4.907  1.00  0.00    -0.320 OA
HETATM    9  C   UNL     1      43.761 -11.698   3.545  1.00  0.00     0.077 C 
HETATM   10  C   UNL     1      40.745 -13.048   4.883  1.00  0.00     0.050 A 
HETATM   11  C   UNL     1      39.852 -12.945   6.055  1.00  0.00     0.076 C 
HETATM   12  C   UNL     1      40.686 -13.761   3.706  1.00  0.00     0.044 A 
ENDBRANCH   4   6
ENDBRANCH   2   4
ENDBRANCH   1   2
BRANCH   1  13
HETATM   13  C   UNL     1      43.342 -16.963   2.682  1.00  0.00     0.044 A 
HETATM   14  N   UNL     1      43.473 -18.325   2.479  1.00  0.00    -0.338 N 
HETATM   15  H   UNL     1      43.426 -18.691   1.524  1.00  0.00     0.168 HD
HETATM   16  C   UNL     1      43.688 -19.129   3.489  1.00  0.00     0.158 A 
HETATM   17  N   UNL     1      43.789 -18.678   4.723  1.00  0.00    -0.269 N 
HETATM   18  S   UNL     1      43.866 -20.851   3.349  1.00  0.00    -0.064 SA
HETATM   19  C   UNL     1      43.689 -17.314   5.064  1.00  0.00     0.255 A 
HETATM   20  C   UNL     1      44.014 -19.681   5.643  1.00  0.00     0.109 A 
HETATM   21  O   UNL     1      43.795 -16.931   6.213  1.00  0.00    -0.268 OA
HETATM   22  C   UNL     1      43.451 -16.434   3.908  1.00  0.00     0.101 A 
HETATM   23  C   UNL     1      44.082 -20.900   5.087  1.00  0.00     0.071 A 
ENDBRANCH   1  13
TORSDOF 4
ENDMDL
MODEL 7
REMARK VINA RESULT:      -6.8      6.665      8.133
REMARK  4 active torsions:
REMARK  status: ('A' for Active; 'I' for Inactive)
REMARK    1  A    between atoms: C_6  and  C_7 
REMARK    2  A    between atoms: C_7  and  N_8 
REMARK    3  A    between atoms: N_8  and  C_9 
REMARK    4  A    between atoms: C_9  and  C_10 
ROOT
HETATM    1  C   UNL     1      44.215 -12.968   6.818  1.00  0.00     0.327 C 
ENDROOT
BRANCH   1   2
HETATM    2  N   UNL     1      43.028 -13.061   5.958  1.00  0.00     0.097 N 
HETATM    3  H   UNL     1      42.404 -12.276   6.157  1.00  0.00     0.317 HD
BRANCH   2   4
HETATM    4  C   UNL     1      42.253 -14.294   6.212  1.00  0.00     0.252 C 
HETATM    5  C   UNL     1      40.741 -14.099   6.051  1.00  0.00     0.048 C 
BRANCH   4   6
HETATM    6  C   UNL     1      42.763 -15.343   5.268  1.00  0.00     0.006 A 
HETATM    7  C   UNL     1      43.677 -16.347   5.552  1.00  0.00     0.058 A 
HETATM    8  O   UNL     1      43.871 -17.141   4.465  1.00  0.00    -0.320 OA
HETATM    9  C   UNL     1      44.437 -16.724   6.764  1.00  0.00     0.077 C 
HETATM   10  C   UNL     1      43.067 -16.677   3.473  1.00  0.00     0.050 A 
HETATM   11  C   UNL     1      43.085 -17.430   2.203  1.00  0.00     0.076 C 
HETATM   12  C   UNL     1      42.373 -15.571   3.910  1.00  0.00     0.044 A 
ENDBRANCH   4   6
ENDBRANCH   2   4
ENDBRANCH   1   2
BRANCH   1  13
HETATM   13  C   UNL     1      44.357 -11.558   7.358  1.00  0.00     0.044 A 
HETATM   14  N   UNL     1      43.206 -11.002   7.885  1.00  0.00    -0.338 N 
HETATM   15  H   UNL     1      42.349 -11.562   7.906  1.00  0.00     0.168 HD
HETATM   16  C   UNL     1      43.220  -9.791   8.382  1.00  0.00     0.158 A 
HETATM   17  N   UNL     1      44.319  -9.065   8.401  1.00  0.00    -0.269 N 
HETATM   18  S   UNL     1      41.835  -8.997   9.066  1.00  0.00    -0.064 SA
HETATM   19  C   UNL     1      45.560  -9.517   7.909  1.00  0.00     0.255 A 
HETATM   20  C   UNL     1      44.128  -7.819   8.963  1.00  0.00     0.109 A 
HETATM   21  O   UNL     1      46.557  -8.822   7.949  1.00  0.00    -0.268 OA
HETATM   22  C   UNL     1      45.514 -10.882   7.361  1.00  0.00     0.101 A 
HETATM   23  C   UNL     1      42.867  -7.613   9.370  1.00  0.00     0.071 A 
ENDBRANCH   1  13
TORSDOF 4
ENDMDL
MODEL 8
REMARK VINA RESULT:      -6.8      3.059      3.974
REMARK  4 active torsions:
REMARK  status: ('A' for Active; 'I' for Inactive)
REMARK    1  A    between atoms: C_6  and  C_7 
REMARK    2  A    between atoms: C_7  and  N_8 
REMARK    3  A    between atoms: N_8  and  C_9 
REMARK    4  A    between atoms: C_9  and  C_10 
ROOT
HETATM    1  C   UNL     1      40.631 -15.537   1.473  1.00  0.00     0.327 C 
ENDROOT
BRANCH   1   2
HETATM    2  N   UNL     1      41.248 -16.511   2.385  1.00  0.00     0.097 N 
HETATM    3  H   UNL     1      41.318 -16.101   3.319  1.00  0.00     0.317 HD
BRANCH   2   4
HETATM    4  C   UNL     1      42.623 -16.864   1.972  1.00  0.00     0.252 C 
HETATM    5  C   UNL     1      43.486 -15.640   1.642  1.00  0.00     0.048 C 
BRANCH   4   6
HETATM    6  C   UNL     1      43.230 -17.665   3.086  1.00  0.00     0.006 A 
HETATM    7  C   UNL     1      43.507 -17.226   4.372  1.00  0.00     0.058 A 
HETATM    8  O   UNL     1      44.015 -18.239   5.126  1.00  0.00    -0.320 OA
HETATM    9  C   UNL     1      43.344 -15.931   5.067  1.00  0.00     0.077 C 
HETATM   10  C   UNL     1      44.049 -19.349   4.345  1.00  0.00     0.050 A 
HETATM   11  C   UNL     1      44.529 -20.591   4.984  1.00  0.00     0.076 C 
HETATM   12  C   UNL     1      43.587 -19.050   3.082  1.00  0.00     0.044 A 
ENDBRANCH   4   6
ENDBRANCH   2   4
ENDBRANCH   1   2
BRANCH   1  13
HETATM   13  C   UNL     1      40.187 -14.311   2.247  1.00  0.00     0.044 A 
HETATM   14  N   UNL     1      40.370 -14.370   3.616  1.00  0.00    -0.338 N 
HETATM   15  H   UNL     1      40.805 -15.202   4.023  1.00  0.00     0.168 HD
HETATM   16  C   UNL     1      40.025 -13.363   4.377  1.00  0.00     0.158 A 
HETATM   17  N   UNL     1      39.498 -12.265   3.873  1.00  0.00    -0.269 N 
HETATM   18  S   UNL     1      40.209 -13.331   6.103  1.00  0.00    -0.064 SA
HETATM   19  C   UNL     1      39.271 -12.071   2.495  1.00  0.00     0.255 A 
HETATM   20  C   UNL     1      39.201 -11.322   4.836  1.00  0.00     0.109 A 
HETATM   21  O   UNL     1      38.788 -11.042   2.063  1.00  0.00    -0.268 OA
HETATM   22  C   UNL     1      39.672 -13.218   1.666  1.00  0.00     0.101 A 
HETATM   23  C   UNL     1      39.513 -11.722   6.078  1.00  0.00     0.071 A 
ENDBRANCH   1  13
TORSDOF 4
ENDMDL
MODEL 9
REMARK VINA RESULT:      -6.7      3.682      7.103
REMARK  4 active torsions:
REMARK  status: ('A' for Active; 'I' for Inactive)
REMARK    1  A    between atoms: C_6  and  C_7 
REMARK    2  A    between atoms: C_7  and  N_8 
REMARK    3  A    between atoms: N_8  and  C_9 
REMARK    4  A    between atoms: C_9  and  C_10 
ROOT
HETATM    1  C   UNL     1      42.457 -15.133   2.132  1.00  0.00     0.327 C 
ENDROOT
BRANCH   1   2
HETATM    2  N   UNL     1      41.233 -14.595   2.741  1.00  0.00     0.097 N 
HETATM    3  H   UNL     1      40.446 -14.744   2.105  1.00  0.00     0.317 HD
BRANCH   2   4
HETATM    4  C   UNL     1      41.322 -13.138   2.974  1.00  0.00     0.252 C 
HETATM    5  C   UNL     1      39.953 -12.448   2.999  1.00  0.00     0.048 C 
BRANCH   4   6
HETATM    6  C   UNL     1      42.048 -12.938   4.272  1.00  0.00     0.006 A 
HETATM    7  C   UNL     1      41.622 -13.328   5.533  1.00  0.00     0.058 A 
HETATM    8  O   UNL     1      42.558 -13.022   6.471  1.00  0.00    -0.320 OA
HETATM    9  C   UNL     1      40.408 -14.006   6.037  1.00  0.00     0.077 C 
HETATM   10  C   UNL     1      43.610 -12.455   5.826  1.00  0.00     0.050 A 
HETATM   11  C   UNL     1      44.772 -12.083   6.659  1.00  0.00     0.076 C 
HETATM   12  C   UNL     1      43.345 -12.372   4.478  1.00  0.00     0.044 A 
ENDBRANCH   4   6
ENDBRANCH   2   4
ENDBRANCH   1   2
BRANCH   1  13
HETATM   13  C   UNL     1      42.946 -16.332   2.920  1.00  0.00     0.044 A 
HETATM   14  N   UNL     1      42.936 -17.537   2.241  1.00  0.00    -0.338 N 
HETATM   15  H   UNL     1      42.631 -17.554   1.264  1.00  0.00     0.168 HD
HETATM   16  C   UNL     1      43.343 -18.634   2.828  1.00  0.00     0.158 A 
HETATM   17  N   UNL     1      43.776 -18.632   4.072  1.00  0.00    -0.269 N 
HETATM   18  S   UNL     1      43.372 -20.196   2.071  1.00  0.00    -0.064 SA
HETATM   19  C   UNL     1      43.851 -17.472   4.869  1.00  0.00     0.255 A 
HETATM   20  C   UNL     1      44.158 -19.884   4.508  1.00  0.00     0.109 A 
HETATM   21  O   UNL     1      44.262 -17.505   6.013  1.00  0.00    -0.268 OA
HETATM   22  C   UNL     1      43.390 -16.255   4.182  1.00  0.00     0.101 A 
HETATM   23  C   UNL     1      44.009 -20.835   3.574  1.00  0.00     0.071 A 
ENDBRANCH   1  13
TORSDOF 4
ENDMDL
MODEL 10
REMARK VINA RESULT:      -6.7      4.774      7.686
REMARK  4 active torsions:
REMARK  status: ('A' for Active; 'I' for Inactive)
REMARK    1  A    between atoms: C_6  and  C_7 
REMARK    2  A    between atoms: C_7  and  N_8 
REMARK    3  A    between atoms: N_8  and  C_9 
REMARK    4  A    between atoms: C_9  and  C_10 
ROOT
HETATM    1  C   UNL     1      40.784 -13.944   5.171  1.00  0.00     0.327 C 
ENDROOT
BRANCH   1   2
HETATM    2  N   UNL     1      41.039 -13.024   6.288  1.00  0.00     0.097 N 
HETATM    3  H   UNL     1      40.194 -12.940   6.857  1.00  0.00     0.317 HD
BRANCH   2   4
HETATM    4  C   UNL     1      41.373 -11.662   5.819  1.00  0.00     0.252 C 
HETATM    5  C   UNL     1      40.646 -10.562   6.602  1.00  0.00     0.048 C 
BRANCH   4   6
HETATM    6  C   UNL     1      42.861 -11.506   5.928  1.00  0.00     0.006 A 
HETATM    7  C   UNL     1      43.780 -11.530   4.890  1.00  0.00     0.058 A 
HETATM    8  O   UNL     1      45.038 -11.312   5.357  1.00  0.00    -0.320 OA
HETATM    9  C   UNL     1      43.663 -11.715   3.426  1.00  0.00     0.077 C 
HETATM   10  C   UNL     1      44.947 -11.120   6.698  1.00  0.00     0.050 A 
HETATM   11  C   UNL     1      46.206 -10.818   7.409  1.00  0.00     0.076 C 
HETATM   12  C   UNL     1      43.635 -11.237   7.101  1.00  0.00     0.044 A 
ENDBRANCH   4   6
ENDBRANCH   2   4
ENDBRANCH   1   2
BRANCH   1  13
HETATM   13  C   UNL     1      41.729 -15.128   5.247  1.00  0.00     0.044 A 
HETATM   14  N   UNL     1      41.957 -15.785   4.052  1.00  0.00    -0.338 N 
HETATM   15  H   UNL     1      41.511 -15.437   3.200  1.00  0.00     0.168 HD
HETATM   16  C   UNL     1      42.761 -16.818   4.005  1.00  0.00     0.158 A 
HETATM   17  N   UNL     1      43.378 -17.263   5.081  1.00  0.00    -0.269 N 
HETATM   18  S   UNL     1      43.118 -17.716   2.562  1.00  0.00    -0.064 SA
HETATM   19  C   UNL     1      43.243 -16.676   6.355  1.00  0.00     0.255 A 
HETATM   20  C   UNL     1      44.178 -18.358   4.825  1.00  0.00     0.109 A 
HETATM   21  O   UNL     1      43.833 -17.109   7.327  1.00  0.00    -0.268 OA
HETATM   22  C   UNL     1      42.337 -15.517   6.376  1.00  0.00     0.101 A 
HETATM   23  C   UNL     1      44.159 -18.735   3.538  1.00  0.00     0.071 A 
ENDBRANCH   1  13
TORSDOF 4
ENDMDL
