MODEL 1
REMARK VINA RESULT:      -8.6      0.000      0.000
REMARK  6 active torsions:
REMARK  status: ('A' for Active; 'I' for Inactive)
REMARK    1  A    between atoms: C_8  and  N_9 
REMARK       I    between atoms: N_9  and  C_10 
REMARK    2  A    between atoms: C_10  and  C_11 
REMARK    3  A    between atoms: C_11  and  N_12 
REMARK    4  A    between atoms: N_12  and  C_15 
REMARK    5  A    between atoms: C_15  and  C_16 
REMARK    6  A    between atoms: C_15  and  C_22 
ROOT
HETATM    1  N   UNL     1      42.424 -16.418   1.850  1.00  0.00    -0.055 N 
HETATM    2  H   UNL     1      41.514 -16.879   1.894  1.00  0.00     0.278 HD
HETATM    3  H   UNL     1      42.977 -16.863   1.103  1.00  0.00     0.278 HD
ENDROOT
BRANCH   1   4
HETATM    4  C   UNL     1      42.252 -14.969   1.462  1.00  0.00     0.336 C 
BRANCH   4   5
HETATM    5  C   UNL     1      40.810 -14.658   1.064  1.00  0.00     0.248 C 
HETATM    6  N   UNL     1      40.698 -13.891  -0.071  1.00  0.00    -0.322 N 
HETATM    7  H   UNL     1      41.536 -13.588  -0.555  1.00  0.00     0.169 HD
HETATM    8  O   UNL     1      39.911 -15.112   1.766  1.00  0.00    -0.271 OA
BRANCH   6   9
HETATM    9  C   UNL     1      39.521 -13.458  -0.667  1.00  0.00     0.085 A 
HETATM   10  C   UNL     1      38.847 -12.345  -0.194  1.00  0.00     0.052 A 
HETATM   11  C   UNL     1      39.107 -11.402   0.921  1.00  0.00     0.072 C 
HETATM   12  N   UNL     1      37.748 -12.203  -0.994  1.00  0.00    -0.280 N 
HETATM   13  H   UNL     1      37.017 -11.498  -0.946  1.00  0.00     0.189 HD
HETATM   14  N   UNL     1      37.660 -13.129  -1.949  1.00  0.00    -0.177 NA
HETATM   15  C   UNL     1      38.730 -13.915  -1.764  1.00  0.00     0.079 A 
HETATM   16  C   UNL     1      38.897 -15.070  -2.680  1.00  0.00     0.075 C 
ENDBRANCH   6   9
ENDBRANCH   4   5
ENDBRANCH   1   4
BRANCH   1  17
HETATM   17  C   UNL     1      43.184 -16.686   3.123  1.00  0.00     0.252 C 
BRANCH  17  18
HETATM   18  C   UNL     1      42.516 -16.028   4.318  1.00  0.00    -0.023 A 
HETATM   19  C   UNL     1      43.174 -15.059   5.095  1.00  0.00     0.009 A 
HETATM   20  C   UNL     1      42.550 -14.501   6.212  1.00  0.00     0.001 A 
HETATM   21  C   UNL     1      41.266 -14.904   6.571  1.00  0.00     0.000 A 
HETATM   22  C   UNL     1      40.598 -15.860   5.809  1.00  0.00     0.001 A 
HETATM   23  C   UNL     1      41.216 -16.418   4.690  1.00  0.00     0.009 A 
ENDBRANCH  17  18
BRANCH  17  24
HETATM   24  C   UNL     1      43.462 -18.171   3.332  1.00  0.00    -0.023 A 
HETATM   25  C   UNL     1      43.207 -19.062   2.272  1.00  0.00     0.009 A 
HETATM   26  C   UNL     1      43.456 -20.429   2.407  1.00  0.00     0.001 A 
HETATM   27  C   UNL     1      43.966 -20.930   3.600  1.00  0.00     0.000 A 
HETATM   28  C   UNL     1      44.237 -20.065   4.656  1.00  0.00     0.001 A 
HETATM   29  C   UNL     1      43.992 -18.695   4.525  1.00  0.00     0.009 A 
ENDBRANCH  17  24
ENDBRANCH   1  17
TORSDOF 6
ENDMDL
MODEL 2
REMARK VINA RESULT:      -8.5      1.577      2.562
REMARK  6 active torsions:
REMARK  status: ('A' for Active; 'I' for Inactive)
REMARK    1  A    between atoms: C_8  and  N_9 
REMARK       I    between atoms: N_9  and  C_10 
REMARK    2  A    between atoms: C_10  and  C_11 
REMARK    3  A    between atoms: C_11  and  N_12 
REMARK    4  A    between atoms: N_12  and  C_15 
REMARK    5  A    between atoms: C_15  and  C_16 
REMARK    6  A    between atoms: C_15  and  C_22 
ROOT
HETATM    1  N   UNL     1      43.030 -16.105   2.216  1.00  0.00    -0.055 N 
HETATM    2  H   UNL     1      42.011 -16.103   2.165  1.00  0.00     0.278 HD
HETATM    3  H   UNL     1      43.389 -16.752   1.497  1.00  0.00     0.278 HD
ENDROOT
BRANCH   1   4
HETATM    4  C   UNL     1      43.568 -14.736   1.878  1.00  0.00     0.336 C 
BRANCH   4   5
HETATM    5  C   UNL     1      42.506 -13.652   2.057  1.00  0.00     0.248 C 
HETATM    6  N   UNL     1      41.257 -14.018   1.615  1.00  0.00    -0.322 N 
HETATM    7  H   UNL     1      41.118 -14.939   1.214  1.00  0.00     0.169 HD
HETATM    8  O   UNL     1      42.850 -12.590   2.568  1.00  0.00    -0.271 OA
BRANCH   6   9
HETATM    9  C   UNL     1      40.104 -13.245   1.652  1.00  0.00     0.085 A 
HETATM   10  C   UNL     1      39.442 -12.892   0.488  1.00  0.00     0.052 A 
HETATM   11  C   UNL     1      39.698 -13.169  -0.946  1.00  0.00     0.072 C 
HETATM   12  N   UNL     1      38.368 -12.141   0.880  1.00  0.00    -0.280 N 
HETATM   13  H   UNL     1      37.657 -11.705   0.301  1.00  0.00     0.189 HD
HETATM   14  N   UNL     1      38.280 -11.987   2.201  1.00  0.00    -0.177 NA
HETATM   15  C   UNL     1      39.337 -12.645   2.695  1.00  0.00     0.079 A 
HETATM   16  C   UNL     1      39.522 -12.634   4.167  1.00  0.00     0.075 C 
ENDBRANCH   6   9
ENDBRANCH   4   5
ENDBRANCH   1   4
BRANCH   1  17
HETATM   17  C   UNL     1      43.465 -16.692   3.533  1.00  0.00     0.252 C 
BRANCH  17  18
HETATM   18  C   UNL     1      42.579 -16.218   4.673  1.00  0.00    -0.023 A 
HETATM   19  C   UNL     1      43.111 -15.611   5.823  1.00  0.00     0.009 A 
HETATM   20  C   UNL     1      42.275 -15.222   6.871  1.00  0.00     0.001 A 
HETATM   21  C   UNL     1      40.902 -15.437   6.788  1.00  0.00     0.000 A 
HETATM   22  C   UNL     1      40.358 -16.034   5.653  1.00  0.00     0.001 A 
HETATM   23  C   UNL     1      41.188 -16.421   4.601  1.00  0.00     0.009 A 
ENDBRANCH  17  18
BRANCH  17  24
HETATM   24  C   UNL     1      43.611 -18.209   3.475  1.00  0.00    -0.023 A 
HETATM   25  C   UNL     1      44.061 -18.889   4.622  1.00  0.00     0.009 A 
HETATM   26  C   UNL     1      44.201 -20.278   4.625  1.00  0.00     0.001 A 
HETATM   27  C   UNL     1      43.890 -21.012   3.486  1.00  0.00     0.000 A 
HETATM   28  C   UNL     1      43.432 -20.361   2.345  1.00  0.00     0.001 A 
HETATM   29  C   UNL     1      43.288 -18.970   2.337  1.00  0.00     0.009 A 
ENDBRANCH  17  24
ENDBRANCH   1  17
TORSDOF 6
ENDMDL
MODEL 3
REMARK VINA RESULT:      -8.4      0.863      2.296
REMARK  6 active torsions:
REMARK  status: ('A' for Active; 'I' for Inactive)
REMARK    1  A    between atoms: C_8  and  N_9 
REMARK       I    between atoms: N_9  and  C_10 
REMARK    2  A    between atoms: C_10  and  C_11 
REMARK    3  A    between atoms: C_11  and  N_12 
REMARK    4  A    between atoms: N_12  and  C_15 
REMARK    5  A    between atoms: C_15  and  C_16 
REMARK    6  A    between atoms: C_15  and  C_22 
ROOT
HETATM    1  N   UNL     1      42.921 -16.046   2.087  1.00  0.00    -0.055 N 
HETATM    2  H   UNL     1      41.932 -16.274   1.983  1.00  0.00     0.278 HD
HETATM    3  H   UNL     1      43.447 -16.538   1.348  1.00  0.00     0.278 HD
ENDROOT
BRANCH   1   4
HETATM    4  C   UNL     1      43.138 -14.569   1.867  1.00  0.00     0.336 C 
BRANCH   4   5
HETATM    5  C   UNL     1      41.813 -13.813   1.762  1.00  0.00     0.248 C 
HETATM    6  N   UNL     1      41.381 -13.624   0.470  1.00  0.00    -0.322 N 
HETATM    7  H   UNL     1      41.938 -13.977  -0.300  1.00  0.00     0.169 HD
HETATM    8  O   UNL     1      41.269 -13.461   2.804  1.00  0.00    -0.271 OA
BRANCH   6   9
HETATM    9  C   UNL     1      40.219 -12.978   0.071  1.00  0.00     0.085 A 
HETATM   10  C   UNL     1      39.320 -13.589  -0.788  1.00  0.00     0.052 A 
HETATM   11  C   UNL     1      39.301 -14.912  -1.458  1.00  0.00     0.072 C 
HETATM   12  N   UNL     1      38.307 -12.691  -0.973  1.00  0.00    -0.280 N 
HETATM   13  H   UNL     1      37.472 -12.788  -1.543  1.00  0.00     0.189 HD
HETATM   14  N   UNL     1      38.475 -11.552  -0.300  1.00  0.00    -0.177 NA
HETATM   15  C   UNL     1      39.643 -11.701   0.339  1.00  0.00     0.079 A 
HETATM   16  C   UNL     1      40.117 -10.566   1.170  1.00  0.00     0.075 C 
ENDBRANCH   6   9
ENDBRANCH   4   5
ENDBRANCH   1   4
BRANCH   1  17
HETATM   17  C   UNL     1      43.432 -16.614   3.386  1.00  0.00     0.252 C 
BRANCH  17  18
HETATM   18  C   UNL     1      42.614 -16.122   4.567  1.00  0.00    -0.023 A 
HETATM   19  C   UNL     1      41.246 -16.417   4.697  1.00  0.00     0.009 A 
HETATM   20  C   UNL     1      40.511 -15.917   5.773  1.00  0.00     0.001 A 
HETATM   21  C   UNL     1      41.127 -15.115   6.730  1.00  0.00     0.000 A 
HETATM   22  C   UNL     1      42.483 -14.816   6.618  1.00  0.00     0.001 A 
HETATM   23  C   UNL     1      43.223 -15.316   5.547  1.00  0.00     0.009 A 
ENDBRANCH  17  18
BRANCH  17  24
HETATM   24  C   UNL     1      43.572 -18.132   3.341  1.00  0.00    -0.023 A 
HETATM   25  C   UNL     1      44.053 -18.800   4.484  1.00  0.00     0.009 A 
HETATM   26  C   UNL     1      44.189 -20.189   4.499  1.00  0.00     0.001 A 
HETATM   27  C   UNL     1      43.846 -20.936   3.377  1.00  0.00     0.000 A 
HETATM   28  C   UNL     1      43.358 -20.297   2.242  1.00  0.00     0.001 A 
HETATM   29  C   UNL     1      43.217 -18.906   2.221  1.00  0.00     0.009 A 
ENDBRANCH  17  24
ENDBRANCH   1  17
TORSDOF 6
ENDMDL
MODEL 4
REMARK VINA RESULT:      -8.3      3.901      5.903
REMARK  6 active torsions:
REMARK  status: ('A' for Active; 'I' for Inactive)
REMARK    1  A    between atoms: C_8  and  N_9 
REMARK       I    between atoms: N_9  and  C_10 
REMARK    2  A    between atoms: C_10  and  C_11 
REMARK    3  A    between atoms: C_11  and  N_12 
REMARK    4  A    between atoms: N_12  and  C_15 
REMARK    5  A    between atoms: C_15  and  C_16 
REMARK    6  A    between atoms: C_15  and  C_22 
ROOT
HETATM    1  N   UNL     1      44.285 -16.506   5.156  1.00  0.00    -0.055 N 
HETATM    2  H   UNL     1      44.420 -15.566   4.783  1.00  0.00     0.278 HD
HETATM    3  H   UNL     1      45.102 -17.079   4.893  1.00  0.00     0.278 HD
ENDROOT
BRANCH   1   4
HETATM    4  C   UNL     1      44.248 -16.465   6.664  1.00  0.00     0.336 C 
BRANCH   4   5
HETATM    5  C   UNL     1      43.606 -15.176   7.178  1.00  0.00     0.248 C 
HETATM    6  N   UNL     1      43.640 -14.139   6.276  1.00  0.00    -0.322 N 
HETATM    7  H   UNL     1      44.069 -14.280   5.368  1.00  0.00     0.169 HD
HETATM    8  O   UNL     1      43.128 -15.184   8.308  1.00  0.00    -0.271 OA
BRANCH   6   9
HETATM    9  C   UNL     1      43.135 -12.860   6.464  1.00  0.00     0.085 A 
HETATM   10  C   UNL     1      41.833 -12.546   6.110  1.00  0.00     0.052 A 
HETATM   11  C   UNL     1      40.729 -13.335   5.511  1.00  0.00     0.072 C 
HETATM   12  N   UNL     1      41.667 -11.226   6.422  1.00  0.00    -0.280 N 
HETATM   13  H   UNL     1      40.841 -10.646   6.300  1.00  0.00     0.189 HD
HETATM   14  N   UNL     1      42.752 -10.663   6.954  1.00  0.00    -0.177 NA
HETATM   15  C   UNL     1      43.667 -11.641   6.981  1.00  0.00     0.079 A 
HETATM   16  C   UNL     1      45.012 -11.305   7.511  1.00  0.00     0.075 C 
ENDBRANCH   6   9
ENDBRANCH   4   5
ENDBRANCH   1   4
BRANCH   1  17
HETATM   17  C   UNL     1      43.109 -17.152   4.472  1.00  0.00     0.252 C 
BRANCH  17  18
HETATM   18  C   UNL     1      42.493 -16.229   3.434  1.00  0.00    -0.023 A 
HETATM   19  C   UNL     1      43.261 -15.279   2.739  1.00  0.00     0.009 A 
HETATM   20  C   UNL     1      42.660 -14.417   1.820  1.00  0.00     0.001 A 
HETATM   21  C   UNL     1      41.289 -14.488   1.585  1.00  0.00     0.000 A 
HETATM   22  C   UNL     1      40.515 -15.427   2.262  1.00  0.00     0.001 A 
HETATM   23  C   UNL     1      41.111 -16.294   3.179  1.00  0.00     0.009 A 
ENDBRANCH  17  18
BRANCH  17  24
HETATM   24  C   UNL     1      43.442 -18.537   3.925  1.00  0.00    -0.023 A 
HETATM   25  C   UNL     1      43.839 -19.542   4.826  1.00  0.00     0.009 A 
HETATM   26  C   UNL     1      44.144 -20.829   4.379  1.00  0.00     0.001 A 
HETATM   27  C   UNL     1      44.055 -21.135   3.025  1.00  0.00     0.000 A 
HETATM   28  C   UNL     1      43.653 -20.159   2.118  1.00  0.00     0.001 A 
HETATM   29  C   UNL     1      43.344 -18.869   2.561  1.00  0.00     0.009 A 
ENDBRANCH  17  24
ENDBRANCH   1  17
TORSDOF 6
ENDMDL
MODEL 5
REMARK VINA RESULT:      -8.2      3.196      5.801
REMARK  6 active torsions:
REMARK  status: ('A' for Active; 'I' for Inactive)
REMARK    1  A    between atoms: C_8  and  N_9 
REMARK       I    between atoms: N_9  and  C_10 
REMARK    2  A    between atoms: C_10  and  C_11 
REMARK    3  A    between atoms: C_11  and  N_12 
REMARK    4  A    between atoms: N_12  and  C_15 
REMARK    5  A    between atoms: C_15  and  C_16 
REMARK    6  A    between atoms: C_15  and  C_22 
ROOT
HETATM    1  N   UNL     1      43.002 -16.366   5.435  1.00  0.00    -0.055 N 
HETATM    2  H   UNL     1      43.236 -17.156   6.038  1.00  0.00     0.278 HD
HETATM    3  H   UNL     1      41.978 -16.240   5.450  1.00  0.00     0.278 HD
ENDROOT
BRANCH   1   4
HETATM    4  C   UNL     1      43.606 -15.097   5.986  1.00  0.00     0.336 C 
BRANCH   4   5
HETATM    5  C   UNL     1      42.696 -13.892   5.754  1.00  0.00     0.248 C 
HETATM    6  N   UNL     1      43.331 -12.818   5.175  1.00  0.00    -0.322 N 
HETATM    7  H   UNL     1      44.317 -12.884   4.948  1.00  0.00     0.169 HD
HETATM    8  O   UNL     1      41.519 -13.988   6.088  1.00  0.00    -0.271 OA
BRANCH   6   9
HETATM    9  C   UNL     1      42.761 -11.596   4.846  1.00  0.00     0.085 A 
HETATM   10  C   UNL     1      42.625 -10.592   5.791  1.00  0.00     0.052 A 
HETATM   11  C   UNL     1      42.979 -10.501   7.229  1.00  0.00     0.072 C 
HETATM   12  N   UNL     1      42.033  -9.544   5.143  1.00  0.00    -0.280 N 
HETATM   13  H   UNL     1      41.773  -8.636   5.517  1.00  0.00     0.189 HD
HETATM   14  N   UNL     1      41.781  -9.786   3.857  1.00  0.00    -0.177 NA
HETATM   15  C   UNL     1      42.210 -11.040   3.653  1.00  0.00     0.079 A 
HETATM   16  C   UNL     1      42.041 -11.607   2.293  1.00  0.00     0.075 C 
ENDBRANCH   6   9
ENDBRANCH   4   5
ENDBRANCH   1   4
BRANCH   1  17
HETATM   17  C   UNL     1      43.341 -16.708   4.008  1.00  0.00     0.252 C 
BRANCH  17  18
HETATM   18  C   UNL     1      43.586 -18.197   3.835  1.00  0.00    -0.023 A 
HETATM   19  C   UNL     1      43.392 -18.842   2.602  1.00  0.00     0.009 A 
HETATM   20  C   UNL     1      43.586 -20.220   2.484  1.00  0.00     0.001 A 
HETATM   21  C   UNL     1      43.971 -20.970   3.593  1.00  0.00     0.000 A 
HETATM   22  C   UNL     1      44.172 -20.345   4.821  1.00  0.00     0.001 A 
HETATM   23  C   UNL     1      43.983 -18.968   4.944  1.00  0.00     0.009 A 
ENDBRANCH  17  18
BRANCH  17  24
HETATM   24  C   UNL     1      42.324 -16.147   3.018  1.00  0.00    -0.023 A 
HETATM   25  C   UNL     1      40.957 -16.215   3.343  1.00  0.00     0.009 A 
HETATM   26  C   UNL     1      39.986 -15.706   2.478  1.00  0.00     0.001 A 
HETATM   27  C   UNL     1      40.364 -15.117   1.276  1.00  0.00     0.000 A 
HETATM   28  C   UNL     1      41.712 -15.029   0.941  1.00  0.00     0.001 A 
HETATM   29  C   UNL     1      42.688 -15.535   1.805  1.00  0.00     0.009 A 
ENDBRANCH  17  24
ENDBRANCH   1  17
TORSDOF 6
ENDMDL
MODEL 6
REMARK VINA RESULT:      -8.0      2.948      7.175
REMARK  6 active torsions:
REMARK  status: ('A' for Active; 'I' for Inactive)
REMARK    1  A    between atoms: C_8  and  N_9 
REMARK       I    between atoms: N_9  and  C_10 
REMARK    2  A    between atoms: C_10  and  C_11 
REMARK    3  A    between atoms: C_11  and  N_12 
REMARK    4  A    between atoms: N_12  and  C_15 
REMARK    5  A    between atoms: C_15  and  C_16 
REMARK    6  A    between atoms: C_15  and  C_22 
ROOT
HETATM    1  N   UNL     1      39.173 -13.678   2.707  1.00  0.00    -0.055 N 
HETATM    2  H   UNL     1      39.254 -14.538   3.252  1.00  0.00     0.278 HD
HETATM    3  H   UNL     1      38.268 -13.693   2.212  1.00  0.00     0.278 HD
ENDROOT
BRANCH   1   4
HETATM    4  C   UNL     1      39.146 -12.482   3.627  1.00  0.00     0.336 C 
BRANCH   4   5
HETATM    5  C   UNL     1      39.953 -12.731   4.901  1.00  0.00     0.248 C 
HETATM    6  N   UNL     1      41.298 -12.477   4.767  1.00  0.00    -0.322 N 
HETATM    7  H   UNL     1      41.660 -12.157   3.876  1.00  0.00     0.169 HD
HETATM    8  O   UNL     1      39.349 -13.117   5.897  1.00  0.00    -0.271 OA
BRANCH   6   9
HETATM    9  C   UNL     1      42.269 -12.611   5.750  1.00  0.00     0.085 A 
HETATM   10  C   UNL     1      42.616 -11.545   6.563  1.00  0.00     0.052 A 
HETATM   11  C   UNL     1      42.149 -10.139   6.643  1.00  0.00     0.072 C 
HETATM   12  N   UNL     1      43.587 -12.014   7.403  1.00  0.00    -0.280 N 
HETATM   13  H   UNL     1      44.084 -11.515   8.135  1.00  0.00     0.189 HD
HETATM   14  N   UNL     1      43.891 -13.296   7.203  1.00  0.00    -0.177 NA
HETATM   15  C   UNL     1      43.104 -13.681   6.190  1.00  0.00     0.079 A 
HETATM   16  C   UNL     1      43.234 -15.083   5.718  1.00  0.00     0.075 C 
ENDBRANCH   6   9
ENDBRANCH   4   5
ENDBRANCH   1   4
BRANCH   1  17
HETATM   17  C   UNL     1      40.220 -13.671   1.625  1.00  0.00     0.252 C 
BRANCH  17  18
HETATM   18  C   UNL     1      41.231 -14.788   1.822  1.00  0.00    -0.023 A 
HETATM   19  C   UNL     1      40.860 -16.039   2.342  1.00  0.00     0.009 A 
HETATM   20  C   UNL     1      41.818 -17.033   2.550  1.00  0.00     0.001 A 
HETATM   21  C   UNL     1      43.156 -16.791   2.246  1.00  0.00     0.000 A 
HETATM   22  C   UNL     1      43.539 -15.558   1.725  1.00  0.00     0.001 A 
HETATM   23  C   UNL     1      42.585 -14.562   1.512  1.00  0.00     0.009 A 
ENDBRANCH  17  18
BRANCH  17  24
HETATM   24  C   UNL     1      39.612 -13.649   0.226  1.00  0.00    -0.023 A 
HETATM   25  C   UNL     1      38.967 -12.477  -0.212  1.00  0.00     0.009 A 
HETATM   26  C   UNL     1      38.403 -12.401  -1.487  1.00  0.00     0.001 A 
HETATM   27  C   UNL     1      38.477 -13.492  -2.347  1.00  0.00     0.000 A 
HETATM   28  C   UNL     1      39.119 -14.656  -1.938  1.00  0.00     0.001 A 
HETATM   29  C   UNL     1      39.688 -14.737  -0.663  1.00  0.00     0.009 A 
ENDBRANCH  17  24
ENDBRANCH   1  17
TORSDOF 6
ENDMDL
MODEL 7
REMARK VINA RESULT:      -7.9      2.965      7.249
REMARK  6 active torsions:
REMARK  status: ('A' for Active; 'I' for Inactive)
REMARK    1  A    between atoms: C_8  and  N_9 
REMARK       I    between atoms: N_9  and  C_10 
REMARK    2  A    between atoms: C_10  and  C_11 
REMARK    3  A    between atoms: C_11  and  N_12 
REMARK    4  A    between atoms: N_12  and  C_15 
REMARK    5  A    between atoms: C_15  and  C_16 
REMARK    6  A    between atoms: C_15  and  C_22 
ROOT
HETATM    1  N   UNL     1      39.211 -13.751   2.772  1.00  0.00    -0.055 N 
HETATM    2  H   UNL     1      39.338 -14.601   3.324  1.00  0.00     0.278 HD
HETATM    3  H   UNL     1      38.308 -13.817   2.278  1.00  0.00     0.278 HD
ENDROOT
BRANCH   1   4
HETATM    4  C   UNL     1      39.124 -12.550   3.682  1.00  0.00     0.336 C 
BRANCH   4   5
HETATM    5  C   UNL     1      40.006 -12.714   4.920  1.00  0.00     0.248 C 
HETATM    6  N   UNL     1      41.311 -12.326   4.729  1.00  0.00    -0.322 N 
HETATM    7  H   UNL     1      41.600 -11.973   3.824  1.00  0.00     0.169 HD
HETATM    8  O   UNL     1      39.486 -13.157   5.940  1.00  0.00    -0.271 OA
BRANCH   6   9
HETATM    9  C   UNL     1      42.332 -12.360   5.669  1.00  0.00     0.085 A 
HETATM   10  C   UNL     1      43.073 -13.511   5.880  1.00  0.00     0.052 A 
HETATM   11  C   UNL     1      43.031 -14.866   5.279  1.00  0.00     0.072 C 
HETATM   12  N   UNL     1      43.977 -13.201   6.858  1.00  0.00    -0.280 N 
HETATM   13  H   UNL     1      44.685 -13.798   7.277  1.00  0.00     0.189 HD
HETATM   14  N   UNL     1      43.885 -11.944   7.291  1.00  0.00    -0.177 NA
HETATM   15  C   UNL     1      42.879 -11.411   6.584  1.00  0.00     0.079 A 
HETATM   16  C   UNL     1      42.519  -9.999   6.865  1.00  0.00     0.075 C 
ENDBRANCH   6   9
ENDBRANCH   4   5
ENDBRANCH   1   4
BRANCH   1  17
HETATM   17  C   UNL     1      40.256 -13.699   1.688  1.00  0.00     0.252 C 
BRANCH  17  18
HETATM   18  C   UNL     1      41.289 -14.799   1.858  1.00  0.00    -0.023 A 
HETATM   19  C   UNL     1      42.635 -14.615   1.498  1.00  0.00     0.009 A 
HETATM   20  C   UNL     1      43.554 -15.658   1.628  1.00  0.00     0.001 A 
HETATM   21  C   UNL     1      43.142 -16.897   2.113  1.00  0.00     0.000 A 
HETATM   22  C   UNL     1      41.813 -17.095   2.478  1.00  0.00     0.001 A 
HETATM   23  C   UNL     1      40.891 -16.055   2.353  1.00  0.00     0.009 A 
ENDBRANCH  17  18
BRANCH  17  24
HETATM   24  C   UNL     1      39.643 -13.659   0.292  1.00  0.00    -0.023 A 
HETATM   25  C   UNL     1      39.015 -12.475  -0.137  1.00  0.00     0.009 A 
HETATM   26  C   UNL     1      38.448 -12.382  -1.409  1.00  0.00     0.001 A 
HETATM   27  C   UNL     1      38.503 -13.467  -2.277  1.00  0.00     0.000 A 
HETATM   28  C   UNL     1      39.130 -14.644  -1.878  1.00  0.00     0.001 A 
HETATM   29  C   UNL     1      39.701 -14.741  -0.605  1.00  0.00     0.009 A 
ENDBRANCH  17  24
ENDBRANCH   1  17
TORSDOF 6
ENDMDL
MODEL 8
REMARK VINA RESULT:      -7.8      1.965      4.388
REMARK  6 active torsions:
REMARK  status: ('A' for Active; 'I' for Inactive)
REMARK    1  A    between atoms: C_8  and  N_9 
REMARK       I    between atoms: N_9  and  C_10 
REMARK    2  A    between atoms: C_10  and  C_11 
REMARK    3  A    between atoms: C_11  and  N_12 
REMARK    4  A    between atoms: N_12  and  C_15 
REMARK    5  A    between atoms: C_15  and  C_16 
REMARK    6  A    between atoms: C_15  and  C_22 
ROOT
HETATM    1  N   UNL     1      40.177 -15.564   3.184  1.00  0.00    -0.055 N 
HETATM    2  H   UNL     1      39.376 -15.942   3.691  1.00  0.00     0.278 HD
HETATM    3  H   UNL     1      40.464 -16.254   2.473  1.00  0.00     0.278 HD
ENDROOT
BRANCH   1   4
HETATM    4  C   UNL     1      39.777 -14.312   2.442  1.00  0.00     0.336 C 
BRANCH   4   5
HETATM    5  C   UNL     1      40.196 -14.368   0.974  1.00  0.00     0.248 C 
HETATM    6  N   UNL     1      39.571 -13.434   0.181  1.00  0.00    -0.322 N 
HETATM    7  H   UNL     1      38.901 -12.795   0.594  1.00  0.00     0.169 HD
HETATM    8  O   UNL     1      41.028 -15.208   0.646  1.00  0.00    -0.271 OA
BRANCH   6   9
HETATM    9  C   UNL     1      39.754 -13.248  -1.182  1.00  0.00     0.085 A 
HETATM   10  C   UNL     1      40.392 -12.120  -1.672  1.00  0.00     0.052 A 
HETATM   11  C   UNL     1      40.989 -10.931  -1.016  1.00  0.00     0.072 C 
HETATM   12  N   UNL     1      40.400 -12.253  -3.032  1.00  0.00    -0.280 N 
HETATM   13  H   UNL     1      40.780 -11.617  -3.727  1.00  0.00     0.189 HD
HETATM   14  N   UNL     1      39.827 -13.378  -3.461  1.00  0.00    -0.177 NA
HETATM   15  C   UNL     1      39.415 -13.999  -2.348  1.00  0.00     0.079 A 
HETATM   16  C   UNL     1      38.707 -15.293  -2.509  1.00  0.00     0.075 C 
ENDBRANCH   6   9
ENDBRANCH   4   5
ENDBRANCH   1   4
BRANCH   1  17
HETATM   17  C   UNL     1      41.351 -15.444   4.121  1.00  0.00     0.252 C 
BRANCH  17  18
HETATM   18  C   UNL     1      42.358 -16.559   3.896  1.00  0.00    -0.023 A 
HETATM   19  C   UNL     1      42.375 -17.314   2.711  1.00  0.00     0.009 A 
HETATM   20  C   UNL     1      43.286 -18.360   2.549  1.00  0.00     0.001 A 
HETATM   21  C   UNL     1      44.187 -18.668   3.567  1.00  0.00     0.000 A 
HETATM   22  C   UNL     1      44.185 -17.927   4.745  1.00  0.00     0.001 A 
HETATM   23  C   UNL     1      43.279 -16.879   4.911  1.00  0.00     0.009 A 
ENDBRANCH  17  18
BRANCH  17  24
HETATM   24  C   UNL     1      41.977 -14.054   4.093  1.00  0.00    -0.023 A 
HETATM   25  C   UNL     1      41.570 -13.110   5.056  1.00  0.00     0.009 A 
HETATM   26  C   UNL     1      42.120 -11.827   5.081  1.00  0.00     0.001 A 
HETATM   27  C   UNL     1      43.087 -11.465   4.150  1.00  0.00     0.000 A 
HETATM   28  C   UNL     1      43.512 -12.386   3.197  1.00  0.00     0.001 A 
HETATM   29  C   UNL     1      42.966 -13.673   3.168  1.00  0.00     0.009 A 
ENDBRANCH  17  24
ENDBRANCH   1  17
TORSDOF 6
ENDMDL
MODEL 9
REMARK VINA RESULT:      -7.8      2.953      6.768
REMARK  6 active torsions:
REMARK  status: ('A' for Active; 'I' for Inactive)
REMARK    1  A    between atoms: C_8  and  N_9 
REMARK       I    between atoms: N_9  and  C_10 
REMARK    2  A    between atoms: C_10  and  C_11 
REMARK    3  A    between atoms: C_11  and  N_12 
REMARK    4  A    between atoms: N_12  and  C_15 
REMARK    5  A    between atoms: C_15  and  C_16 
REMARK    6  A    between atoms: C_15  and  C_22 
ROOT
HETATM    1  N   UNL     1      40.286 -12.694   2.181  1.00  0.00    -0.055 N 
HETATM    2  H   UNL     1      40.181 -11.844   1.626  1.00  0.00     0.278 HD
HETATM    3  H   UNL     1      41.233 -12.699   2.589  1.00  0.00     0.278 HD
ENDROOT
BRANCH   1   4
HETATM    4  C   UNL     1      39.314 -12.681   3.336  1.00  0.00     0.336 C 
BRANCH   4   5
HETATM    5  C   UNL     1      40.030 -12.826   4.679  1.00  0.00     0.248 C 
HETATM    6  N   UNL     1      41.393 -12.665   4.603  1.00  0.00    -0.322 N 
HETATM    7  H   UNL     1      41.824 -12.471   3.706  1.00  0.00     0.169 HD
HETATM    8  O   UNL     1      39.346 -13.059   5.671  1.00  0.00    -0.271 OA
BRANCH   6   9
HETATM    9  C   UNL     1      42.296 -12.739   5.654  1.00  0.00     0.085 A 
HETATM   10  C   UNL     1      42.576 -11.630   6.436  1.00  0.00     0.052 A 
HETATM   11  C   UNL     1      42.091 -10.229   6.415  1.00  0.00     0.072 C 
HETATM   12  N   UNL     1      43.492 -12.045   7.362  1.00  0.00    -0.280 N 
HETATM   13  H   UNL     1      43.934 -11.505   8.101  1.00  0.00     0.189 HD
HETATM   14  N   UNL     1      43.822 -13.332   7.246  1.00  0.00    -0.177 NA
HETATM   15  C   UNL     1      43.110 -13.776   6.202  1.00  0.00     0.079 A 
HETATM   16  C   UNL     1      43.285 -15.196   5.809  1.00  0.00     0.075 C 
ENDBRANCH   6   9
ENDBRANCH   4   5
ENDBRANCH   1   4
BRANCH   1  17
HETATM   17  C   UNL     1      40.235 -13.895   1.274  1.00  0.00     0.252 C 
BRANCH  17  18
HETATM   18  C   UNL     1      40.317 -13.491  -0.188  1.00  0.00    -0.023 A 
HETATM   19  C   UNL     1      40.854 -12.256  -0.587  1.00  0.00     0.009 A 
HETATM   20  C   UNL     1      40.879 -11.895  -1.935  1.00  0.00     0.001 A 
HETATM   21  C   UNL     1      40.366 -12.758  -2.901  1.00  0.00     0.000 A 
HETATM   22  C   UNL     1      39.834 -13.988  -2.523  1.00  0.00     0.001 A 
HETATM   23  C   UNL     1      39.810 -14.355  -1.177  1.00  0.00     0.009 A 
ENDBRANCH  17  18
BRANCH  17  24
HETATM   24  C   UNL     1      41.255 -14.961   1.662  1.00  0.00    -0.023 A 
HETATM   25  C   UNL     1      42.623 -14.680   1.492  1.00  0.00     0.009 A 
HETATM   26  C   UNL     1      43.598 -15.617   1.842  1.00  0.00     0.001 A 
HETATM   27  C   UNL     1      43.224 -16.847   2.371  1.00  0.00     0.000 A 
HETATM   28  C   UNL     1      41.876 -17.140   2.559  1.00  0.00     0.001 A 
HETATM   29  C   UNL     1      40.896 -16.205   2.212  1.00  0.00     0.009 A 
ENDBRANCH  17  24
ENDBRANCH   1  17
TORSDOF 6
ENDMDL
MODEL 10
REMARK VINA RESULT:      -7.8      1.789      4.484
REMARK  6 active torsions:
REMARK  status: ('A' for Active; 'I' for Inactive)
REMARK    1  A    between atoms: C_8  and  N_9 
REMARK       I    between atoms: N_9  and  C_10 
REMARK    2  A    between atoms: C_10  and  C_11 
REMARK    3  A    between atoms: C_11  and  N_12 
REMARK    4  A    between atoms: N_12  and  C_15 
REMARK    5  A    between atoms: C_15  and  C_16 
REMARK    6  A    between atoms: C_15  and  C_22 
ROOT
HETATM    1  N   UNL     1      41.498 -15.572   1.591  1.00  0.00    -0.055 N 
HETATM    2  H   UNL     1      41.715 -16.485   1.189  1.00  0.00     0.278 HD
HETATM    3  H   UNL     1      42.134 -14.875   1.175  1.00  0.00     0.278 HD
ENDROOT
BRANCH   1   4
HETATM    4  C   UNL     1      40.095 -15.161   1.214  1.00  0.00     0.336 C 
BRANCH   4   5
HETATM    5  C   UNL     1      40.093 -13.970   0.256  1.00  0.00     0.248 C 
HETATM    6  N   UNL     1      38.927 -13.832  -0.459  1.00  0.00    -0.322 N 
HETATM    7  H   UNL     1      38.173 -14.495  -0.318  1.00  0.00     0.169 HD
HETATM    8  O   UNL     1      41.097 -13.265   0.216  1.00  0.00    -0.271 OA
BRANCH   6   9
HETATM    9  C   UNL     1      38.640 -12.848  -1.395  1.00  0.00     0.085 A 
HETATM   10  C   UNL     1      38.349 -13.174  -2.709  1.00  0.00     0.052 A 
HETATM   11  C   UNL     1      38.265 -14.464  -3.437  1.00  0.00     0.072 C 
HETATM   12  N   UNL     1      38.121 -11.988  -3.349  1.00  0.00    -0.280 N 
HETATM   13  H   UNL     1      37.884 -11.831  -4.324  1.00  0.00     0.189 HD
HETATM   14  N   UNL     1      38.234 -10.923  -2.554  1.00  0.00    -0.177 NA
HETATM   15  C   UNL     1      38.560 -11.424  -1.355  1.00  0.00     0.079 A 
HETATM   16  C   UNL     1      38.778 -10.460  -0.248  1.00  0.00     0.075 C 
ENDBRANCH   6   9
ENDBRANCH   4   5
ENDBRANCH   1   4
BRANCH   1  17
HETATM   17  C   UNL     1      41.822 -15.582   3.062  1.00  0.00     0.252 C 
BRANCH  17  18
HETATM   18  C   UNL     1      42.788 -16.702   3.410  1.00  0.00    -0.023 A 
HETATM   19  C   UNL     1      43.083 -17.735   2.505  1.00  0.00     0.009 A 
HETATM   20  C   UNL     1      43.944 -18.773   2.868  1.00  0.00     0.001 A 
HETATM   21  C   UNL     1      44.517 -18.795   4.137  1.00  0.00     0.000 A 
HETATM   22  C   UNL     1      44.239 -17.776   5.045  1.00  0.00     0.001 A 
HETATM   23  C   UNL     1      43.382 -16.735   4.686  1.00  0.00     0.009 A 
ENDBRANCH  17  18
BRANCH  17  24
HETATM   24  C   UNL     1      42.277 -14.216   3.567  1.00  0.00    -0.023 A 
HETATM   25  C   UNL     1      43.250 -13.514   2.831  1.00  0.00     0.009 A 
HETATM   26  C   UNL     1      43.692 -12.255   3.244  1.00  0.00     0.001 A 
HETATM   27  C   UNL     1      43.168 -11.675   4.394  1.00  0.00     0.000 A 
HETATM   28  C   UNL     1      42.197 -12.348   5.129  1.00  0.00     0.001 A 
HETATM   29  C   UNL     1      41.749 -13.607   4.720  1.00  0.00     0.009 A 
ENDBRANCH  17  24
ENDBRANCH   1  17
TORSDOF 6
ENDMDL
