MODEL 1
REMARK VINA RESULT:      -8.9      0.000      0.000
REMARK  5 active torsions:
REMARK  status: ('A' for Active; 'I' for Inactive)
REMARK    1  A    between atoms: C_4  and  C_5 
REMARK    2  A    between atoms: C_5  and  N_6 
REMARK    3  A    between atoms: C_9  and  N_10 
REMARK       I    between atoms: N_10  and  C_11 
REMARK       I    between atoms: C_11  and  N_12 
REMARK    4  A    between atoms: N_12  and  N_13 
REMARK       I    between atoms: N_13  and  C_14 
REMARK    5  A    between atoms: C_14  and  C_15 
ROOT
HETATM    1  N   UNL     1      43.607 -11.967   7.899  1.00  0.00    -0.336 N 
HETATM    2  C   UNL     1      43.613 -12.736   6.769  1.00  0.00     0.335 C 
HETATM    3  N   UNL     1      43.205 -14.026   7.000  1.00  0.00    -0.249 N 
HETATM    4  O   UNL     1      44.010 -12.321   5.682  1.00  0.00    -0.246 OA
HETATM    5  H   UNL     1      43.243 -12.411   8.735  1.00  0.00     0.164 HD
HETATM    6  H   UNL     1      42.510 -14.197   7.728  1.00  0.00     0.192 HD
ENDROOT
BRANCH   1   7
HETATM    7  C   UNL     1      43.925 -10.536   8.003  1.00  0.00     0.112 C 
HETATM    8  C   UNL     1      42.837  -9.659   8.670  1.00  0.00     0.260 C 
HETATM    9  N   UNL     1      42.863  -9.804  10.171  1.00  0.00    -0.065 N 
HETATM   10  H   UNL     1      42.731 -10.825  10.333  1.00  0.00     0.280 HD
HETATM   11  C   UNL     1      44.194  -9.464  10.769  1.00  0.00     0.235 C 
HETATM   12  C   UNL     1      45.264 -10.374  10.178  1.00  0.00     0.030 C 
HETATM   13  C   UNL     1      45.297 -10.308   8.654  1.00  0.00     0.028 C 
BRANCH   9  14
HETATM   14  C   UNL     1      41.683  -9.186  10.875  1.00  0.00     0.273 C 
BRANCH  14  15
HETATM   15  C   UNL     1      41.978  -8.575  12.218  1.00  0.00    -0.033 A 
HETATM   16  C   UNL     1      41.802  -9.321  13.395  1.00  0.00     0.009 A 
HETATM   17  C   UNL     1      42.056  -8.750  14.642  1.00  0.00     0.001 A 
HETATM   18  C   UNL     1      42.493  -7.431  14.729  1.00  0.00     0.000 A 
HETATM   19  C   UNL     1      42.682  -6.683  13.570  1.00  0.00     0.001 A 
HETATM   20  C   UNL     1      42.430  -7.251  12.320  1.00  0.00     0.009 A 
ENDBRANCH  14  15
ENDBRANCH   9  14
ENDBRANCH   1   7
BRANCH   3  21
HETATM   21  N   UNL     1      43.041 -14.866   5.884  1.00  0.00    -0.261 N 
HETATM   22  C   UNL     1      43.868 -15.971   5.761  1.00  0.00     0.277 C 
HETATM   23  O   UNL     1      44.743 -16.178   6.606  1.00  0.00    -0.265 OA
HETATM   24  H   UNL     1      42.258 -14.704   5.258  1.00  0.00     0.190 HD
BRANCH  22  25
HETATM   25  C   UNL     1      43.636 -16.830   4.612  1.00  0.00     0.075 A 
HETATM   26  S   UNL     1      44.175 -18.460   4.562  1.00  0.00    -0.077 SA
HETATM   27  C   UNL     1      43.526 -18.689   3.015  1.00  0.00     0.052 A 
HETATM   28 BR   UNL     1      43.642 -20.314   2.089  1.00  0.00    -0.043 Br
HETATM   29  C   UNL     1      42.912 -17.572   2.513  1.00  0.00     0.028 A 
HETATM   30  C   UNL     1      42.979 -16.490   3.441  1.00  0.00     0.026 A 
ENDBRANCH  22  25
ENDBRANCH   3  21
TORSDOF 5
ENDMDL
MODEL 2
REMARK VINA RESULT:      -8.8      4.385     10.659
REMARK  5 active torsions:
REMARK  status: ('A' for Active; 'I' for Inactive)
REMARK    1  A    between atoms: C_4  and  C_5 
REMARK    2  A    between atoms: C_5  and  N_6 
REMARK    3  A    between atoms: C_9  and  N_10 
REMARK       I    between atoms: N_10  and  C_11 
REMARK       I    between atoms: C_11  and  N_12 
REMARK    4  A    between atoms: N_12  and  N_13 
REMARK       I    between atoms: N_13  and  C_14 
REMARK    5  A    between atoms: C_14  and  C_15 
ROOT
HETATM    1  N   UNL     1      43.053 -13.632   4.482  1.00  0.00    -0.336 N 
HETATM    2  C   UNL     1      42.695 -12.668   5.383  1.00  0.00     0.335 C 
HETATM    3  N   UNL     1      43.309 -12.823   6.600  1.00  0.00    -0.249 N 
HETATM    4  O   UNL     1      41.859 -11.802   5.135  1.00  0.00    -0.246 OA
HETATM    5  H   UNL     1      43.764 -14.285   4.791  1.00  0.00     0.164 HD
HETATM    6  H   UNL     1      44.249 -13.222   6.629  1.00  0.00     0.192 HD
ENDROOT
BRANCH   1   7
HETATM    7  C   UNL     1      42.636 -13.735   3.077  1.00  0.00     0.112 C 
HETATM    8  C   UNL     1      43.309 -14.869   2.264  1.00  0.00     0.260 C 
HETATM    9  N   UNL     1      42.688 -16.208   2.576  1.00  0.00    -0.065 N 
HETATM   10  H   UNL     1      42.805 -16.310   3.607  1.00  0.00     0.280 HD
HETATM   11  C   UNL     1      41.212 -16.242   2.325  1.00  0.00     0.235 C 
HETATM   12  C   UNL     1      40.527 -15.182   3.179  1.00  0.00     0.030 C 
HETATM   13  C   UNL     1      41.107 -13.790   2.943  1.00  0.00     0.028 C 
BRANCH   9  14
HETATM   14  C   UNL     1      43.446 -17.387   2.024  1.00  0.00     0.273 C 
BRANCH  14  15
HETATM   15  C   UNL     1      43.640 -18.535   2.977  1.00  0.00    -0.033 A 
HETATM   16  C   UNL     1      43.845 -18.298   4.346  1.00  0.00     0.009 A 
HETATM   17  C   UNL     1      44.046 -19.361   5.228  1.00  0.00     0.001 A 
HETATM   18  C   UNL     1      44.039 -20.670   4.755  1.00  0.00     0.000 A 
HETATM   19  C   UNL     1      43.827 -20.920   3.402  1.00  0.00     0.001 A 
HETATM   20  C   UNL     1      43.625 -19.860   2.516  1.00  0.00     0.009 A 
ENDBRANCH  14  15
ENDBRANCH   9  14
ENDBRANCH   1   7
BRANCH   3  21
HETATM   21  N   UNL     1      43.121 -11.810   7.557  1.00  0.00    -0.261 N 
HETATM   22  C   UNL     1      44.237 -11.164   8.064  1.00  0.00     0.277 C 
HETATM   23  O   UNL     1      45.363 -11.505   7.694  1.00  0.00    -0.265 OA
HETATM   24  H   UNL     1      42.175 -11.507   7.772  1.00  0.00     0.190 HD
BRANCH  22  25
HETATM   25  C   UNL     1      43.989 -10.099   9.022  1.00  0.00     0.075 A 
HETATM   26  S   UNL     1      43.731 -10.407  10.691  1.00  0.00    -0.077 SA
HETATM   27  C   UNL     1      43.557  -8.758  11.031  1.00  0.00     0.052 A 
HETATM   28 BR   UNL     1      43.229  -8.100  12.754  1.00  0.00    -0.043 Br
HETATM   29  C   UNL     1      43.680  -7.960   9.925  1.00  0.00     0.028 A 
HETATM   30  C   UNL     1      43.929  -8.740   8.755  1.00  0.00     0.026 A 
ENDBRANCH  22  25
ENDBRANCH   3  21
TORSDOF 5
ENDMDL
MODEL 3
REMARK VINA RESULT:      -8.6      5.073     10.701
REMARK  5 active torsions:
REMARK  status: ('A' for Active; 'I' for Inactive)
REMARK    1  A    between atoms: C_4  and  C_5 
REMARK    2  A    between atoms: C_5  and  N_6 
REMARK    3  A    between atoms: C_9  and  N_10 
REMARK       I    between atoms: N_10  and  C_11 
REMARK       I    between atoms: C_11  and  N_12 
REMARK    4  A    between atoms: N_12  and  N_13 
REMARK       I    between atoms: N_13  and  C_14 
REMARK    5  A    between atoms: C_14  and  C_15 
ROOT
HETATM    1  N   UNL     1      43.360 -11.496   7.560  1.00  0.00    -0.336 N 
HETATM    2  C   UNL     1      43.699 -10.796   8.684  1.00  0.00     0.335 C 
HETATM    3  N   UNL     1      42.647 -10.084   9.205  1.00  0.00    -0.249 N 
HETATM    4  O   UNL     1      44.844 -10.762   9.129  1.00  0.00    -0.246 OA
HETATM    5  H   UNL     1      42.382 -11.463   7.296  1.00  0.00     0.164 HD
HETATM    6  H   UNL     1      41.703 -10.460   9.105  1.00  0.00     0.192 HD
ENDROOT
BRANCH   1   7
HETATM    7  C   UNL     1      44.218 -12.404   6.786  1.00  0.00     0.112 C 
HETATM    8  C   UNL     1      43.670 -13.841   6.602  1.00  0.00     0.260 C 
HETATM    9  N   UNL     1      42.606 -13.888   5.533  1.00  0.00    -0.065 N 
HETATM   10  H   UNL     1      41.887 -13.207   5.858  1.00  0.00     0.280 HD
HETATM   11  C   UNL     1      43.085 -13.378   4.209  1.00  0.00     0.235 C 
HETATM   12  C   UNL     1      43.554 -11.936   4.359  1.00  0.00     0.030 C 
HETATM   13  C   UNL     1      44.622 -11.788   5.439  1.00  0.00     0.028 C 
BRANCH   9  14
HETATM   14  C   UNL     1      41.849 -15.188   5.468  1.00  0.00     0.273 C 
BRANCH  14  15
HETATM   15  C   UNL     1      42.438 -16.234   4.560  1.00  0.00    -0.033 A 
HETATM   16  C   UNL     1      43.542 -16.997   4.973  1.00  0.00     0.009 A 
HETATM   17  C   UNL     1      44.102 -17.953   4.124  1.00  0.00     0.001 A 
HETATM   18  C   UNL     1      43.563 -18.161   2.857  1.00  0.00     0.000 A 
HETATM   19  C   UNL     1      42.462 -17.419   2.438  1.00  0.00     0.001 A 
HETATM   20  C   UNL     1      41.899 -16.462   3.285  1.00  0.00     0.009 A 
ENDBRANCH  14  15
ENDBRANCH   9  14
ENDBRANCH   1   7
BRANCH   3  21
HETATM   21  N   UNL     1      42.847  -9.438  10.438  1.00  0.00    -0.261 N 
HETATM   22  C   UNL     1      41.770  -9.315  11.302  1.00  0.00     0.277 C 
HETATM   23  O   UNL     1      40.663  -9.743  10.965  1.00  0.00    -0.265 OA
HETATM   24  H   UNL     1      43.790  -9.174  10.708  1.00  0.00     0.190 HD
BRANCH  22  25
HETATM   25  C   UNL     1      42.033  -8.674  12.579  1.00  0.00     0.075 A 
HETATM   26  S   UNL     1      40.969  -8.825  13.918  1.00  0.00    -0.077 SA
HETATM   27  C   UNL     1      41.965  -7.865  14.895  1.00  0.00     0.052 A 
HETATM   28 BR   UNL     1      41.563  -7.462  16.679  1.00  0.00    -0.043 Br
HETATM   29  C   UNL     1      43.087  -7.416  14.250  1.00  0.00     0.028 A 
HETATM   30  C   UNL     1      43.126  -7.885  12.902  1.00  0.00     0.026 A 
ENDBRANCH  22  25
ENDBRANCH   3  21
TORSDOF 5
ENDMDL
MODEL 4
REMARK VINA RESULT:      -8.3      7.085     10.325
REMARK  5 active torsions:
REMARK  status: ('A' for Active; 'I' for Inactive)
REMARK    1  A    between atoms: C_4  and  C_5 
REMARK    2  A    between atoms: C_5  and  N_6 
REMARK    3  A    between atoms: C_9  and  N_10 
REMARK       I    between atoms: N_10  and  C_11 
REMARK       I    between atoms: C_11  and  N_12 
REMARK    4  A    between atoms: N_12  and  N_13 
REMARK       I    between atoms: N_13  and  C_14 
REMARK    5  A    between atoms: C_14  and  C_15 
ROOT
HETATM    1  N   UNL     1      40.858 -15.239   3.523  1.00  0.00    -0.336 N 
HETATM    2  C   UNL     1      40.111 -14.410   2.734  1.00  0.00     0.335 C 
HETATM    3  N   UNL     1      40.232 -14.695   1.397  1.00  0.00    -0.249 N 
HETATM    4  O   UNL     1      39.457 -13.471   3.184  1.00  0.00    -0.246 OA
HETATM    5  H   UNL     1      41.343 -15.989   3.043  1.00  0.00     0.164 HD
HETATM    6  H   UNL     1      40.387 -15.664   1.114  1.00  0.00     0.192 HD
ENDROOT
BRANCH   1   7
HETATM    7  C   UNL     1      40.917 -15.255   4.991  1.00  0.00     0.112 C 
HETATM    8  C   UNL     1      41.682 -16.450   5.613  1.00  0.00     0.260 C 
HETATM    9  N   UNL     1      43.175 -16.247   5.527  1.00  0.00    -0.065 N 
HETATM   10  H   UNL     1      43.358 -16.121   4.508  1.00  0.00     0.280 HD
HETATM   11  C   UNL     1      43.633 -14.982   6.185  1.00  0.00     0.235 C 
HETATM   12  C   UNL     1      42.946 -13.791   5.529  1.00  0.00     0.030 C 
HETATM   13  C   UNL     1      41.425 -13.919   5.551  1.00  0.00     0.028 C 
BRANCH   9  14
HETATM   14  C   UNL     1      43.987 -17.466   5.877  1.00  0.00     0.273 C 
BRANCH  14  15
HETATM   15  C   UNL     1      43.911 -18.599   4.889  1.00  0.00    -0.033 A 
HETATM   16  C   UNL     1      43.933 -19.933   5.330  1.00  0.00     0.009 A 
HETATM   17  C   UNL     1      43.883 -20.984   4.413  1.00  0.00     0.001 A 
HETATM   18  C   UNL     1      43.806 -20.716   3.048  1.00  0.00     0.000 A 
HETATM   19  C   UNL     1      43.773 -19.399   2.598  1.00  0.00     0.001 A 
HETATM   20  C   UNL     1      43.823 -18.345   3.512  1.00  0.00     0.009 A 
ENDBRANCH  14  15
ENDBRANCH   9  14
ENDBRANCH   1   7
BRANCH   3  21
HETATM   21  N   UNL     1      39.401 -13.995   0.505  1.00  0.00    -0.261 N 
HETATM   22  C   UNL     1      39.955 -12.976  -0.254  1.00  0.00     0.277 C 
HETATM   23  O   UNL     1      41.145 -12.686  -0.113  1.00  0.00    -0.265 OA
HETATM   24  H   UNL     1      38.449 -14.320   0.362  1.00  0.00     0.190 HD
BRANCH  22  25
HETATM   25  C   UNL     1      39.066 -12.307  -1.189  1.00  0.00     0.075 A 
HETATM   26  S   UNL     1      39.452 -10.791  -1.898  1.00  0.00    -0.077 SA
HETATM   27  C   UNL     1      38.007 -10.767  -2.779  1.00  0.00     0.052 A 
HETATM   28 BR   UNL     1      37.540  -9.370  -3.936  1.00  0.00    -0.043 Br
HETATM   29  C   UNL     1      37.220 -11.867  -2.561  1.00  0.00     0.028 A 
HETATM   30  C   UNL     1      37.834 -12.761  -1.634  1.00  0.00     0.026 A 
ENDBRANCH  22  25
ENDBRANCH   3  21
TORSDOF 5
ENDMDL
MODEL 5
REMARK VINA RESULT:      -8.1      4.964     10.733
REMARK  5 active torsions:
REMARK  status: ('A' for Active; 'I' for Inactive)
REMARK    1  A    between atoms: C_4  and  C_5 
REMARK    2  A    between atoms: C_5  and  N_6 
REMARK    3  A    between atoms: C_9  and  N_10 
REMARK       I    between atoms: N_10  and  C_11 
REMARK       I    between atoms: C_11  and  N_12 
REMARK    4  A    between atoms: N_12  and  N_13 
REMARK       I    between atoms: N_13  and  C_14 
REMARK    5  A    between atoms: C_14  and  C_15 
ROOT
HETATM    1  N   UNL     1      42.373 -14.478   5.151  1.00  0.00    -0.336 N 
HETATM    2  C   UNL     1      42.826 -14.010   6.353  1.00  0.00     0.335 C 
HETATM    3  N   UNL     1      43.116 -12.669   6.328  1.00  0.00    -0.249 N 
HETATM    4  O   UNL     1      43.014 -14.740   7.324  1.00  0.00    -0.246 OA
HETATM    5  H   UNL     1      42.241 -13.781   4.426  1.00  0.00     0.164 HD
HETATM    6  H   UNL     1      42.567 -12.060   5.720  1.00  0.00     0.192 HD
ENDROOT
BRANCH   1   7
HETATM    7  C   UNL     1      41.917 -15.840   4.841  1.00  0.00     0.112 C 
HETATM    8  C   UNL     1      40.683 -15.933   3.910  1.00  0.00     0.260 C 
HETATM    9  N   UNL     1      41.066 -15.702   2.470  1.00  0.00    -0.065 N 
HETATM   10  H   UNL     1      41.516 -14.761   2.472  1.00  0.00     0.280 HD
HETATM   11  C   UNL     1      42.114 -16.656   1.983  1.00  0.00     0.235 C 
HETATM   12  C   UNL     1      43.364 -16.519   2.842  1.00  0.00     0.030 C 
HETATM   13  C   UNL     1      43.067 -16.717   4.326  1.00  0.00     0.028 C 
BRANCH   9  14
HETATM   14  C   UNL     1      39.896 -15.526   1.538  1.00  0.00     0.273 C 
BRANCH  14  15
HETATM   15  C   UNL     1      40.101 -14.534   0.425  1.00  0.00    -0.033 A 
HETATM   16  C   UNL     1      39.665 -14.824  -0.879  1.00  0.00     0.009 A 
HETATM   17  C   UNL     1      39.873 -13.913  -1.916  1.00  0.00     0.001 A 
HETATM   18  C   UNL     1      40.511 -12.702  -1.663  1.00  0.00     0.000 A 
HETATM   19  C   UNL     1      40.939 -12.397  -0.374  1.00  0.00     0.001 A 
HETATM   20  C   UNL     1      40.733 -13.305   0.667  1.00  0.00     0.009 A 
ENDBRANCH  14  15
ENDBRANCH   9  14
ENDBRANCH   1   7
BRANCH   3  21
HETATM   21  N   UNL     1      43.458 -12.054   7.546  1.00  0.00    -0.261 N 
HETATM   22  C   UNL     1      43.317 -10.680   7.655  1.00  0.00     0.277 C 
HETATM   23  O   UNL     1      42.927 -10.025   6.685  1.00  0.00    -0.265 OA
HETATM   24  H   UNL     1      43.696 -12.640   8.341  1.00  0.00     0.190 HD
BRANCH  22  25
HETATM   25  C   UNL     1      43.646 -10.095   8.944  1.00  0.00     0.075 A 
HETATM   26  S   UNL     1      42.474  -9.310   9.923  1.00  0.00    -0.077 SA
HETATM   27  C   UNL     1      43.615  -8.979  11.129  1.00  0.00     0.052 A 
HETATM   28 BR   UNL     1      43.191  -8.078  12.716  1.00  0.00    -0.043 Br
HETATM   29  C   UNL     1      44.871  -9.434  10.828  1.00  0.00     0.028 A 
HETATM   30  C   UNL     1      44.890 -10.081   9.556  1.00  0.00     0.026 A 
ENDBRANCH  22  25
ENDBRANCH   3  21
TORSDOF 5
ENDMDL
MODEL 6
REMARK VINA RESULT:      -8.1      4.916     11.011
REMARK  5 active torsions:
REMARK  status: ('A' for Active; 'I' for Inactive)
REMARK    1  A    between atoms: C_4  and  C_5 
REMARK    2  A    between atoms: C_5  and  N_6 
REMARK    3  A    between atoms: C_9  and  N_10 
REMARK       I    between atoms: N_10  and  C_11 
REMARK       I    between atoms: C_11  and  N_12 
REMARK    4  A    between atoms: N_12  and  N_13 
REMARK       I    between atoms: N_13  and  C_14 
REMARK    5  A    between atoms: C_14  and  C_15 
ROOT
HETATM    1  N   UNL     1      43.010 -13.346   6.251  1.00  0.00    -0.336 N 
HETATM    2  C   UNL     1      42.574 -12.125   6.686  1.00  0.00     0.335 C 
HETATM    3  N   UNL     1      43.370 -11.595   7.670  1.00  0.00    -0.249 N 
HETATM    4  O   UNL     1      41.539 -11.603   6.277  1.00  0.00    -0.246 OA
HETATM    5  H   UNL     1      43.885 -13.670   6.648  1.00  0.00     0.164 HD
HETATM    6  H   UNL     1      44.369 -11.804   7.658  1.00  0.00     0.192 HD
ENDROOT
BRANCH   1   7
HETATM    7  C   UNL     1      42.436 -14.164   5.174  1.00  0.00     0.112 C 
HETATM    8  C   UNL     1      43.381 -15.235   4.576  1.00  0.00     0.260 C 
HETATM    9  N   UNL     1      43.480 -16.441   5.477  1.00  0.00    -0.065 N 
HETATM   10  H   UNL     1      43.812 -16.054   6.387  1.00  0.00     0.280 HD
HETATM   11  C   UNL     1      42.151 -17.070   5.761  1.00  0.00     0.235 C 
HETATM   12  C   UNL     1      41.235 -16.048   6.422  1.00  0.00     0.030 C 
HETATM   13  C   UNL     1      41.091 -14.779   5.587  1.00  0.00     0.028 C 
BRANCH   9  14
HETATM   14  C   UNL     1      44.566 -17.412   5.096  1.00  0.00     0.273 C 
BRANCH  14  15
HETATM   15  C   UNL     1      44.149 -18.511   4.155  1.00  0.00    -0.033 A 
HETATM   16  C   UNL     1      43.668 -18.206   2.872  1.00  0.00     0.009 A 
HETATM   17  C   UNL     1      43.261 -19.223   2.006  1.00  0.00     0.001 A 
HETATM   18  C   UNL     1      43.335 -20.554   2.410  1.00  0.00     0.000 A 
HETATM   19  C   UNL     1      43.820 -20.871   3.676  1.00  0.00     0.001 A 
HETATM   20  C   UNL     1      44.228 -19.857   4.544  1.00  0.00     0.009 A 
ENDBRANCH  14  15
ENDBRANCH   9  14
ENDBRANCH   1   7
BRANCH   3  21
HETATM   21  N   UNL     1      43.094 -10.283   8.093  1.00  0.00    -0.261 N 
HETATM   22  C   UNL     1      43.508  -9.895   9.357  1.00  0.00     0.277 C 
HETATM   23  O   UNL     1      44.077 -10.706  10.091  1.00  0.00    -0.265 OA
HETATM   24  H   UNL     1      42.697  -9.626   7.428  1.00  0.00     0.190 HD
BRANCH  22  25
HETATM   25  C   UNL     1      43.234  -8.518   9.735  1.00  0.00     0.075 A 
HETATM   26  S   UNL     1      42.461  -8.109  11.212  1.00  0.00    -0.077 SA
HETATM   27  C   UNL     1      42.551  -6.453  10.871  1.00  0.00     0.052 A 
HETATM   28 BR   UNL     1      41.902  -5.134  12.032  1.00  0.00    -0.043 Br
HETATM   29  C   UNL     1      43.144  -6.179   9.667  1.00  0.00     0.028 A 
HETATM   30  C   UNL     1      43.539  -7.381   9.005  1.00  0.00     0.026 A 
ENDBRANCH  22  25
ENDBRANCH   3  21
TORSDOF 5
ENDMDL
MODEL 7
REMARK VINA RESULT:      -7.7      6.054      9.365
REMARK  5 active torsions:
REMARK  status: ('A' for Active; 'I' for Inactive)
REMARK    1  A    between atoms: C_4  and  C_5 
REMARK    2  A    between atoms: C_5  and  N_6 
REMARK    3  A    between atoms: C_9  and  N_10 
REMARK       I    between atoms: N_10  and  C_11 
REMARK       I    between atoms: C_11  and  N_12 
REMARK    4  A    between atoms: N_12  and  N_13 
REMARK       I    between atoms: N_13  and  C_14 
REMARK    5  A    between atoms: C_14  and  C_15 
ROOT
HETATM    1  N   UNL     1      41.666 -11.889   4.239  1.00  0.00    -0.336 N 
HETATM    2  C   UNL     1      40.625 -11.735   3.367  1.00  0.00     0.335 C 
HETATM    3  N   UNL     1      41.038 -11.491   2.081  1.00  0.00    -0.249 N 
HETATM    4  O   UNL     1      39.449 -11.747   3.724  1.00  0.00    -0.246 OA
HETATM    5  H   UNL     1      42.593 -11.877   3.827  1.00  0.00     0.164 HD
HETATM    6  H   UNL     1      41.913 -11.909   1.759  1.00  0.00     0.192 HD
ENDROOT
BRANCH   1   7
HETATM    7  C   UNL     1      41.588 -12.218   5.668  1.00  0.00     0.112 C 
HETATM    8  C   UNL     1      41.208 -13.684   5.995  1.00  0.00     0.260 C 
HETATM    9  N   UNL     1      42.389 -14.606   5.817  1.00  0.00    -0.065 N 
HETATM   10  H   UNL     1      42.680 -14.463   4.826  1.00  0.00     0.280 HD
HETATM   11  C   UNL     1      43.569 -14.214   6.652  1.00  0.00     0.235 C 
HETATM   12  C   UNL     1      44.003 -12.800   6.285  1.00  0.00     0.030 C 
HETATM   13  C   UNL     1      42.860 -11.796   6.416  1.00  0.00     0.028 C 
BRANCH   9  14
HETATM   14  C   UNL     1      42.044 -16.072   5.868  1.00  0.00     0.273 C 
BRANCH  14  15
HETATM   15  C   UNL     1      42.697 -16.927   4.816  1.00  0.00    -0.033 A 
HETATM   16  C   UNL     1      43.714 -17.831   5.162  1.00  0.00     0.009 A 
HETATM   17  C   UNL     1      44.335 -18.610   4.184  1.00  0.00     0.001 A 
HETATM   18  C   UNL     1      43.945 -18.497   2.852  1.00  0.00     0.000 A 
HETATM   19  C   UNL     1      42.931 -17.612   2.496  1.00  0.00     0.001 A 
HETATM   20  C   UNL     1      42.307 -16.832   3.471  1.00  0.00     0.009 A 
ENDBRANCH  14  15
ENDBRANCH   9  14
ENDBRANCH   1   7
BRANCH   3  21
HETATM   21  N   UNL     1      40.054 -11.453   1.078  1.00  0.00    -0.261 N 
HETATM   22  C   UNL     1      40.025 -12.474   0.140  1.00  0.00     0.277 C 
HETATM   23  O   UNL     1      40.872 -13.369   0.184  1.00  0.00    -0.265 OA
HETATM   24  H   UNL     1      39.329 -10.743   1.127  1.00  0.00     0.190 HD
BRANCH  22  25
HETATM   25  C   UNL     1      38.967 -12.411  -0.854  1.00  0.00     0.075 A 
HETATM   26  S   UNL     1      38.057 -10.983  -1.137  1.00  0.00    -0.077 SA
HETATM   27  C   UNL     1      37.144 -11.733  -2.350  1.00  0.00     0.052 A 
HETATM   28 BR   UNL     1      35.796 -10.851  -3.306  1.00  0.00    -0.043 Br
HETATM   29  C   UNL     1      37.491 -13.041  -2.559  1.00  0.00     0.028 A 
HETATM   30  C   UNL     1      38.549 -13.437  -1.687  1.00  0.00     0.026 A 
ENDBRANCH  22  25
ENDBRANCH   3  21
TORSDOF 5
ENDMDL
MODEL 8
REMARK VINA RESULT:      -7.5      4.291     10.514
REMARK  5 active torsions:
REMARK  status: ('A' for Active; 'I' for Inactive)
REMARK    1  A    between atoms: C_4  and  C_5 
REMARK    2  A    between atoms: C_5  and  N_6 
REMARK    3  A    between atoms: C_9  and  N_10 
REMARK       I    between atoms: N_10  and  C_11 
REMARK       I    between atoms: C_11  and  N_12 
REMARK    4  A    between atoms: N_12  and  N_13 
REMARK       I    between atoms: N_13  and  C_14 
REMARK    5  A    between atoms: C_14  and  C_15 
ROOT
HETATM    1  N   UNL     1      42.142 -12.687   4.349  1.00  0.00    -0.336 N 
HETATM    2  C   UNL     1      42.488 -12.594   5.668  1.00  0.00     0.335 C 
HETATM    3  N   UNL     1      42.766 -11.308   6.057  1.00  0.00    -0.249 N 
HETATM    4  O   UNL     1      42.600 -13.577   6.399  1.00  0.00    -0.246 OA
HETATM    5  H   UNL     1      42.065 -11.807   3.849  1.00  0.00     0.164 HD
HETATM    6  H   UNL     1      42.264 -10.540   5.608  1.00  0.00     0.192 HD
ENDROOT
BRANCH   1   7
HETATM    7  C   UNL     1      41.726 -13.893   3.621  1.00  0.00     0.112 C 
HETATM    8  C   UNL     1      42.817 -14.980   3.456  1.00  0.00     0.260 C 
HETATM    9  N   UNL     1      42.994 -15.773   4.727  1.00  0.00    -0.065 N 
HETATM   10  H   UNL     1      43.227 -15.056   5.447  1.00  0.00     0.280 HD
HETATM   11  C   UNL     1      41.727 -16.424   5.192  1.00  0.00     0.235 C 
HETATM   12  C   UNL     1      40.667 -15.356   5.433  1.00  0.00     0.030 C 
HETATM   13  C   UNL     1      40.435 -14.486   4.200  1.00  0.00     0.028 C 
BRANCH   9  14
HETATM   14  C   UNL     1      44.200 -16.675   4.733  1.00  0.00     0.273 C 
BRANCH  14  15
HETATM   15  C   UNL     1      43.979 -18.054   4.173  1.00  0.00    -0.033 A 
HETATM   16  C   UNL     1      44.182 -19.190   4.973  1.00  0.00     0.009 A 
HETATM   17  C   UNL     1      43.997 -20.470   4.449  1.00  0.00     0.001 A 
HETATM   18  C   UNL     1      43.603 -20.631   3.123  1.00  0.00     0.000 A 
HETATM   19  C   UNL     1      43.388 -19.513   2.321  1.00  0.00     0.001 A 
HETATM   20  C   UNL     1      43.571 -18.231   2.842  1.00  0.00     0.009 A 
ENDBRANCH  14  15
ENDBRANCH   9  14
ENDBRANCH   1   7
BRANCH   3  21
HETATM   21  N   UNL     1      42.998 -11.078   7.425  1.00  0.00    -0.261 N 
HETATM   22  C   UNL     1      42.810  -9.798   7.922  1.00  0.00     0.277 C 
HETATM   23  O   UNL     1      42.475  -8.888   7.159  1.00  0.00    -0.265 OA
HETATM   24  H   UNL     1      43.194 -11.870   8.030  1.00  0.00     0.190 HD
BRANCH  22  25
HETATM   25  C   UNL     1      43.026  -9.617   9.348  1.00  0.00     0.075 A 
HETATM   26  S   UNL     1      41.728  -9.406  10.452  1.00  0.00    -0.077 SA
HETATM   27  C   UNL     1      42.788  -9.296  11.768  1.00  0.00     0.052 A 
HETATM   28 BR   UNL     1      42.204  -9.048  13.531  1.00  0.00    -0.043 Br
HETATM   29  C   UNL     1      44.106  -9.406  11.414  1.00  0.00     0.028 A 
HETATM   30  C   UNL     1      44.245  -9.590  10.005  1.00  0.00     0.026 A 
ENDBRANCH  22  25
ENDBRANCH   3  21
TORSDOF 5
ENDMDL
MODEL 9
REMARK VINA RESULT:      -7.5      2.500      3.259
REMARK  5 active torsions:
REMARK  status: ('A' for Active; 'I' for Inactive)
REMARK    1  A    between atoms: C_4  and  C_5 
REMARK    2  A    between atoms: C_5  and  N_6 
REMARK    3  A    between atoms: C_9  and  N_10 
REMARK       I    between atoms: N_10  and  C_11 
REMARK       I    between atoms: C_11  and  N_12 
REMARK    4  A    between atoms: N_12  and  N_13 
REMARK       I    between atoms: N_13  and  C_14 
REMARK    5  A    between atoms: C_14  and  C_15 
ROOT
HETATM    1  N   UNL     1      40.682 -11.390   6.430  1.00  0.00    -0.336 N 
HETATM    2  C   UNL     1      40.849 -12.692   6.049  1.00  0.00     0.335 C 
HETATM    3  N   UNL     1      42.166 -13.024   5.849  1.00  0.00    -0.249 N 
HETATM    4  O   UNL     1      39.906 -13.453   5.845  1.00  0.00    -0.246 OA
HETATM    5  H   UNL     1      41.534 -10.861   6.585  1.00  0.00     0.164 HD
HETATM    6  H   UNL     1      42.879 -12.565   6.418  1.00  0.00     0.192 HD
ENDROOT
BRANCH   1   7
HETATM    7  C   UNL     1      39.423 -10.721   6.784  1.00  0.00     0.112 C 
HETATM    8  C   UNL     1      39.093 -10.678   8.297  1.00  0.00     0.260 C 
HETATM    9  N   UNL     1      39.892  -9.609   9.000  1.00  0.00    -0.065 N 
HETATM   10  H   UNL     1      40.885  -9.855   8.797  1.00  0.00     0.280 HD
HETATM   11  C   UNL     1      39.682  -8.244   8.419  1.00  0.00     0.235 C 
HETATM   12  C   UNL     1      40.077  -8.252   6.947  1.00  0.00     0.030 C 
HETATM   13  C   UNL     1      39.330  -9.323   6.157  1.00  0.00     0.028 C 
BRANCH   9  14
HETATM   14  C   UNL     1      39.820  -9.669  10.503  1.00  0.00     0.273 C 
BRANCH  14  15
HETATM   15  C   UNL     1      41.068  -9.241  11.227  1.00  0.00    -0.033 A 
HETATM   16  C   UNL     1      40.984  -8.561  12.454  1.00  0.00     0.009 A 
HETATM   17  C   UNL     1      42.140  -8.146  13.116  1.00  0.00     0.001 A 
HETATM   18  C   UNL     1      43.391  -8.408  12.565  1.00  0.00     0.000 A 
HETATM   19  C   UNL     1      43.490  -9.090  11.356  1.00  0.00     0.001 A 
HETATM   20  C   UNL     1      42.336  -9.508  10.690  1.00  0.00     0.009 A 
ENDBRANCH  14  15
ENDBRANCH   9  14
ENDBRANCH   1   7
BRANCH   3  21
HETATM   21  N   UNL     1      42.464 -14.373   5.589  1.00  0.00    -0.261 N 
HETATM   22  C   UNL     1      42.863 -14.727   4.310  1.00  0.00     0.277 C 
HETATM   23  O   UNL     1      42.919 -13.868   3.426  1.00  0.00    -0.265 OA
HETATM   24  H   UNL     1      42.483 -15.030   6.363  1.00  0.00     0.190 HD
BRANCH  22  25
HETATM   25  C   UNL     1      43.197 -16.126   4.098  1.00  0.00     0.075 A 
HETATM   26  S   UNL     1      43.562 -17.188   5.397  1.00  0.00    -0.077 SA
HETATM   27  C   UNL     1      43.793 -18.493   4.344  1.00  0.00     0.052 A 
HETATM   28 BR   UNL     1      44.251 -20.212   4.932  1.00  0.00    -0.043 Br
HETATM   29  C   UNL     1      43.611 -18.165   3.026  1.00  0.00     0.028 A 
HETATM   30  C   UNL     1      43.267 -16.788   2.883  1.00  0.00     0.026 A 
ENDBRANCH  22  25
ENDBRANCH   3  21
TORSDOF 5
ENDMDL
MODEL 10
REMARK VINA RESULT:      -7.5      3.555      5.185
REMARK  5 active torsions:
REMARK  status: ('A' for Active; 'I' for Inactive)
REMARK    1  A    between atoms: C_4  and  C_5 
REMARK    2  A    between atoms: C_5  and  N_6 
REMARK    3  A    between atoms: C_9  and  N_10 
REMARK       I    between atoms: N_10  and  C_11 
REMARK       I    between atoms: C_11  and  N_12 
REMARK    4  A    between atoms: N_12  and  N_13 
REMARK       I    between atoms: N_13  and  C_14 
REMARK    5  A    between atoms: C_14  and  C_15 
ROOT
HETATM    1  N   UNL     1      39.522 -11.633   4.874  1.00  0.00    -0.336 N 
HETATM    2  C   UNL     1      39.906 -12.943   4.946  1.00  0.00     0.335 C 
HETATM    3  N   UNL     1      40.446 -13.405   3.771  1.00  0.00    -0.249 N 
HETATM    4  O   UNL     1      39.719 -13.639   5.941  1.00  0.00    -0.246 OA
HETATM    5  H   UNL     1      39.743 -11.154   4.007  1.00  0.00     0.164 HD
HETATM    6  H   UNL     1      40.966 -12.754   3.181  1.00  0.00     0.192 HD
ENDROOT
BRANCH   1   7
HETATM    7  C   UNL     1      38.967 -10.807   5.955  1.00  0.00     0.112 C 
HETATM    8  C   UNL     1      39.901 -10.589   7.172  1.00  0.00     0.260 C 
HETATM    9  N   UNL     1      40.949  -9.546   6.875  1.00  0.00    -0.065 N 
HETATM   10  H   UNL     1      41.443  -9.911   6.032  1.00  0.00     0.280 HD
HETATM   11  C   UNL     1      40.365  -8.228   6.468  1.00  0.00     0.235 C 
HETATM   12  C   UNL     1      39.506  -8.415   5.224  1.00  0.00     0.030 C 
HETATM   13  C   UNL     1      38.424  -9.473   5.426  1.00  0.00     0.028 C 
BRANCH   9  14
HETATM   14  C   UNL     1      42.044  -9.456   7.906  1.00  0.00     0.273 C 
BRANCH  14  15
HETATM   15  C   UNL     1      43.355 -10.080   7.513  1.00  0.00    -0.033 A 
HETATM   16  C   UNL     1      44.550  -9.681   8.133  1.00  0.00     0.009 A 
HETATM   17  C   UNL     1      45.769 -10.245   7.755  1.00  0.00     0.001 A 
HETATM   18  C   UNL     1      45.809 -11.216   6.757  1.00  0.00     0.000 A 
HETATM   19  C   UNL     1      44.631 -11.628   6.141  1.00  0.00     0.001 A 
HETATM   20  C   UNL     1      43.409 -11.068   6.517  1.00  0.00     0.009 A 
ENDBRANCH  14  15
ENDBRANCH   9  14
ENDBRANCH   1   7
BRANCH   3  21
HETATM   21  N   UNL     1      41.000 -14.697   3.775  1.00  0.00    -0.261 N 
HETATM   22  C   UNL     1      42.376 -14.827   3.667  1.00  0.00     0.277 C 
HETATM   23  O   UNL     1      43.077 -13.820   3.541  1.00  0.00    -0.265 OA
HETATM   24  H   UNL     1      40.395 -15.491   3.962  1.00  0.00     0.190 HD
BRANCH  22  25
HETATM   25  C   UNL     1      42.905 -16.179   3.713  1.00  0.00     0.075 A 
HETATM   26  S   UNL     1      42.563 -17.341   2.496  1.00  0.00    -0.077 SA
HETATM   27  C   UNL     1      43.506 -18.516   3.268  1.00  0.00     0.052 A 
HETATM   28 BR   UNL     1      43.736 -20.247   2.590  1.00  0.00    -0.043 Br
HETATM   29  C   UNL     1      44.078 -18.075   4.431  1.00  0.00     0.028 A 
HETATM   30  C   UNL     1      43.727 -16.716   4.692  1.00  0.00     0.026 A 
ENDBRANCH  22  25
ENDBRANCH   3  21
TORSDOF 5
ENDMDL
