MODEL 1
REMARK VINA RESULT:      -8.0      0.000      0.000
REMARK  7 active torsions:
REMARK  status: ('A' for Active; 'I' for Inactive)
REMARK    1  A    between atoms: C_2  and  C_3 
REMARK    2  A    between atoms: C_3  and  N_4 
REMARK    3  A    between atoms: C_3  and  C_15 
REMARK       I    between atoms: N_4  and  C_5 
REMARK    4  A    between atoms: C_5  and  C_6 
REMARK    5  A    between atoms: C_9  and  O_10 
REMARK    6  A    between atoms: C_15  and  N_16 
REMARK    7  A    between atoms: C_18  and  C_19 
ROOT
HETATM    1  C   UNL     1      43.050 -12.415   5.670  1.00  0.00     0.107 C 
ENDROOT
BRANCH   1   2
HETATM    2  C   UNL     1      42.094 -11.247   6.037  1.00  0.00     0.002 C 
HETATM    3  C   UNL     1      40.614 -11.646   6.035  1.00  0.00     0.011 C 
HETATM    4  C   UNL     1      42.295 -10.028   5.132  1.00  0.00     0.011 C 
ENDBRANCH   1   2
BRANCH   1   5
HETATM    5  N   UNL     1      42.331 -13.551   5.085  1.00  0.00    -0.354 N 
HETATM    6  C   UNL     1      42.460 -13.928   3.766  1.00  0.00     0.222 C 
HETATM    7  O   UNL     1      43.113 -13.289   2.948  1.00  0.00    -0.273 OA
HETATM    8  H   UNL     1      41.944 -14.237   5.732  1.00  0.00     0.162 HD
BRANCH   6   9
HETATM    9  C   UNL     1      41.738 -15.237   3.431  1.00  0.00     0.078 C 
HETATM   10  C   UNL     1      41.923 -15.638   1.961  1.00  0.00     0.016 C 
HETATM   11  C   UNL     1      43.306 -16.231   1.680  1.00  0.00     0.033 C 
HETATM   12  C   UNL     1      43.624 -17.411   2.603  1.00  0.00     0.120 C 
HETATM   13  C   UNL     1      43.509 -16.976   4.065  1.00  0.00     0.033 C 
HETATM   14  C   UNL     1      42.136 -16.376   4.382  1.00  0.00     0.016 C 
BRANCH  12  15
HETATM   15  O   UNL     1      42.699 -18.460   2.287  1.00  0.00    -0.391 OA
HETATM   16  C   UNL     1      43.302 -19.741   2.176  1.00  0.00     0.202 C 
ENDBRANCH  12  15
ENDBRANCH   6   9
ENDBRANCH   1   5
BRANCH   1  17
HETATM   17  C   UNL     1      43.879 -12.862   6.900  1.00  0.00     0.180 C 
BRANCH  17  18
HETATM   18  N   UNL     1      44.570 -11.747   7.548  1.00  0.00    -0.232 N 
HETATM   19  N   UNL     1      44.014 -11.294   8.724  1.00  0.00    -0.168 NA
HETATM   20  C   UNL     1      44.551 -10.268   9.319  1.00  0.00     0.094 A 
HETATM   21  C   UNL     1      45.740  -9.565   8.775  1.00  0.00     0.040 A 
HETATM   22  C   UNL     1      46.257 -10.008   7.628  1.00  0.00     0.078 A 
HETATM   23  C   UNL     1      45.659 -11.157   6.924  1.00  0.00     0.263 A 
HETATM   24  O   UNL     1      46.129 -11.515   5.846  1.00  0.00    -0.267 OA
BRANCH  20  25
HETATM   25  C   UNL     1      43.924  -9.824  10.565  1.00  0.00     0.035 A 
HETATM   26  S   UNL     1      43.437 -10.908  11.803  1.00  0.00    -0.100 SA
HETATM   27  C   UNL     1      42.852  -9.647  12.794  1.00  0.00     0.050 A 
HETATM   28  C   UNL     1      43.016  -8.415  12.206  1.00  0.00     0.008 A 
HETATM   29  C   UNL     1      43.630  -8.517  10.925  1.00  0.00     0.022 A 
ENDBRANCH  20  25
ENDBRANCH  17  18
ENDBRANCH   1  17
TORSDOF 7
ENDMDL
MODEL 2
REMARK VINA RESULT:      -7.6      4.227      8.413
REMARK  7 active torsions:
REMARK  status: ('A' for Active; 'I' for Inactive)
REMARK    1  A    between atoms: C_2  and  C_3 
REMARK    2  A    between atoms: C_3  and  N_4 
REMARK    3  A    between atoms: C_3  and  C_15 
REMARK       I    between atoms: N_4  and  C_5 
REMARK    4  A    between atoms: C_5  and  C_6 
REMARK    5  A    between atoms: C_9  and  O_10 
REMARK    6  A    between atoms: C_15  and  N_16 
REMARK    7  A    between atoms: C_18  and  C_19 
ROOT
HETATM    1  C   UNL     1      40.430 -13.892   3.646  1.00  0.00     0.107 C 
ENDROOT
BRANCH   1   2
HETATM    2  C   UNL     1      39.945 -14.297   2.227  1.00  0.00     0.002 C 
HETATM    3  C   UNL     1      39.814 -15.812   2.036  1.00  0.00     0.011 C 
HETATM    4  C   UNL     1      40.836 -13.719   1.123  1.00  0.00     0.011 C 
ENDBRANCH   1   2
BRANCH   1   5
HETATM    5  N   UNL     1      39.673 -12.756   4.182  1.00  0.00    -0.354 N 
HETATM    6  C   UNL     1      39.441 -12.572   5.528  1.00  0.00     0.222 C 
HETATM    7  O   UNL     1      39.765 -13.392   6.381  1.00  0.00    -0.273 OA
HETATM    8  H   UNL     1      39.556 -11.948   3.572  1.00  0.00     0.162 HD
BRANCH   6   9
HETATM    9  C   UNL     1      38.770 -11.235   5.854  1.00  0.00     0.078 C 
HETATM   10  C   UNL     1      39.251 -10.661   7.194  1.00  0.00     0.016 C 
HETATM   11  C   UNL     1      40.645 -10.036   7.103  1.00  0.00     0.033 C 
HETATM   12  C   UNL     1      40.729  -8.973   6.003  1.00  0.00     0.120 C 
HETATM   13  C   UNL     1      40.319  -9.580   4.660  1.00  0.00     0.033 C 
HETATM   14  C   UNL     1      38.927 -10.216   4.715  1.00  0.00     0.016 C 
BRANCH  12  15
HETATM   15  O   UNL     1      39.863  -7.896   6.385  1.00  0.00    -0.391 OA
HETATM   16  C   UNL     1      40.551  -6.757   6.882  1.00  0.00     0.202 C 
ENDBRANCH  12  15
ENDBRANCH   6   9
ENDBRANCH   1   5
BRANCH   1  17
HETATM   17  C   UNL     1      41.950 -13.591   3.648  1.00  0.00     0.180 C 
BRANCH  17  18
HETATM   18  N   UNL     1      42.719 -14.587   4.395  1.00  0.00    -0.232 N 
HETATM   19  N   UNL     1      42.824 -15.830   3.812  1.00  0.00    -0.168 NA
HETATM   20  C   UNL     1      43.448 -16.776   4.454  1.00  0.00     0.094 A 
HETATM   21  C   UNL     1      44.050 -16.564   5.794  1.00  0.00     0.040 A 
HETATM   22  C   UNL     1      43.925 -15.358   6.351  1.00  0.00     0.078 A 
HETATM   23  C   UNL     1      43.208 -14.275   5.655  1.00  0.00     0.263 A 
HETATM   24  O   UNL     1      43.070 -13.187   6.211  1.00  0.00    -0.267 OA
BRANCH  20  25
HETATM   25  C   UNL     1      43.534 -18.079   3.793  1.00  0.00     0.035 A 
HETATM   26  S   UNL     1      44.140 -19.483   4.571  1.00  0.00    -0.100 SA
HETATM   27  C   UNL     1      43.903 -20.455   3.190  1.00  0.00     0.050 A 
HETATM   28  C   UNL     1      43.373 -19.738   2.142  1.00  0.00     0.008 A 
HETATM   29  C   UNL     1      43.164 -18.373   2.489  1.00  0.00     0.022 A 
ENDBRANCH  20  25
ENDBRANCH  17  18
ENDBRANCH   1  17
TORSDOF 7
ENDMDL
MODEL 3
REMARK VINA RESULT:      -7.6      2.720      8.709
REMARK  7 active torsions:
REMARK  status: ('A' for Active; 'I' for Inactive)
REMARK    1  A    between atoms: C_2  and  C_3 
REMARK    2  A    between atoms: C_3  and  N_4 
REMARK    3  A    between atoms: C_3  and  C_15 
REMARK       I    between atoms: N_4  and  C_5 
REMARK    4  A    between atoms: C_5  and  C_6 
REMARK    5  A    between atoms: C_9  and  O_10 
REMARK    6  A    between atoms: C_15  and  N_16 
REMARK    7  A    between atoms: C_18  and  C_19 
ROOT
HETATM    1  C   UNL     1      42.469 -11.643   5.898  1.00  0.00     0.107 C 
ENDROOT
BRANCH   1   2
HETATM    2  C   UNL     1      40.925 -11.643   5.725  1.00  0.00     0.002 C 
HETATM    3  C   UNL     1      40.216 -10.579   6.570  1.00  0.00     0.011 C 
HETATM    4  C   UNL     1      40.310 -13.016   6.012  1.00  0.00     0.011 C 
ENDBRANCH   1   2
BRANCH   1   5
HETATM    5  N   UNL     1      42.913 -10.637   6.869  1.00  0.00    -0.354 N 
HETATM    6  C   UNL     1      43.915 -10.865   7.787  1.00  0.00     0.222 C 
HETATM    7  O   UNL     1      44.454 -11.957   7.932  1.00  0.00    -0.273 OA
HETATM    8  H   UNL     1      42.666  -9.667   6.676  1.00  0.00     0.162 HD
BRANCH   6   9
HETATM    9  C   UNL     1      44.311  -9.617   8.581  1.00  0.00     0.078 C 
HETATM   10  C   UNL     1      43.089  -8.781   8.988  1.00  0.00     0.016 C 
HETATM   11  C   UNL     1      42.322  -9.390  10.165  1.00  0.00     0.033 C 
HETATM   12  C   UNL     1      43.229  -9.640  11.374  1.00  0.00     0.120 C 
HETATM   13  C   UNL     1      44.402 -10.537  10.970  1.00  0.00     0.033 C 
HETATM   14  C   UNL     1      45.191  -9.957   9.793  1.00  0.00     0.016 C 
BRANCH  12  15
HETATM   15  O   UNL     1      43.676  -8.362  11.843  1.00  0.00    -0.391 OA
HETATM   16  C   UNL     1      43.093  -7.969  13.078  1.00  0.00     0.202 C 
ENDBRANCH  12  15
ENDBRANCH   6   9
ENDBRANCH   1   5
BRANCH   1  17
HETATM   17  C   UNL     1      43.181 -11.446   4.536  1.00  0.00     0.180 C 
BRANCH  17  18
HETATM   18  N   UNL     1      42.749 -12.417   3.530  1.00  0.00    -0.232 N 
HETATM   19  N   UNL     1      43.084 -13.730   3.775  1.00  0.00    -0.168 NA
HETATM   20  C   UNL     1      42.776 -14.634   2.889  1.00  0.00     0.094 A 
HETATM   21  C   UNL     1      42.079 -14.300   1.622  1.00  0.00     0.040 A 
HETATM   22  C   UNL     1      41.775 -13.021   1.394  1.00  0.00     0.078 A 
HETATM   23  C   UNL     1      42.127 -11.976   2.372  1.00  0.00     0.263 A 
HETATM   24  O   UNL     1      41.875 -10.800   2.115  1.00  0.00    -0.267 OA
BRANCH  20  25
HETATM   25  C   UNL     1      43.154 -16.014   3.195  1.00  0.00     0.035 A 
HETATM   26  S   UNL     1      43.565 -16.542   4.775  1.00  0.00    -0.100 SA
HETATM   27  C   UNL     1      43.849 -18.143   4.258  1.00  0.00     0.050 A 
HETATM   28  C   UNL     1      43.640 -18.291   2.907  1.00  0.00     0.008 A 
HETATM   29  C   UNL     1      43.243 -17.068   2.297  1.00  0.00     0.022 A 
ENDBRANCH  20  25
ENDBRANCH  17  18
ENDBRANCH   1  17
TORSDOF 7
ENDMDL
MODEL 4
REMARK VINA RESULT:      -7.6      2.260      2.900
REMARK  7 active torsions:
REMARK  status: ('A' for Active; 'I' for Inactive)
REMARK    1  A    between atoms: C_2  and  C_3 
REMARK    2  A    between atoms: C_3  and  N_4 
REMARK    3  A    between atoms: C_3  and  C_15 
REMARK       I    between atoms: N_4  and  C_5 
REMARK    4  A    between atoms: C_5  and  C_6 
REMARK    5  A    between atoms: C_9  and  O_10 
REMARK    6  A    between atoms: C_15  and  N_16 
REMARK    7  A    between atoms: C_18  and  C_19 
ROOT
HETATM    1  C   UNL     1      40.610 -11.077   4.991  1.00  0.00     0.107 C 
ENDROOT
BRANCH   1   2
HETATM    2  C   UNL     1      39.490 -10.159   5.554  1.00  0.00     0.002 C 
HETATM    3  C   UNL     1      39.832  -8.667   5.485  1.00  0.00     0.011 C 
HETATM    4  C   UNL     1      39.106 -10.529   6.990  1.00  0.00     0.011 C 
ENDBRANCH   1   2
BRANCH   1   5
HETATM    5  N   UNL     1      40.847 -12.244   5.846  1.00  0.00    -0.354 N 
HETATM    6  C   UNL     1      40.663 -13.541   5.420  1.00  0.00     0.222 C 
HETATM    7  O   UNL     1      40.197 -13.825   4.322  1.00  0.00    -0.273 OA
HETATM    8  H   UNL     1      41.419 -12.101   6.678  1.00  0.00     0.162 HD
BRANCH   6   9
HETATM    9  C   UNL     1      41.128 -14.589   6.436  1.00  0.00     0.078 C 
HETATM   10  C   UNL     1      40.862 -16.021   5.950  1.00  0.00     0.016 C 
HETATM   11  C   UNL     1      41.865 -16.481   4.889  1.00  0.00     0.033 C 
HETATM   12  C   UNL     1      43.314 -16.337   5.366  1.00  0.00     0.120 C 
HETATM   13  C   UNL     1      43.586 -14.888   5.776  1.00  0.00     0.033 C 
HETATM   14  C   UNL     1      42.598 -14.394   6.837  1.00  0.00     0.016 C 
BRANCH  12  15
HETATM   15  O   UNL     1      43.493 -17.241   6.464  1.00  0.00    -0.391 OA
HETATM   16  C   UNL     1      43.535 -18.608   6.079  1.00  0.00     0.202 C 
ENDBRANCH  12  15
ENDBRANCH   6   9
ENDBRANCH   1   5
BRANCH   1  17
HETATM   17  C   UNL     1      41.922 -10.281   4.772  1.00  0.00     0.180 C 
BRANCH  17  18
HETATM   18  N   UNL     1      42.968 -10.647   5.727  1.00  0.00    -0.232 N 
HETATM   19  N   UNL     1      42.747 -10.280   7.035  1.00  0.00    -0.168 NA
HETATM   20  C   UNL     1      43.667 -10.529   7.923  1.00  0.00     0.094 A 
HETATM   21  C   UNL     1      44.949 -11.192   7.575  1.00  0.00     0.040 A 
HETATM   22  C   UNL     1      45.153 -11.527   6.300  1.00  0.00     0.078 A 
HETATM   23  C   UNL     1      44.136 -11.242   5.272  1.00  0.00     0.263 A 
HETATM   24  O   UNL     1      44.370 -11.521   4.098  1.00  0.00    -0.267 OA
BRANCH  20  25
HETATM   25  C   UNL     1      43.385 -10.120   9.299  1.00  0.00     0.035 A 
HETATM   26  S   UNL     1      42.031  -9.157   9.729  1.00  0.00    -0.100 SA
HETATM   27  C   UNL     1      42.447  -9.158  11.383  1.00  0.00     0.050 A 
HETATM   28  C   UNL     1      43.598  -9.873  11.623  1.00  0.00     0.008 A 
HETATM   29  C   UNL     1      44.137 -10.423  10.425  1.00  0.00     0.022 A 
ENDBRANCH  20  25
ENDBRANCH  17  18
ENDBRANCH   1  17
TORSDOF 7
ENDMDL
MODEL 5
REMARK VINA RESULT:      -7.6      5.112      8.256
REMARK  7 active torsions:
REMARK  status: ('A' for Active; 'I' for Inactive)
REMARK    1  A    between atoms: C_2  and  C_3 
REMARK    2  A    between atoms: C_3  and  N_4 
REMARK    3  A    between atoms: C_3  and  C_15 
REMARK       I    between atoms: N_4  and  C_5 
REMARK    4  A    between atoms: C_5  and  C_6 
REMARK    5  A    between atoms: C_9  and  O_10 
REMARK    6  A    between atoms: C_15  and  N_16 
REMARK    7  A    between atoms: C_18  and  C_19 
ROOT
HETATM    1  C   UNL     1      41.281 -12.838   3.949  1.00  0.00     0.107 C 
ENDROOT
BRANCH   1   2
HETATM    2  C   UNL     1      42.439 -12.508   2.968  1.00  0.00     0.002 C 
HETATM    3  C   UNL     1      43.297 -13.725   2.606  1.00  0.00     0.011 C 
HETATM    4  C   UNL     1      43.340 -11.386   3.494  1.00  0.00     0.011 C 
ENDBRANCH   1   2
BRANCH   1   5
HETATM    5  N   UNL     1      41.480 -14.125   4.623  1.00  0.00    -0.354 N 
HETATM    6  C   UNL     1      42.091 -14.247   5.852  1.00  0.00     0.222 C 
HETATM    7  O   UNL     1      42.602 -13.301   6.442  1.00  0.00    -0.273 OA
HETATM    8  H   UNL     1      40.913 -14.908   4.302  1.00  0.00     0.162 HD
BRANCH   6   9
HETATM    9  C   UNL     1      42.038 -15.668   6.422  1.00  0.00     0.078 C 
HETATM   10  C   UNL     1      41.769 -16.715   5.333  1.00  0.00     0.016 C 
HETATM   11  C   UNL     1      43.005 -17.012   4.479  1.00  0.00     0.033 C 
HETATM   12  C   UNL     1      44.208 -17.423   5.334  1.00  0.00     0.120 C 
HETATM   13  C   UNL     1      44.512 -16.334   6.365  1.00  0.00     0.033 C 
HETATM   14  C   UNL     1      43.295 -16.011   7.237  1.00  0.00     0.016 C 
BRANCH  12  15
HETATM   15  O   UNL     1      43.881 -18.670   5.960  1.00  0.00    -0.391 OA
HETATM   16  C   UNL     1      44.072 -19.799   5.120  1.00  0.00     0.202 C 
ENDBRANCH  12  15
ENDBRANCH   6   9
ENDBRANCH   1   5
BRANCH   1  17
HETATM   17  C   UNL     1      39.912 -12.803   3.223  1.00  0.00     0.180 C 
BRANCH  17  18
HETATM   18  N   UNL     1      39.976 -13.366   1.874  1.00  0.00    -0.232 N 
HETATM   19  N   UNL     1      40.018 -12.456   0.842  1.00  0.00    -0.168 NA
HETATM   20  C   UNL     1      40.020 -12.895  -0.384  1.00  0.00     0.094 A 
HETATM   21  C   UNL     1      39.976 -14.342  -0.711  1.00  0.00     0.040 A 
HETATM   22  C   UNL     1      39.920 -15.210   0.301  1.00  0.00     0.078 A 
HETATM   23  C   UNL     1      39.900 -14.740   1.698  1.00  0.00     0.263 A 
HETATM   24  O   UNL     1      39.803 -15.560   2.609  1.00  0.00    -0.267 OA
BRANCH  20  25
HETATM   25  C   UNL     1      40.065 -11.889  -1.446  1.00  0.00     0.035 A 
HETATM   26  S   UNL     1      38.879 -10.660  -1.619  1.00  0.00    -0.100 SA
HETATM   27  C   UNL     1      39.644  -9.998  -2.994  1.00  0.00     0.050 A 
HETATM   28  C   UNL     1      40.784 -10.690  -3.331  1.00  0.00     0.008 A 
HETATM   29  C   UNL     1      41.024 -11.778  -2.443  1.00  0.00     0.022 A 
ENDBRANCH  20  25
ENDBRANCH  17  18
ENDBRANCH   1  17
TORSDOF 7
ENDMDL
MODEL 6
REMARK VINA RESULT:      -7.5      3.213      4.759
REMARK  7 active torsions:
REMARK  status: ('A' for Active; 'I' for Inactive)
REMARK    1  A    between atoms: C_2  and  C_3 
REMARK    2  A    between atoms: C_3  and  N_4 
REMARK    3  A    between atoms: C_3  and  C_15 
REMARK       I    between atoms: N_4  and  C_5 
REMARK    4  A    between atoms: C_5  and  C_6 
REMARK    5  A    between atoms: C_9  and  O_10 
REMARK    6  A    between atoms: C_15  and  N_16 
REMARK    7  A    between atoms: C_18  and  C_19 
ROOT
HETATM    1  C   UNL     1      40.236 -11.449   3.243  1.00  0.00     0.107 C 
ENDROOT
BRANCH   1   2
HETATM    2  C   UNL     1      39.107 -10.533   2.698  1.00  0.00     0.002 C 
HETATM    3  C   UNL     1      38.404  -9.716   3.788  1.00  0.00     0.011 C 
HETATM    4  C   UNL     1      38.064 -11.316   1.894  1.00  0.00     0.011 C 
ENDBRANCH   1   2
BRANCH   1   5
HETATM    5  N   UNL     1      40.370 -12.683   2.461  1.00  0.00    -0.354 N 
HETATM    6  C   UNL     1      41.587 -13.224   2.108  1.00  0.00     0.222 C 
HETATM    7  O   UNL     1      42.657 -12.670   2.336  1.00  0.00    -0.273 OA
HETATM    8  H   UNL     1      39.555 -13.293   2.416  1.00  0.00     0.162 HD
BRANCH   6   9
HETATM    9  C   UNL     1      41.473 -14.594   1.434  1.00  0.00     0.078 C 
HETATM   10  C   UNL     1      42.833 -15.296   1.319  1.00  0.00     0.016 C 
HETATM   11  C   UNL     1      43.304 -15.894   2.648  1.00  0.00     0.033 C 
HETATM   12  C   UNL     1      42.263 -16.839   3.254  1.00  0.00     0.120 C 
HETATM   13  C   UNL     1      40.932 -16.104   3.433  1.00  0.00     0.033 C 
HETATM   14  C   UNL     1      40.432 -15.492   2.121  1.00  0.00     0.016 C 
BRANCH  12  15
HETATM   15  O   UNL     1      42.136 -17.958   2.367  1.00  0.00    -0.391 OA
HETATM   16  C   UNL     1      43.227 -18.864   2.429  1.00  0.00     0.202 C 
ENDBRANCH  12  15
ENDBRANCH   6   9
ENDBRANCH   1   5
BRANCH   1  17
HETATM   17  C   UNL     1      40.016 -11.770   4.743  1.00  0.00     0.180 C 
BRANCH  17  18
HETATM   18  N   UNL     1      41.272 -11.964   5.467  1.00  0.00    -0.232 N 
HETATM   19  N   UNL     1      41.677 -13.269   5.636  1.00  0.00    -0.168 NA
HETATM   20  C   UNL     1      42.758 -13.509   6.321  1.00  0.00     0.094 A 
HETATM   21  C   UNL     1      43.571 -12.426   6.929  1.00  0.00     0.040 A 
HETATM   22  C   UNL     1      43.157 -11.169   6.769  1.00  0.00     0.078 A 
HETATM   23  C   UNL     1      41.927 -10.870   6.013  1.00  0.00     0.263 A 
HETATM   24  O   UNL     1      41.545  -9.704   5.919  1.00  0.00    -0.267 OA
BRANCH  20  25
HETATM   25  C   UNL     1      43.146 -14.912   6.473  1.00  0.00     0.035 A 
HETATM   26  S   UNL     1      42.077 -16.118   7.061  1.00  0.00    -0.100 SA
HETATM   27  C   UNL     1      43.253 -17.347   6.927  1.00  0.00     0.050 A 
HETATM   28  C   UNL     1      44.447 -16.864   6.447  1.00  0.00     0.008 A 
HETATM   29  C   UNL     1      44.386 -15.465   6.188  1.00  0.00     0.022 A 
ENDBRANCH  20  25
ENDBRANCH  17  18
ENDBRANCH   1  17
TORSDOF 7
ENDMDL
MODEL 7
REMARK VINA RESULT:      -7.4      4.222      7.176
REMARK  7 active torsions:
REMARK  status: ('A' for Active; 'I' for Inactive)
REMARK    1  A    between atoms: C_2  and  C_3 
REMARK    2  A    between atoms: C_3  and  N_4 
REMARK    3  A    between atoms: C_3  and  C_15 
REMARK       I    between atoms: N_4  and  C_5 
REMARK    4  A    between atoms: C_5  and  C_6 
REMARK    5  A    between atoms: C_9  and  O_10 
REMARK    6  A    between atoms: C_15  and  N_16 
REMARK    7  A    between atoms: C_18  and  C_19 
ROOT
HETATM    1  C   UNL     1      42.513 -12.585   4.974  1.00  0.00     0.107 C 
ENDROOT
BRANCH   1   2
HETATM    2  C   UNL     1      43.451 -12.425   6.202  1.00  0.00     0.002 C 
HETATM    3  C   UNL     1      44.673 -11.542   5.925  1.00  0.00     0.011 C 
HETATM    4  C   UNL     1      43.913 -13.776   6.757  1.00  0.00     0.011 C 
ENDBRANCH   1   2
BRANCH   1   5
HETATM    5  N   UNL     1      42.157 -13.987   4.732  1.00  0.00    -0.354 N 
HETATM    6  C   UNL     1      40.932 -14.380   4.241  1.00  0.00     0.222 C 
HETATM    7  O   UNL     1      40.004 -13.600   4.053  1.00  0.00    -0.273 OA
HETATM    8  H   UNL     1      42.924 -14.655   4.668  1.00  0.00     0.162 HD
BRANCH   6   9
HETATM    9  C   UNL     1      40.854 -15.876   3.922  1.00  0.00     0.078 C 
HETATM   10  C   UNL     1      40.849 -16.144   2.411  1.00  0.00     0.016 C 
HETATM   11  C   UNL     1      42.236 -15.996   1.780  1.00  0.00     0.033 C 
HETATM   12  C   UNL     1      43.282 -16.871   2.477  1.00  0.00     0.120 C 
HETATM   13  C   UNL     1      43.328 -16.540   3.970  1.00  0.00     0.033 C 
HETATM   14  C   UNL     1      41.955 -16.677   4.634  1.00  0.00     0.016 C 
BRANCH  12  15
HETATM   15  O   UNL     1      42.914 -18.238   2.248  1.00  0.00    -0.391 OA
HETATM   16  C   UNL     1      43.875 -19.175   2.712  1.00  0.00     0.202 C 
ENDBRANCH  12  15
ENDBRANCH   6   9
ENDBRANCH   1   5
BRANCH   1  17
HETATM   17  C   UNL     1      43.143 -11.951   3.707  1.00  0.00     0.180 C 
BRANCH  17  18
HETATM   18  N   UNL     1      42.145 -11.340   2.829  1.00  0.00    -0.232 N 
HETATM   19  N   UNL     1      41.866 -12.021   1.666  1.00  0.00    -0.168 NA
HETATM   20  C   UNL     1      41.028 -11.499   0.817  1.00  0.00     0.094 A 
HETATM   21  C   UNL     1      40.363 -10.194   1.055  1.00  0.00     0.040 A 
HETATM   22  C   UNL     1      40.657  -9.539   2.180  1.00  0.00     0.078 A 
HETATM   23  C   UNL     1      41.615 -10.099   3.151  1.00  0.00     0.263 A 
HETATM   24  O   UNL     1      41.901  -9.453   4.158  1.00  0.00    -0.267 OA
BRANCH  20  25
HETATM   25  C   UNL     1      40.764 -12.261  -0.405  1.00  0.00     0.035 A 
HETATM   26  S   UNL     1      41.125 -11.666  -1.973  1.00  0.00    -0.100 SA
HETATM   27  C   UNL     1      40.539 -13.075  -2.736  1.00  0.00     0.050 A 
HETATM   28  C   UNL     1      40.070 -13.994  -1.826  1.00  0.00     0.008 A 
HETATM   29  C   UNL     1      40.198 -13.525  -0.487  1.00  0.00     0.022 A 
ENDBRANCH  20  25
ENDBRANCH  17  18
ENDBRANCH   1  17
TORSDOF 7
ENDMDL
MODEL 8
REMARK VINA RESULT:      -7.4      1.419      2.089
REMARK  7 active torsions:
REMARK  status: ('A' for Active; 'I' for Inactive)
REMARK    1  A    between atoms: C_2  and  C_3 
REMARK    2  A    between atoms: C_3  and  N_4 
REMARK    3  A    between atoms: C_3  and  C_15 
REMARK       I    between atoms: N_4  and  C_5 
REMARK    4  A    between atoms: C_5  and  C_6 
REMARK    5  A    between atoms: C_9  and  O_10 
REMARK    6  A    between atoms: C_15  and  N_16 
REMARK    7  A    between atoms: C_18  and  C_19 
ROOT
HETATM    1  C   UNL     1      41.359 -11.648   4.840  1.00  0.00     0.107 C 
ENDROOT
BRANCH   1   2
HETATM    2  C   UNL     1      40.424 -11.904   6.054  1.00  0.00     0.002 C 
HETATM    3  C   UNL     1      39.990 -13.368   6.191  1.00  0.00     0.011 C 
HETATM    4  C   UNL     1      39.185 -11.004   6.030  1.00  0.00     0.011 C 
ENDBRANCH   1   2
BRANCH   1   5
HETATM    5  N   UNL     1      42.189 -12.816   4.528  1.00  0.00    -0.354 N 
HETATM    6  C   UNL     1      42.244 -13.390   3.277  1.00  0.00     0.222 C 
HETATM    7  O   UNL     1      41.533 -13.031   2.345  1.00  0.00    -0.273 OA
HETATM    8  H   UNL     1      42.944 -13.034   5.177  1.00  0.00     0.162 HD
BRANCH   6   9
HETATM    9  C   UNL     1      43.299 -14.493   3.157  1.00  0.00     0.078 C 
HETATM   10  C   UNL     1      43.263 -15.458   4.351  1.00  0.00     0.016 C 
HETATM   11  C   UNL     1      42.097 -16.448   4.276  1.00  0.00     0.033 C 
HETATM   12  C   UNL     1      42.088 -17.226   2.957  1.00  0.00     0.120 C 
HETATM   13  C   UNL     1      42.048 -16.252   1.777  1.00  0.00     0.033 C 
HETATM   14  C   UNL     1      43.201 -15.246   1.821  1.00  0.00     0.016 C 
BRANCH  12  15
HETATM   15  O   UNL     1      43.269 -18.039   2.934  1.00  0.00    -0.391 OA
HETATM   16  C   UNL     1      43.135 -19.220   2.156  1.00  0.00     0.202 C 
ENDBRANCH  12  15
ENDBRANCH   6   9
ENDBRANCH   1   5
BRANCH   1  17
HETATM   17  C   UNL     1      42.239 -10.394   5.073  1.00  0.00     0.180 C 
BRANCH  17  18
HETATM   18  N   UNL     1      43.307 -10.629   6.045  1.00  0.00    -0.232 N 
HETATM   19  N   UNL     1      43.044 -10.234   7.338  1.00  0.00    -0.168 NA
HETATM   20  C   UNL     1      43.977 -10.366   8.238  1.00  0.00     0.094 A 
HETATM   21  C   UNL     1      45.315 -10.925   7.921  1.00  0.00     0.040 A 
HETATM   22  C   UNL     1      45.558 -11.288   6.660  1.00  0.00     0.078 A 
HETATM   23  C   UNL     1      44.527 -11.134   5.618  1.00  0.00     0.263 A 
HETATM   24  O   UNL     1      44.793 -11.435   4.456  1.00  0.00    -0.267 OA
BRANCH  20  25
HETATM   25  C   UNL     1      43.650  -9.932   9.596  1.00  0.00     0.035 A 
HETATM   26  S   UNL     1      43.196  -8.322   9.979  1.00  0.00    -0.100 SA
HETATM   27  C   UNL     1      43.016  -8.676  11.638  1.00  0.00     0.050 A 
HETATM   28  C   UNL     1      43.295  -9.994  11.915  1.00  0.00     0.008 A 
HETATM   29  C   UNL     1      43.661 -10.714  10.742  1.00  0.00     0.022 A 
ENDBRANCH  20  25
ENDBRANCH  17  18
ENDBRANCH   1  17
TORSDOF 7
ENDMDL
MODEL 9
REMARK VINA RESULT:      -7.3      4.870      8.544
REMARK  7 active torsions:
REMARK  status: ('A' for Active; 'I' for Inactive)
REMARK    1  A    between atoms: C_2  and  C_3 
REMARK    2  A    between atoms: C_3  and  N_4 
REMARK    3  A    between atoms: C_3  and  C_15 
REMARK       I    between atoms: N_4  and  C_5 
REMARK    4  A    between atoms: C_5  and  C_6 
REMARK    5  A    between atoms: C_9  and  O_10 
REMARK    6  A    between atoms: C_15  and  N_16 
REMARK    7  A    between atoms: C_18  and  C_19 
ROOT
HETATM    1  C   UNL     1      41.453 -11.311   2.804  1.00  0.00     0.107 C 
ENDROOT
BRANCH   1   2
HETATM    2  C   UNL     1      42.729 -10.894   3.586  1.00  0.00     0.002 C 
HETATM    3  C   UNL     1      43.880 -11.897   3.456  1.00  0.00     0.011 C 
HETATM    4  C   UNL     1      42.440 -10.637   5.069  1.00  0.00     0.011 C 
ENDBRANCH   1   2
BRANCH   1   5
HETATM    5  N   UNL     1      41.448 -12.742   2.482  1.00  0.00    -0.354 N 
HETATM    6  C   UNL     1      40.781 -13.682   3.236  1.00  0.00     0.222 C 
HETATM    7  O   UNL     1      40.214 -13.415   4.290  1.00  0.00    -0.273 OA
HETATM    8  H   UNL     1      41.713 -13.003   1.533  1.00  0.00     0.162 HD
BRANCH   6   9
HETATM    9  C   UNL     1      40.788 -15.081   2.612  1.00  0.00     0.078 C 
HETATM   10  C   UNL     1      42.009 -15.303   1.708  1.00  0.00     0.016 C 
HETATM   11  C   UNL     1      43.293 -15.557   2.502  1.00  0.00     0.033 C 
HETATM   12  C   UNL     1      43.139 -16.718   3.489  1.00  0.00     0.120 C 
HETATM   13  C   UNL     1      41.965 -16.447   4.433  1.00  0.00     0.033 C 
HETATM   14  C   UNL     1      40.662 -16.187   3.671  1.00  0.00     0.016 C 
BRANCH  12  15
HETATM   15  O   UNL     1      42.936 -17.909   2.718  1.00  0.00    -0.391 OA
HETATM   16  C   UNL     1      43.964 -18.876   2.877  1.00  0.00     0.202 C 
ENDBRANCH  12  15
ENDBRANCH   6   9
ENDBRANCH   1   5
BRANCH   1  17
HETATM   17  C   UNL     1      41.285 -10.458   1.521  1.00  0.00     0.180 C 
BRANCH  17  18
HETATM   18  N   UNL     1      39.966 -10.618   0.908  1.00  0.00    -0.232 N 
HETATM   19  N   UNL     1      39.827 -11.680   0.043  1.00  0.00    -0.168 NA
HETATM   20  C   UNL     1      38.693 -11.843  -0.577  1.00  0.00     0.094 A 
HETATM   21  C   UNL     1      37.543 -10.923  -0.386  1.00  0.00     0.040 A 
HETATM   22  C   UNL     1      37.700  -9.890   0.444  1.00  0.00     0.078 A 
HETATM   23  C   UNL     1      38.979  -9.673   1.145  1.00  0.00     0.263 A 
HETATM   24  O   UNL     1      39.109  -8.688   1.870  1.00  0.00    -0.267 OA
BRANCH  20  25
HETATM   25  C   UNL     1      38.594 -12.985  -1.486  1.00  0.00     0.035 A 
HETATM   26  S   UNL     1      39.494 -14.430  -1.270  1.00  0.00    -0.100 SA
HETATM   27  C   UNL     1      38.826 -15.155  -2.663  1.00  0.00     0.050 A 
HETATM   28  C   UNL     1      37.932 -14.324  -3.295  1.00  0.00     0.008 A 
HETATM   29  C   UNL     1      37.800 -13.077  -2.620  1.00  0.00     0.022 A 
ENDBRANCH  20  25
ENDBRANCH  17  18
ENDBRANCH   1  17
TORSDOF 7
ENDMDL
MODEL 10
REMARK VINA RESULT:      -7.3     17.658     19.937
REMARK  7 active torsions:
REMARK  status: ('A' for Active; 'I' for Inactive)
REMARK    1  A    between atoms: C_2  and  C_3 
REMARK    2  A    between atoms: C_3  and  N_4 
REMARK    3  A    between atoms: C_3  and  C_15 
REMARK       I    between atoms: N_4  and  C_5 
REMARK    4  A    between atoms: C_5  and  C_6 
REMARK    5  A    between atoms: C_9  and  O_10 
REMARK    6  A    between atoms: C_15  and  N_16 
REMARK    7  A    between atoms: C_18  and  C_19 
ROOT
HETATM    1  C   UNL     1      45.068 -30.595   2.130  1.00  0.00     0.107 C 
ENDROOT
BRANCH   1   2
HETATM    2  C   UNL     1      43.784 -31.345   2.580  1.00  0.00     0.002 C 
HETATM    3  C   UNL     1      42.573 -30.425   2.766  1.00  0.00     0.011 C 
HETATM    4  C   UNL     1      44.009 -32.159   3.859  1.00  0.00     0.011 C 
ENDBRANCH   1   2
BRANCH   1   5
HETATM    5  N   UNL     1      46.030 -30.442   3.226  1.00  0.00    -0.354 N 
HETATM    6  C   UNL     1      47.365 -30.761   3.109  1.00  0.00     0.222 C 
HETATM    7  O   UNL     1      47.841 -31.288   2.110  1.00  0.00    -0.273 OA
HETATM    8  H   UNL     1      45.759 -29.832   3.997  1.00  0.00     0.162 HD
BRANCH   6   9
HETATM    9  C   UNL     1      48.197 -30.364   4.332  1.00  0.00     0.078 C 
HETATM   10  C   UNL     1      48.791 -31.586   5.046  1.00  0.00     0.016 C 
HETATM   11  C   UNL     1      49.999 -32.171   4.309  1.00  0.00     0.033 C 
HETATM   12  C   UNL     1      51.082 -31.119   4.054  1.00  0.00     0.120 C 
HETATM   13  C   UNL     1      50.492 -29.941   3.275  1.00  0.00     0.033 C 
HETATM   14  C   UNL     1      49.280 -29.331   3.985  1.00  0.00     0.016 C 
BRANCH  12  15
HETATM   15  O   UNL     1      51.589 -30.710   5.331  1.00  0.00    -0.391 OA
HETATM   16  C   UNL     1      52.370 -31.702   5.981  1.00  0.00     0.202 C 
ENDBRANCH  12  15
ENDBRANCH   6   9
ENDBRANCH   1   5
BRANCH   1  17
HETATM   17  C   UNL     1      44.717 -29.219   1.509  1.00  0.00     0.180 C 
BRANCH  17  18
HETATM   18  N   UNL     1      45.558 -28.891   0.358  1.00  0.00    -0.232 N 
HETATM   19  N   UNL     1      45.156 -29.412  -0.852  1.00  0.00    -0.168 NA
HETATM   20  C   UNL     1      45.894 -29.201  -1.904  1.00  0.00     0.094 A 
HETATM   21  C   UNL     1      47.156 -28.422  -1.848  1.00  0.00     0.040 A 
HETATM   22  C   UNL     1      47.539 -27.938  -0.665  1.00  0.00     0.078 A 
HETATM   23  C   UNL     1      46.732 -28.176   0.545  1.00  0.00     0.263 A 
HETATM   24  O   UNL     1      47.132 -27.755   1.629  1.00  0.00    -0.267 OA
BRANCH  20  25
HETATM   25  C   UNL     1      45.424 -29.775  -3.166  1.00  0.00     0.035 A 
HETATM   26  S   UNL     1      46.190 -31.108  -3.928  1.00  0.00    -0.100 SA
HETATM   27  C   UNL     1      45.086 -31.109  -5.229  1.00  0.00     0.050 A 
HETATM   28  C   UNL     1      44.143 -30.115  -5.102  1.00  0.00     0.008 A 
HETATM   29  C   UNL     1      44.339 -29.348  -3.918  1.00  0.00     0.022 A 
ENDBRANCH  20  25
ENDBRANCH  17  18
ENDBRANCH   1  17
TORSDOF 7
ENDMDL
