MODEL 1
REMARK VINA RESULT:      -8.4      0.000      0.000
REMARK  6 active torsions:
REMARK  status: ('A' for Active; 'I' for Inactive)
REMARK    1  A    between atoms: C_4  and  C_5 
REMARK    2  A    between atoms: C_5  and  C_6 
REMARK    3  A    between atoms: C_7  and  N_8 
REMARK       I    between atoms: N_8  and  C_9 
REMARK    4  A    between atoms: C_9  and  C_10 
REMARK    5  A    between atoms: C_15  and  C_16 
REMARK       I    between atoms: C_16  and  N_17 
REMARK    6  A    between atoms: N_17  and  C_18 
ROOT
HETATM    1  N   UNL     1      45.568 -30.571   3.795  1.00  0.00    -0.321 N 
HETATM    2  C   UNL     1      44.791 -31.367   2.984  1.00  0.00     0.277 C 
HETATM    3  O   UNL     1      45.190 -32.264   2.255  1.00  0.00    -0.266 OA
HETATM    4  H   UNL     1      45.023 -30.097   4.515  1.00  0.00     0.169 HD
ENDROOT
BRANCH   2   5
HETATM    5  C   UNL     1      43.367 -31.056   3.127  1.00  0.00     0.158 A 
HETATM    6  N   UNL     1      42.664 -31.474   4.257  1.00  0.00    -0.236 NA
HETATM    7  C   UNL     1      41.440 -31.037   4.089  1.00  0.00     0.208 A 
HETATM    8  N   UNL     1      41.318 -30.346   2.923  1.00  0.00    -0.344 N 
HETATM    9  H   UNL     1      40.485 -29.889   2.570  1.00  0.00     0.167 HD
HETATM   10  C   UNL     1      42.540 -30.328   2.279  1.00  0.00     0.136 A 
BRANCH  10  11
HETATM   11  C   UNL     1      42.701 -29.596   1.036  1.00  0.00     0.275 C 
HETATM   12  N   UNL     1      43.646 -30.076   0.159  1.00  0.00    -0.322 N 
HETATM   13  H   UNL     1      44.097 -30.959   0.394  1.00  0.00     0.169 HD
HETATM   14  O   UNL     1      41.992 -28.616   0.832  1.00  0.00    -0.266 OA
BRANCH  12  15
HETATM   15  C   UNL     1      44.097 -29.495  -1.043  1.00  0.00     0.035 A 
HETATM   16  C   UNL     1      44.679 -28.231  -1.137  1.00  0.00     0.029 A 
HETATM   17  C   UNL     1      45.143 -27.755  -2.368  1.00  0.00     0.002 A 
HETATM   18  C   UNL     1      45.026 -28.538  -3.514  1.00  0.00     0.000 A 
HETATM   19  C   UNL     1      44.441 -29.798  -3.433  1.00  0.00     0.002 A 
HETATM   20  C   UNL     1      43.980 -30.273  -2.204  1.00  0.00     0.029 A 
ENDBRANCH  12  15
ENDBRANCH  10  11
ENDBRANCH   2   5
BRANCH   1  21
HETATM   21  C   UNL     1      46.975 -30.530   3.882  1.00  0.00     0.049 A 
HETATM   22  C   UNL     1      47.863 -29.942   2.959  1.00  0.00     0.043 A 
HETATM   23  C   UNL     1      49.253 -30.060   3.147  1.00  0.00     0.041 A 
HETATM   24  C   UNL     1      49.759 -30.707   4.269  1.00  0.00     0.035 A 
HETATM   25  C   UNL     1      48.893 -31.233   5.220  1.00  0.00     0.026 A 
HETATM   26 CL   UNL     1      51.458 -30.826   4.499  1.00  0.00    -0.084 Cl
HETATM   27  C   UNL     1      47.512 -31.139   5.030  1.00  0.00     0.032 A 
BRANCH  22  28
HETATM   28  C   UNL     1      47.484 -29.074   1.816  1.00  0.00     0.194 C 
HETATM   29  O   UNL     1      46.913 -28.012   2.059  1.00  0.00    -0.287 OA
BRANCH  28  30
HETATM   30  C   UNL     1      47.678 -29.502   0.400  1.00  0.00     0.015 A 
HETATM   31  C   UNL     1      47.292 -30.802   0.048  1.00  0.00     0.015 A 
HETATM   32  C   UNL     1      47.423 -31.250  -1.267  1.00  0.00     0.001 A 
HETATM   33  C   UNL     1      47.962 -30.408  -2.235  1.00  0.00     0.000 A 
HETATM   34  C   UNL     1      48.376 -29.122  -1.889  1.00  0.00     0.001 A 
HETATM   35  C   UNL     1      48.242 -28.669  -0.574  1.00  0.00     0.015 A 
ENDBRANCH  28  30
ENDBRANCH  22  28
ENDBRANCH   1  21
TORSDOF 6
ENDMDL
MODEL 2
REMARK VINA RESULT:      -8.3     16.834     18.864
REMARK  6 active torsions:
REMARK  status: ('A' for Active; 'I' for Inactive)
REMARK    1  A    between atoms: C_4  and  C_5 
REMARK    2  A    between atoms: C_5  and  C_6 
REMARK    3  A    between atoms: C_7  and  N_8 
REMARK       I    between atoms: N_8  and  C_9 
REMARK    4  A    between atoms: C_9  and  C_10 
REMARK    5  A    between atoms: C_15  and  C_16 
REMARK       I    between atoms: C_16  and  N_17 
REMARK    6  A    between atoms: N_17  and  C_18 
ROOT
HETATM    1  N   UNL     1      40.125 -10.995   1.837  1.00  0.00    -0.321 N 
HETATM    2  C   UNL     1      41.358 -10.586   2.295  1.00  0.00     0.277 C 
HETATM    3  O   UNL     1      42.437 -10.806   1.763  1.00  0.00    -0.266 OA
HETATM    4  H   UNL     1      39.359 -10.473   2.262  1.00  0.00     0.169 HD
ENDROOT
BRANCH   2   5
HETATM    5  C   UNL     1      41.241  -9.778   3.511  1.00  0.00     0.158 A 
HETATM    6  N   UNL     1      40.797  -8.457   3.440  1.00  0.00    -0.236 NA
HETATM    7  C   UNL     1      40.794  -8.022   4.676  1.00  0.00     0.208 A 
HETATM    8  N   UNL     1      41.194  -8.992   5.542  1.00  0.00    -0.344 N 
HETATM    9  H   UNL     1      41.258  -8.920   6.551  1.00  0.00     0.167 HD
HETATM   10  C   UNL     1      41.481 -10.141   4.831  1.00  0.00     0.136 A 
BRANCH  10  11
HETATM   11  C   UNL     1      41.871 -11.354   5.527  1.00  0.00     0.275 C 
HETATM   12  N   UNL     1      41.563 -12.543   4.908  1.00  0.00    -0.322 N 
HETATM   13  H   UNL     1      41.174 -12.495   3.968  1.00  0.00     0.169 HD
HETATM   14  O   UNL     1      42.453 -11.256   6.603  1.00  0.00    -0.266 OA
BRANCH  12  15
HETATM   15  C   UNL     1      41.704 -13.852   5.412  1.00  0.00     0.035 A 
HETATM   16  C   UNL     1      40.673 -14.583   6.003  1.00  0.00     0.029 A 
HETATM   17  C   UNL     1      40.894 -15.896   6.430  1.00  0.00     0.002 A 
HETATM   18  C   UNL     1      42.145 -16.488   6.272  1.00  0.00     0.000 A 
HETATM   19  C   UNL     1      43.181 -15.766   5.689  1.00  0.00     0.002 A 
HETATM   20  C   UNL     1      42.961 -14.455   5.261  1.00  0.00     0.029 A 
ENDBRANCH  12  15
ENDBRANCH  10  11
ENDBRANCH   2   5
BRANCH   1  21
HETATM   21  C   UNL     1      39.842 -11.836   0.743  1.00  0.00     0.049 A 
HETATM   22  C   UNL     1      39.917 -13.244   0.714  1.00  0.00     0.043 A 
HETATM   23  C   UNL     1      39.682 -13.937  -0.488  1.00  0.00     0.041 A 
HETATM   24  C   UNL     1      39.319 -13.247  -1.639  1.00  0.00     0.035 A 
HETATM   25  C   UNL     1      39.175 -11.865  -1.607  1.00  0.00     0.026 A 
HETATM   26 CL   UNL     1      39.012 -14.106  -3.096  1.00  0.00    -0.084 Cl
HETATM   27  C   UNL     1      39.429 -11.167  -0.423  1.00  0.00     0.032 A 
BRANCH  22  28
HETATM   28  C   UNL     1      40.118 -14.129   1.889  1.00  0.00     0.194 C 
HETATM   29  O   UNL     1      39.361 -13.999   2.849  1.00  0.00    -0.287 OA
BRANCH  28  30
HETATM   30  C   UNL     1      41.262 -15.083   1.973  1.00  0.00     0.015 A 
HETATM   31  C   UNL     1      41.013 -16.366   2.479  1.00  0.00     0.015 A 
HETATM   32  C   UNL     1      42.037 -17.310   2.554  1.00  0.00     0.001 A 
HETATM   33  C   UNL     1      43.324 -16.971   2.145  1.00  0.00     0.000 A 
HETATM   34  C   UNL     1      43.589 -15.688   1.668  1.00  0.00     0.001 A 
HETATM   35  C   UNL     1      42.563 -14.741   1.586  1.00  0.00     0.015 A 
ENDBRANCH  28  30
ENDBRANCH  22  28
ENDBRANCH   1  21
TORSDOF 6
ENDMDL
MODEL 3
REMARK VINA RESULT:      -8.2     16.278     18.007
REMARK  6 active torsions:
REMARK  status: ('A' for Active; 'I' for Inactive)
REMARK    1  A    between atoms: C_4  and  C_5 
REMARK    2  A    between atoms: C_5  and  C_6 
REMARK    3  A    between atoms: C_7  and  N_8 
REMARK       I    between atoms: N_8  and  C_9 
REMARK    4  A    between atoms: C_9  and  C_10 
REMARK    5  A    between atoms: C_15  and  C_16 
REMARK       I    between atoms: C_16  and  N_17 
REMARK    6  A    between atoms: N_17  and  C_18 
ROOT
HETATM    1  N   UNL     1      39.778 -12.304   3.063  1.00  0.00    -0.321 N 
HETATM    2  C   UNL     1      40.521 -12.220   1.907  1.00  0.00     0.277 C 
HETATM    3  O   UNL     1      41.434 -11.438   1.689  1.00  0.00    -0.266 OA
HETATM    4  H   UNL     1      39.276 -13.189   3.142  1.00  0.00     0.169 HD
ENDROOT
BRANCH   2   5
HETATM    5  C   UNL     1      40.126 -13.244   0.936  1.00  0.00     0.158 A 
HETATM    6  N   UNL     1      39.604 -12.875  -0.304  1.00  0.00    -0.236 NA
HETATM    7  C   UNL     1      39.365 -14.001  -0.931  1.00  0.00     0.208 A 
HETATM    8  N   UNL     1      39.718 -15.074  -0.173  1.00  0.00    -0.344 N 
HETATM    9  H   UNL     1      39.656 -16.051  -0.433  1.00  0.00     0.167 HD
HETATM   10  C   UNL     1      40.221 -14.627   1.034  1.00  0.00     0.136 A 
BRANCH  10  11
HETATM   11  C   UNL     1      40.734 -15.573   2.008  1.00  0.00     0.275 C 
HETATM   12  N   UNL     1      42.052 -15.943   1.871  1.00  0.00    -0.322 N 
HETATM   13  H   UNL     1      42.602 -15.461   1.162  1.00  0.00     0.169 HD
HETATM   14  O   UNL     1      39.984 -15.975   2.892  1.00  0.00    -0.266 OA
BRANCH  12  15
HETATM   15  C   UNL     1      42.761 -16.930   2.584  1.00  0.00     0.035 A 
HETATM   16  C   UNL     1      42.978 -18.230   2.126  1.00  0.00     0.029 A 
HETATM   17  C   UNL     1      43.737 -19.128   2.883  1.00  0.00     0.002 A 
HETATM   18  C   UNL     1      44.284 -18.736   4.103  1.00  0.00     0.000 A 
HETATM   19  C   UNL     1      44.068 -17.444   4.572  1.00  0.00     0.002 A 
HETATM   20  C   UNL     1      43.312 -16.546   3.816  1.00  0.00     0.029 A 
ENDBRANCH  12  15
ENDBRANCH  10  11
ENDBRANCH   2   5
BRANCH   1  21
HETATM   21  C   UNL     1      39.822 -11.455   4.187  1.00  0.00     0.049 A 
HETATM   22  C   UNL     1      40.753 -11.498   5.245  1.00  0.00     0.043 A 
HETATM   23  C   UNL     1      40.612 -10.629   6.343  1.00  0.00     0.041 A 
HETATM   24  C   UNL     1      39.590  -9.686   6.367  1.00  0.00     0.035 A 
HETATM   25  C   UNL     1      38.706  -9.589   5.300  1.00  0.00     0.026 A 
HETATM   26 CL   UNL     1      39.440  -8.615   7.703  1.00  0.00    -0.084 Cl
HETATM   27  C   UNL     1      38.825 -10.463   4.216  1.00  0.00     0.032 A 
BRANCH  22  28
HETATM   28  C   UNL     1      41.991 -12.317   5.283  1.00  0.00     0.194 C 
HETATM   29  O   UNL     1      42.954 -11.945   4.616  1.00  0.00    -0.287 OA
BRANCH  28  30
HETATM   30  C   UNL     1      42.055 -13.616   6.014  1.00  0.00     0.015 A 
HETATM   31  C   UNL     1      40.949 -14.472   5.933  1.00  0.00     0.015 A 
HETATM   32  C   UNL     1      40.962 -15.712   6.572  1.00  0.00     0.001 A 
HETATM   33  C   UNL     1      42.074 -16.096   7.316  1.00  0.00     0.000 A 
HETATM   34  C   UNL     1      43.169 -15.240   7.428  1.00  0.00     0.001 A 
HETATM   35  C   UNL     1      43.160 -13.999   6.785  1.00  0.00     0.015 A 
ENDBRANCH  28  30
ENDBRANCH  22  28
ENDBRANCH   1  21
TORSDOF 6
ENDMDL
MODEL 4
REMARK VINA RESULT:      -8.2     16.585     18.521
REMARK  6 active torsions:
REMARK  status: ('A' for Active; 'I' for Inactive)
REMARK    1  A    between atoms: C_4  and  C_5 
REMARK    2  A    between atoms: C_5  and  C_6 
REMARK    3  A    between atoms: C_7  and  N_8 
REMARK       I    between atoms: N_8  and  C_9 
REMARK    4  A    between atoms: C_9  and  C_10 
REMARK    5  A    between atoms: C_15  and  C_16 
REMARK       I    between atoms: C_16  and  N_17 
REMARK    6  A    between atoms: N_17  and  C_18 
ROOT
HETATM    1  N   UNL     1      41.534 -10.796   2.937  1.00  0.00    -0.321 N 
HETATM    2  C   UNL     1      42.691 -10.929   3.672  1.00  0.00     0.277 C 
HETATM    3  O   UNL     1      43.785 -11.268   3.245  1.00  0.00    -0.266 OA
HETATM    4  H   UNL     1      40.828 -10.239   3.418  1.00  0.00     0.169 HD
ENDROOT
BRANCH   2   5
HETATM    5  C   UNL     1      42.486 -10.555   5.073  1.00  0.00     0.158 A 
HETATM    6  N   UNL     1      41.954  -9.307   5.399  1.00  0.00    -0.236 NA
HETATM    7  C   UNL     1      41.887  -9.286   6.708  1.00  0.00     0.208 A 
HETATM    8  N   UNL     1      42.330 -10.456   7.244  1.00  0.00    -0.344 N 
HETATM    9  H   UNL     1      42.361 -10.703   8.226  1.00  0.00     0.167 HD
HETATM   10  C   UNL     1      42.715 -11.303   6.223  1.00  0.00     0.136 A 
BRANCH  10  11
HETATM   11  C   UNL     1      43.168 -12.649   6.520  1.00  0.00     0.275 C 
HETATM   12  N   UNL     1      42.881 -13.616   5.585  1.00  0.00    -0.322 N 
HETATM   13  H   UNL     1      42.458 -13.309   4.710  1.00  0.00     0.169 HD
HETATM   14  O   UNL     1      43.782 -12.848   7.565  1.00  0.00    -0.266 OA
BRANCH  12  15
HETATM   15  C   UNL     1      43.082 -15.007   5.676  1.00  0.00     0.035 A 
HETATM   16  C   UNL     1      44.329 -15.629   5.610  1.00  0.00     0.029 A 
HETATM   17  C   UNL     1      44.436 -17.015   5.760  1.00  0.00     0.002 A 
HETATM   18  C   UNL     1      43.299 -17.791   5.974  1.00  0.00     0.000 A 
HETATM   19  C   UNL     1      42.049 -17.182   6.035  1.00  0.00     0.002 A 
HETATM   20  C   UNL     1      41.943 -15.797   5.887  1.00  0.00     0.029 A 
ENDBRANCH  12  15
ENDBRANCH  10  11
ENDBRANCH   2   5
BRANCH   1  21
HETATM   21  C   UNL     1      41.325 -11.123   1.582  1.00  0.00     0.049 A 
HETATM   22  C   UNL     1      40.971 -12.384   1.060  1.00  0.00     0.043 A 
HETATM   23  C   UNL     1      40.881 -12.569  -0.332  1.00  0.00     0.041 A 
HETATM   24  C   UNL     1      41.084 -11.501  -1.199  1.00  0.00     0.035 A 
HETATM   25  C   UNL     1      41.368 -10.237  -0.694  1.00  0.00     0.026 A 
HETATM   26 CL   UNL     1      40.950 -11.733  -2.897  1.00  0.00    -0.084 Cl
HETATM   27  C   UNL     1      41.481 -10.050   0.686  1.00  0.00     0.032 A 
BRANCH  22  28
HETATM   28  C   UNL     1      40.553 -13.568   1.852  1.00  0.00     0.194 C 
HETATM   29  O   UNL     1      39.501 -13.500   2.486  1.00  0.00    -0.287 OA
BRANCH  28  30
HETATM   30  C   UNL     1      41.416 -14.777   1.979  1.00  0.00     0.015 A 
HETATM   31  C   UNL     1      42.796 -14.624   1.787  1.00  0.00     0.015 A 
HETATM   32  C   UNL     1      43.657 -15.713   1.922  1.00  0.00     0.001 A 
HETATM   33  C   UNL     1      43.143 -16.969   2.228  1.00  0.00     0.000 A 
HETATM   34  C   UNL     1      41.769 -17.140   2.392  1.00  0.00     0.001 A 
HETATM   35  C   UNL     1      40.903 -16.049   2.263  1.00  0.00     0.015 A 
ENDBRANCH  28  30
ENDBRANCH  22  28
ENDBRANCH   1  21
TORSDOF 6
ENDMDL
MODEL 5
REMARK VINA RESULT:      -8.0     16.123     17.738
REMARK  6 active torsions:
REMARK  status: ('A' for Active; 'I' for Inactive)
REMARK    1  A    between atoms: C_4  and  C_5 
REMARK    2  A    between atoms: C_5  and  C_6 
REMARK    3  A    between atoms: C_7  and  N_8 
REMARK       I    between atoms: N_8  and  C_9 
REMARK    4  A    between atoms: C_9  and  C_10 
REMARK    5  A    between atoms: C_15  and  C_16 
REMARK       I    between atoms: C_16  and  N_17 
REMARK    6  A    between atoms: N_17  and  C_18 
ROOT
HETATM    1  N   UNL     1      41.616 -15.344   1.804  1.00  0.00    -0.321 N 
HETATM    2  C   UNL     1      40.259 -15.203   1.620  1.00  0.00     0.277 C 
HETATM    3  O   UNL     1      39.381 -15.806   2.222  1.00  0.00    -0.266 OA
HETATM    4  H   UNL     1      42.146 -14.562   1.419  1.00  0.00     0.169 HD
ENDROOT
BRANCH   2   5
HETATM    5  C   UNL     1      39.953 -14.173   0.625  1.00  0.00     0.158 A 
HETATM    6  N   UNL     1      40.036 -14.463  -0.737  1.00  0.00    -0.236 NA
HETATM    7  C   UNL     1      39.698 -13.355  -1.352  1.00  0.00     0.208 A 
HETATM    8  N   UNL     1      39.385 -12.374  -0.463  1.00  0.00    -0.344 N 
HETATM    9  H   UNL     1      39.073 -11.434  -0.679  1.00  0.00     0.167 HD
HETATM   10  C   UNL     1      39.528 -12.864   0.820  1.00  0.00     0.136 A 
BRANCH  10  11
HETATM   11  C   UNL     1      39.193 -12.034   1.963  1.00  0.00     0.275 C 
HETATM   12  N   UNL     1      40.130 -11.961   2.966  1.00  0.00    -0.322 N 
HETATM   13  H   UNL     1      41.029 -12.412   2.801  1.00  0.00     0.169 HD
HETATM   14  O   UNL     1      38.117 -11.442   1.967  1.00  0.00    -0.266 OA
BRANCH  12  15
HETATM   15  C   UNL     1      40.013 -11.345   4.229  1.00  0.00     0.035 A 
HETATM   16  C   UNL     1      39.422 -11.940   5.343  1.00  0.00     0.029 A 
HETATM   17  C   UNL     1      39.395 -11.271   6.571  1.00  0.00     0.002 A 
HETATM   18  C   UNL     1      39.956 -10.002   6.694  1.00  0.00     0.000 A 
HETATM   19  C   UNL     1      40.543  -9.397   5.587  1.00  0.00     0.002 A 
HETATM   20  C   UNL     1      40.572 -10.066   4.361  1.00  0.00     0.029 A 
ENDBRANCH  12  15
ENDBRANCH  10  11
ENDBRANCH   2   5
BRANCH   1  21
HETATM   21  C   UNL     1      42.289 -16.273   2.623  1.00  0.00     0.049 A 
HETATM   22  C   UNL     1      42.555 -16.150   4.002  1.00  0.00     0.043 A 
HETATM   23  C   UNL     1      43.317 -17.132   4.662  1.00  0.00     0.041 A 
HETATM   24  C   UNL     1      43.762 -18.256   3.976  1.00  0.00     0.035 A 
HETATM   25  C   UNL     1      43.450 -18.423   2.633  1.00  0.00     0.026 A 
HETATM   26 CL   UNL     1      44.673 -19.461   4.798  1.00  0.00    -0.084 Cl
HETATM   27  C   UNL     1      42.714 -17.441   1.964  1.00  0.00     0.032 A 
BRANCH  22  28
HETATM   28  C   UNL     1      42.004 -15.109   4.906  1.00  0.00     0.194 C 
HETATM   29  O   UNL     1      40.926 -15.329   5.455  1.00  0.00    -0.287 OA
BRANCH  28  30
HETATM   30  C   UNL     1      42.663 -13.782   5.076  1.00  0.00     0.015 A 
HETATM   31  C   UNL     1      42.714 -13.233   6.365  1.00  0.00     0.015 A 
HETATM   32  C   UNL     1      43.343 -12.008   6.591  1.00  0.00     0.001 A 
HETATM   33  C   UNL     1      43.908 -11.313   5.525  1.00  0.00     0.000 A 
HETATM   34  C   UNL     1      43.837 -11.835   4.235  1.00  0.00     0.001 A 
HETATM   35  C   UNL     1      43.212 -13.065   4.006  1.00  0.00     0.015 A 
ENDBRANCH  28  30
ENDBRANCH  22  28
ENDBRANCH   1  21
TORSDOF 6
ENDMDL
MODEL 6
REMARK VINA RESULT:      -7.9     17.077     18.363
REMARK  6 active torsions:
REMARK  status: ('A' for Active; 'I' for Inactive)
REMARK    1  A    between atoms: C_4  and  C_5 
REMARK    2  A    between atoms: C_5  and  C_6 
REMARK    3  A    between atoms: C_7  and  N_8 
REMARK       I    between atoms: N_8  and  C_9 
REMARK    4  A    between atoms: C_9  and  C_10 
REMARK    5  A    between atoms: C_15  and  C_16 
REMARK       I    between atoms: C_16  and  N_17 
REMARK    6  A    between atoms: N_17  and  C_18 
ROOT
HETATM    1  N   UNL     1      41.166 -10.648   5.177  1.00  0.00    -0.321 N 
HETATM    2  C   UNL     1      40.033 -11.423   5.060  1.00  0.00     0.277 C 
HETATM    3  O   UNL     1      39.612 -12.217   5.889  1.00  0.00    -0.266 OA
HETATM    4  H   UNL     1      41.174  -9.868   4.519  1.00  0.00     0.169 HD
ENDROOT
BRANCH   2   5
HETATM    5  C   UNL     1      39.321 -11.153   3.809  1.00  0.00     0.158 A 
HETATM    6  N   UNL     1      38.585  -9.978   3.657  1.00  0.00    -0.236 NA
HETATM    7  C   UNL     1      38.087 -10.031   2.446  1.00  0.00     0.208 A 
HETATM    8  N   UNL     1      38.474 -11.165   1.802  1.00  0.00    -0.344 N 
HETATM    9  H   UNL     1      38.245 -11.435   0.853  1.00  0.00     0.167 HD
HETATM   10  C   UNL     1      39.278 -11.910   2.644  1.00  0.00     0.136 A 
BRANCH  10  11
HETATM   11  C   UNL     1      39.881 -13.145   2.177  1.00  0.00     0.275 C 
HETATM   12  N   UNL     1      40.754 -13.767   3.039  1.00  0.00    -0.322 N 
HETATM   13  H   UNL     1      40.844 -13.376   3.976  1.00  0.00     0.169 HD
HETATM   14  O   UNL     1      39.578 -13.566   1.065  1.00  0.00    -0.266 OA
BRANCH  12  15
HETATM   15  C   UNL     1      41.570 -14.890   2.796  1.00  0.00     0.035 A 
HETATM   16  C   UNL     1      41.325 -16.166   3.303  1.00  0.00     0.029 A 
HETATM   17  C   UNL     1      42.165 -17.233   2.967  1.00  0.00     0.002 A 
HETATM   18  C   UNL     1      43.257 -17.032   2.126  1.00  0.00     0.000 A 
HETATM   19  C   UNL     1      43.514 -15.762   1.621  1.00  0.00     0.002 A 
HETATM   20  C   UNL     1      42.674 -14.697   1.954  1.00  0.00     0.029 A 
ENDBRANCH  12  15
ENDBRANCH  10  11
ENDBRANCH   2   5
BRANCH   1  21
HETATM   21  C   UNL     1      42.134 -10.675   6.200  1.00  0.00     0.049 A 
HETATM   22  C   UNL     1      43.065 -11.701   6.458  1.00  0.00     0.043 A 
HETATM   23  C   UNL     1      43.915 -11.616   7.577  1.00  0.00     0.041 A 
HETATM   24  C   UNL     1      43.884 -10.496   8.400  1.00  0.00     0.035 A 
HETATM   25  C   UNL     1      43.017  -9.447   8.118  1.00  0.00     0.026 A 
HETATM   26 CL   UNL     1      44.942 -10.392   9.751  1.00  0.00    -0.084 Cl
HETATM   27  C   UNL     1      42.154  -9.534   7.023  1.00  0.00     0.032 A 
BRANCH  22  28
HETATM   28  C   UNL     1      43.343 -12.867   5.581  1.00  0.00     0.194 C 
HETATM   29  O   UNL     1      43.662 -12.650   4.413  1.00  0.00    -0.287 OA
BRANCH  28  30
HETATM   30  C   UNL     1      43.143 -14.270   6.045  1.00  0.00     0.015 A 
HETATM   31  C   UNL     1      44.195 -15.178   5.866  1.00  0.00     0.015 A 
HETATM   32  C   UNL     1      44.077 -16.497   6.306  1.00  0.00     0.001 A 
HETATM   33  C   UNL     1      42.897 -16.923   6.910  1.00  0.00     0.000 A 
HETATM   34  C   UNL     1      41.834 -16.035   7.067  1.00  0.00     0.001 A 
HETATM   35  C   UNL     1      41.951 -14.712   6.632  1.00  0.00     0.015 A 
ENDBRANCH  28  30
ENDBRANCH  22  28
ENDBRANCH   1  21
TORSDOF 6
ENDMDL
MODEL 7
REMARK VINA RESULT:      -7.7     16.902     18.735
REMARK  6 active torsions:
REMARK  status: ('A' for Active; 'I' for Inactive)
REMARK    1  A    between atoms: C_4  and  C_5 
REMARK    2  A    between atoms: C_5  and  C_6 
REMARK    3  A    between atoms: C_7  and  N_8 
REMARK       I    between atoms: N_8  and  C_9 
REMARK    4  A    between atoms: C_9  and  C_10 
REMARK    5  A    between atoms: C_15  and  C_16 
REMARK       I    between atoms: C_16  and  N_17 
REMARK    6  A    between atoms: N_17  and  C_18 
ROOT
HETATM    1  N   UNL     1      39.696 -11.400   3.362  1.00  0.00    -0.321 N 
HETATM    2  C   UNL     1      40.179 -10.226   3.898  1.00  0.00     0.277 C 
HETATM    3  O   UNL     1      40.677  -9.299   3.277  1.00  0.00    -0.266 OA
HETATM    4  H   UNL     1      39.078 -11.897   4.004  1.00  0.00     0.169 HD
ENDROOT
BRANCH   2   5
HETATM    5  C   UNL     1      39.979 -10.173   5.348  1.00  0.00     0.158 A 
HETATM    6  N   UNL     1      39.632  -8.973   5.968  1.00  0.00    -0.236 NA
HETATM    7  C   UNL     1      39.519  -9.257   7.243  1.00  0.00     0.208 A 
HETATM    8  N   UNL     1      39.756 -10.576   7.477  1.00  0.00    -0.344 N 
HETATM    9  H   UNL     1      39.712 -11.054   8.369  1.00  0.00     0.167 HD
HETATM   10  C   UNL     1      40.047 -11.202   6.280  1.00  0.00     0.136 A 
BRANCH  10  11
HETATM   11  C   UNL     1      40.277 -12.635   6.241  1.00  0.00     0.275 C 
HETATM   12  N   UNL     1      41.561 -13.058   6.493  1.00  0.00    -0.322 N 
HETATM   13  H   UNL     1      42.238 -12.353   6.783  1.00  0.00     0.169 HD
HETATM   14  O   UNL     1      39.330 -13.379   6.001  1.00  0.00    -0.266 OA
BRANCH  12  15
HETATM   15  C   UNL     1      42.088 -14.361   6.392  1.00  0.00     0.035 A 
HETATM   16  C   UNL     1      41.410 -15.517   6.780  1.00  0.00     0.029 A 
HETATM   17  C   UNL     1      41.994 -16.774   6.595  1.00  0.00     0.002 A 
HETATM   18  C   UNL     1      43.260 -16.886   6.024  1.00  0.00     0.000 A 
HETATM   19  C   UNL     1      43.947 -15.739   5.638  1.00  0.00     0.002 A 
HETATM   20  C   UNL     1      43.363 -14.484   5.821  1.00  0.00     0.029 A 
ENDBRANCH  12  15
ENDBRANCH  10  11
ENDBRANCH   2   5
BRANCH   1  21
HETATM   21  C   UNL     1      39.769 -11.838   2.025  1.00  0.00     0.049 A 
HETATM   22  C   UNL     1      40.835 -12.532   1.417  1.00  0.00     0.043 A 
HETATM   23  C   UNL     1      40.791 -12.826   0.042  1.00  0.00     0.041 A 
HETATM   24  C   UNL     1      39.675 -12.487  -0.715  1.00  0.00     0.035 A 
HETATM   25  C   UNL     1      38.589 -11.862  -0.114  1.00  0.00     0.026 A 
HETATM   26 CL   UNL     1      39.622 -12.871  -2.389  1.00  0.00    -0.084 Cl
HETATM   27  C   UNL     1      38.634 -11.546   1.247  1.00  0.00     0.032 A 
BRANCH  22  28
HETATM   28  C   UNL     1      42.007 -13.115   2.119  1.00  0.00     0.194 C 
HETATM   29  O   UNL     1      42.873 -12.349   2.536  1.00  0.00    -0.287 OA
BRANCH  28  30
HETATM   30  C   UNL     1      42.205 -14.589   2.233  1.00  0.00     0.015 A 
HETATM   31  C   UNL     1      41.189 -15.345   2.832  1.00  0.00     0.015 A 
HETATM   32  C   UNL     1      41.306 -16.731   2.941  1.00  0.00     0.001 A 
HETATM   33  C   UNL     1      42.450 -17.369   2.470  1.00  0.00     0.000 A 
HETATM   34  C   UNL     1      43.479 -16.623   1.898  1.00  0.00     0.001 A 
HETATM   35  C   UNL     1      43.364 -15.235   1.783  1.00  0.00     0.015 A 
ENDBRANCH  28  30
ENDBRANCH  22  28
ENDBRANCH   1  21
TORSDOF 6
ENDMDL
MODEL 8
REMARK VINA RESULT:      -7.7     17.417     19.164
REMARK  6 active torsions:
REMARK  status: ('A' for Active; 'I' for Inactive)
REMARK    1  A    between atoms: C_4  and  C_5 
REMARK    2  A    between atoms: C_5  and  C_6 
REMARK    3  A    between atoms: C_7  and  N_8 
REMARK       I    between atoms: N_8  and  C_9 
REMARK    4  A    between atoms: C_9  and  C_10 
REMARK    5  A    between atoms: C_15  and  C_16 
REMARK       I    between atoms: C_16  and  N_17 
REMARK    6  A    between atoms: N_17  and  C_18 
ROOT
HETATM    1  N   UNL     1      40.657 -10.791   5.429  1.00  0.00    -0.321 N 
HETATM    2  C   UNL     1      41.854 -10.111   5.473  1.00  0.00     0.277 C 
HETATM    3  O   UNL     1      42.406  -9.556   4.534  1.00  0.00    -0.266 OA
HETATM    4  H   UNL     1      40.248 -10.921   6.354  1.00  0.00     0.169 HD
ENDROOT
BRANCH   2   5
HETATM    5  C   UNL     1      42.401 -10.070   6.831  1.00  0.00     0.158 A 
HETATM    6  N   UNL     1      42.080  -9.017   7.688  1.00  0.00    -0.236 NA
HETATM    7  C   UNL     1      42.708  -9.276   8.810  1.00  0.00     0.208 A 
HETATM    8  N   UNL     1      43.401 -10.444   8.730  1.00  0.00    -0.344 N 
HETATM    9  H   UNL     1      43.949 -10.878   9.463  1.00  0.00     0.167 HD
HETATM   10  C   UNL     1      43.220 -10.990   7.474  1.00  0.00     0.136 A 
BRANCH  10  11
HETATM   11  C   UNL     1      43.804 -12.279   7.146  1.00  0.00     0.275 C 
HETATM   12  N   UNL     1      42.924 -13.304   6.889  1.00  0.00    -0.322 N 
HETATM   13  H   UNL     1      41.932 -13.072   6.851  1.00  0.00     0.169 HD
HETATM   14  O   UNL     1      45.026 -12.379   7.103  1.00  0.00    -0.266 OA
BRANCH  12  15
HETATM   15  C   UNL     1      43.209 -14.668   6.678  1.00  0.00     0.035 A 
HETATM   16  C   UNL     1      43.701 -15.194   5.484  1.00  0.00     0.029 A 
HETATM   17  C   UNL     1      44.002 -16.557   5.383  1.00  0.00     0.002 A 
HETATM   18  C   UNL     1      43.812 -17.403   6.473  1.00  0.00     0.000 A 
HETATM   19  C   UNL     1      43.316 -16.889   7.667  1.00  0.00     0.002 A 
HETATM   20  C   UNL     1      43.017 -15.529   7.769  1.00  0.00     0.029 A 
ENDBRANCH  12  15
ENDBRANCH  10  11
ENDBRANCH   2   5
BRANCH   1  21
HETATM   21  C   UNL     1      39.872 -11.093   4.298  1.00  0.00     0.049 A 
HETATM   22  C   UNL     1      39.790 -12.333   3.631  1.00  0.00     0.043 A 
HETATM   23  C   UNL     1      39.021 -12.452   2.459  1.00  0.00     0.041 A 
HETATM   24  C   UNL     1      38.292 -11.368   1.982  1.00  0.00     0.035 A 
HETATM   25  C   UNL     1      38.312 -10.159   2.667  1.00  0.00     0.026 A 
HETATM   26 CL   UNL     1      37.338 -11.531   0.561  1.00  0.00    -0.084 Cl
HETATM   27  C   UNL     1      39.091 -10.026   3.819  1.00  0.00     0.032 A 
BRANCH  22  28
HETATM   28  C   UNL     1      40.360 -13.618   4.108  1.00  0.00     0.194 C 
HETATM   29  O   UNL     1      40.181 -13.931   5.284  1.00  0.00    -0.287 OA
BRANCH  28  30
HETATM   30  C   UNL     1      41.220 -14.471   3.239  1.00  0.00     0.015 A 
HETATM   31  C   UNL     1      42.322 -13.873   2.613  1.00  0.00     0.015 A 
HETATM   32  C   UNL     1      43.179 -14.627   1.811  1.00  0.00     0.001 A 
HETATM   33  C   UNL     1      42.929 -15.981   1.611  1.00  0.00     0.000 A 
HETATM   34  C   UNL     1      41.819 -16.580   2.205  1.00  0.00     0.001 A 
HETATM   35  C   UNL     1      40.961 -15.829   3.013  1.00  0.00     0.015 A 
ENDBRANCH  28  30
ENDBRANCH  22  28
ENDBRANCH   1  21
TORSDOF 6
ENDMDL
MODEL 9
REMARK VINA RESULT:      -7.5     16.491     18.082
REMARK  6 active torsions:
REMARK  status: ('A' for Active; 'I' for Inactive)
REMARK    1  A    between atoms: C_4  and  C_5 
REMARK    2  A    between atoms: C_5  and  C_6 
REMARK    3  A    between atoms: C_7  and  N_8 
REMARK       I    between atoms: N_8  and  C_9 
REMARK    4  A    between atoms: C_9  and  C_10 
REMARK    5  A    between atoms: C_15  and  C_16 
REMARK       I    between atoms: C_16  and  N_17 
REMARK    6  A    between atoms: N_17  and  C_18 
ROOT
HETATM    1  N   UNL     1      41.842 -13.321   2.137  1.00  0.00    -0.321 N 
HETATM    2  C   UNL     1      40.540 -12.991   1.831  1.00  0.00     0.277 C 
HETATM    3  O   UNL     1      39.767 -12.365   2.542  1.00  0.00    -0.266 OA
HETATM    4  H   UNL     1      42.382 -13.582   1.312  1.00  0.00     0.169 HD
ENDROOT
BRANCH   2   5
HETATM    5  C   UNL     1      40.172 -13.437   0.486  1.00  0.00     0.158 A 
HETATM    6  N   UNL     1      39.884 -14.780   0.243  1.00  0.00    -0.236 NA
HETATM    7  C   UNL     1      39.586 -14.849  -1.032  1.00  0.00     0.208 A 
HETATM    8  N   UNL     1      39.651 -13.625  -1.621  1.00  0.00    -0.344 N 
HETATM    9  H   UNL     1      39.447 -13.402  -2.588  1.00  0.00     0.167 HD
HETATM   10  C   UNL     1      40.016 -12.687  -0.674  1.00  0.00     0.136 A 
BRANCH  10  11
HETATM   11  C   UNL     1      40.095 -11.281  -1.029  1.00  0.00     0.275 C 
HETATM   12  N   UNL     1      41.242 -10.872  -1.667  1.00  0.00    -0.322 N 
HETATM   13  H   UNL     1      41.912 -11.592  -1.932  1.00  0.00     0.169 HD
HETATM   14  O   UNL     1      39.147 -10.550  -0.757  1.00  0.00    -0.266 OA
BRANCH  12  15
HETATM   15  C   UNL     1      41.636  -9.561  -2.001  1.00  0.00     0.035 A 
HETATM   16  C   UNL     1      41.190  -8.868  -3.127  1.00  0.00     0.029 A 
HETATM   17  C   UNL     1      41.598  -7.549  -3.351  1.00  0.00     0.002 A 
HETATM   18  C   UNL     1      42.454  -6.913  -2.455  1.00  0.00     0.000 A 
HETATM   19  C   UNL     1      42.909  -7.598  -1.332  1.00  0.00     0.002 A 
HETATM   20  C   UNL     1      42.501  -8.914  -1.107  1.00  0.00     0.029 A 
ENDBRANCH  12  15
ENDBRANCH  10  11
ENDBRANCH   2   5
BRANCH   1  21
HETATM   21  C   UNL     1      42.525 -13.119   3.353  1.00  0.00     0.049 A 
HETATM   22  C   UNL     1      42.502 -13.957   4.487  1.00  0.00     0.043 A 
HETATM   23  C   UNL     1      43.175 -13.571   5.661  1.00  0.00     0.041 A 
HETATM   24  C   UNL     1      43.914 -12.394   5.694  1.00  0.00     0.035 A 
HETATM   25  C   UNL     1      44.000 -11.593   4.561  1.00  0.00     0.026 A 
HETATM   26 CL   UNL     1      44.751 -11.944   7.126  1.00  0.00    -0.084 Cl
HETATM   27  C   UNL     1      43.316 -11.957   3.399  1.00  0.00     0.032 A 
BRANCH  22  28
HETATM   28  C   UNL     1      41.912 -15.318   4.553  1.00  0.00     0.194 C 
HETATM   29  O   UNL     1      40.852 -15.462   5.160  1.00  0.00    -0.287 OA
BRANCH  28  30
HETATM   30  C   UNL     1      42.616 -16.511   4.001  1.00  0.00     0.015 A 
HETATM   31  C   UNL     1      43.555 -17.156   4.817  1.00  0.00     0.015 A 
HETATM   32  C   UNL     1      44.225 -18.294   4.366  1.00  0.00     0.001 A 
HETATM   33  C   UNL     1      43.976 -18.783   3.087  1.00  0.00     0.000 A 
HETATM   34  C   UNL     1      43.066 -18.132   2.256  1.00  0.00     0.001 A 
HETATM   35  C   UNL     1      42.389 -16.995   2.706  1.00  0.00     0.015 A 
ENDBRANCH  28  30
ENDBRANCH  22  28
ENDBRANCH   1  21
TORSDOF 6
ENDMDL
MODEL 10
REMARK VINA RESULT:      -7.4     15.891     17.355
REMARK  6 active torsions:
REMARK  status: ('A' for Active; 'I' for Inactive)
REMARK    1  A    between atoms: C_4  and  C_5 
REMARK    2  A    between atoms: C_5  and  C_6 
REMARK    3  A    between atoms: C_7  and  N_8 
REMARK       I    between atoms: N_8  and  C_9 
REMARK    4  A    between atoms: C_9  and  C_10 
REMARK    5  A    between atoms: C_15  and  C_16 
REMARK       I    between atoms: C_16  and  N_17 
REMARK    6  A    between atoms: N_17  and  C_18 
ROOT
HETATM    1  N   UNL     1      41.180 -14.129   2.746  1.00  0.00    -0.321 N 
HETATM    2  C   UNL     1      40.184 -14.719   2.000  1.00  0.00     0.277 C 
HETATM    3  O   UNL     1      39.513 -15.688   2.327  1.00  0.00    -0.266 OA
HETATM    4  H   UNL     1      41.404 -13.188   2.423  1.00  0.00     0.169 HD
ENDROOT
BRANCH   2   5
HETATM    5  C   UNL     1      39.958 -14.006   0.741  1.00  0.00     0.158 A 
HETATM    6  N   UNL     1      40.343 -14.578  -0.471  1.00  0.00    -0.236 NA
HETATM    7  C   UNL     1      40.001 -13.710  -1.392  1.00  0.00     0.208 A 
HETATM    8  N   UNL     1      39.402 -12.618  -0.844  1.00  0.00    -0.344 N 
HETATM    9  H   UNL     1      39.028 -11.816  -1.337  1.00  0.00     0.167 HD
HETATM   10  C   UNL     1      39.348 -12.775   0.528  1.00  0.00     0.136 A 
BRANCH  10  11
HETATM   11  C   UNL     1      38.695 -11.775   1.354  1.00  0.00     0.275 C 
HETATM   12  N   UNL     1      39.491 -11.110   2.258  1.00  0.00    -0.322 N 
HETATM   13  H   UNL     1      40.493 -11.293   2.222  1.00  0.00     0.169 HD
HETATM   14  O   UNL     1      37.495 -11.571   1.196  1.00  0.00    -0.266 OA
BRANCH  12  15
HETATM   15  C   UNL     1      39.101 -10.200   3.260  1.00  0.00     0.035 A 
HETATM   16  C   UNL     1      38.757  -8.869   3.024  1.00  0.00     0.029 A 
HETATM   17  C   UNL     1      38.334  -8.051   4.077  1.00  0.00     0.002 A 
HETATM   18  C   UNL     1      38.255  -8.555   5.373  1.00  0.00     0.000 A 
HETATM   19  C   UNL     1      38.602  -9.880   5.620  1.00  0.00     0.002 A 
HETATM   20  C   UNL     1      39.022 -10.697   4.569  1.00  0.00     0.029 A 
ENDBRANCH  12  15
ENDBRANCH  10  11
ENDBRANCH   2   5
BRANCH   1  21
HETATM   21  C   UNL     1      41.720 -14.566   3.973  1.00  0.00     0.049 A 
HETATM   22  C   UNL     1      42.586 -15.659   4.176  1.00  0.00     0.043 A 
HETATM   23  C   UNL     1      42.971 -16.019   5.481  1.00  0.00     0.041 A 
HETATM   24  C   UNL     1      42.548 -15.267   6.572  1.00  0.00     0.035 A 
HETATM   25  C   UNL     1      41.748 -14.147   6.379  1.00  0.00     0.026 A 
HETATM   26 CL   UNL     1      43.043 -15.703   8.160  1.00  0.00    -0.084 Cl
HETATM   27  C   UNL     1      41.343 -13.797   5.089  1.00  0.00     0.032 A 
BRANCH  22  28
HETATM   28  C   UNL     1      43.261 -16.445   3.113  1.00  0.00     0.194 C 
HETATM   29  O   UNL     1      43.590 -15.862   2.081  1.00  0.00    -0.287 OA
BRANCH  28  30
HETATM   30  C   UNL     1      43.450 -17.921   3.221  1.00  0.00     0.015 A 
HETATM   31  C   UNL     1      43.016 -18.719   2.154  1.00  0.00     0.015 A 
HETATM   32  C   UNL     1      43.192 -20.103   2.185  1.00  0.00     0.001 A 
HETATM   33  C   UNL     1      43.783 -20.701   3.294  1.00  0.00     0.000 A 
HETATM   34  C   UNL     1      44.192 -19.919   4.374  1.00  0.00     0.001 A 
HETATM   35  C   UNL     1      44.022 -18.532   4.343  1.00  0.00     0.015 A 
ENDBRANCH  28  30
ENDBRANCH  22  28
ENDBRANCH   1  21
TORSDOF 6
ENDMDL
