MODEL 1
REMARK VINA RESULT:      -9.2      0.000      0.000
REMARK  4 active torsions:
REMARK  status: ('A' for Active; 'I' for Inactive)
REMARK    1  A    between atoms: C_5  and  C_6 
REMARK    2  A    between atoms: C_6  and  N_7 
REMARK    3  A    between atoms: C_13  and  C_14 
REMARK    4  A    between atoms: C_14  and  N_15 
ROOT
HETATM    1  N   UNL     1      43.638 -15.956   5.129  1.00  0.00    -0.060 N 
HETATM    2  H   UNL     1      44.244 -15.275   4.663  1.00  0.00     0.280 HD
HETATM    3  C   UNL     1      42.416 -16.157   4.239  1.00  0.00     0.274 C 
HETATM    4  C   UNL     1      42.783 -16.287   2.724  1.00  0.00     0.092 C 
HETATM    5  C   UNL     1      41.586 -16.837   1.908  1.00  0.00     0.041 C 
HETATM    6  C   UNL     1      40.436 -15.844   1.736  1.00  0.00     0.009 C 
HETATM    7  C   UNL     1      40.902 -14.536   1.074  1.00  0.00     0.012 C 
HETATM    8  C   UNL     1      42.039 -13.927   1.907  1.00  0.00     0.009 C 
HETATM    9  C   UNL     1      43.191 -14.919   2.115  1.00  0.00     0.041 C 
HETATM   10  O   UNL     1      43.942 -17.134   2.509  1.00  0.00    -0.338 OA
HETATM   11  C   UNL     1      43.884 -18.339   3.152  1.00  0.00     0.077 A 
HETATM   12  C   UNL     1      44.142 -18.406   4.524  1.00  0.00     0.001 A 
HETATM   13  C   UNL     1      44.539 -17.178   5.283  1.00  0.00     0.276 C 
HETATM   14  C   UNL     1      43.632 -19.487   2.407  1.00  0.00     0.037 A 
HETATM   15  C   UNL     1      43.575 -20.724   3.048  1.00  0.00     0.003 A 
HETATM   16  C   UNL     1      43.796 -20.807   4.421  1.00  0.00     0.001 A 
HETATM   17  C   UNL     1      44.090 -19.657   5.156  1.00  0.00     0.012 A 
ENDROOT
BRANCH   1  18
HETATM   18  C   UNL     1      43.293 -15.334   6.469  1.00  0.00     0.276 C 
BRANCH  18  19
HETATM   19  C   UNL     1      43.134 -13.860   6.449  1.00  0.00     0.004 A 
HETATM   20  C   UNL     1      44.108 -12.900   6.809  1.00  0.00     0.149 A 
HETATM   21  N   UNL     1      43.687 -11.652   6.628  1.00  0.00    -0.185 NA
HETATM   22  N   UNL     1      42.411 -11.787   6.234  1.00  0.00    -0.285 N 
HETATM   23  C   UNL     1      41.595 -10.615   6.012  1.00  0.00     0.179 C 
HETATM   24  C   UNL     1      42.037 -13.096   6.093  1.00  0.00     0.122 A 
ENDBRANCH  18  19
ENDBRANCH   1  18
BRANCH   7  25
HETATM   25  C   UNL     1      39.691 -13.594   0.891  1.00  0.00     0.238 C 
BRANCH  25  26
HETATM   26  N   UNL     1      39.097 -13.634  -0.500  1.00  0.00    -0.078 N 
HETATM   27  H   UNL     1      38.409 -14.395  -0.554  1.00  0.00     0.278 HD
HETATM   28  C   UNL     1      38.384 -12.365  -0.899  1.00  0.00     0.269 C 
HETATM   29  C   UNL     1      40.157 -13.977  -1.527  1.00  0.00     0.269 C 
ENDBRANCH  25  26
ENDBRANCH   7  25
TORSDOF 4
ENDMDL
MODEL 2
REMARK VINA RESULT:      -8.6      0.617      1.251
REMARK  4 active torsions:
REMARK  status: ('A' for Active; 'I' for Inactive)
REMARK    1  A    between atoms: C_5  and  C_6 
REMARK    2  A    between atoms: C_6  and  N_7 
REMARK    3  A    between atoms: C_13  and  C_14 
REMARK    4  A    between atoms: C_14  and  N_15 
ROOT
HETATM    1  N   UNL     1      43.255 -15.753   5.100  1.00  0.00    -0.060 N 
HETATM    2  H   UNL     1      43.850 -15.054   4.646  1.00  0.00     0.280 HD
HETATM    3  C   UNL     1      42.121 -16.077   4.133  1.00  0.00     0.274 C 
HETATM    4  C   UNL     1      42.611 -16.250   2.658  1.00  0.00     0.092 C 
HETATM    5  C   UNL     1      41.518 -16.916   1.784  1.00  0.00     0.041 C 
HETATM    6  C   UNL     1      40.323 -16.012   1.478  1.00  0.00     0.009 C 
HETATM    7  C   UNL     1      40.753 -14.706   0.787  1.00  0.00     0.012 C 
HETATM    8  C   UNL     1      41.782 -13.985   1.671  1.00  0.00     0.009 C 
HETATM    9  C   UNL     1      42.975 -14.886   2.012  1.00  0.00     0.041 C 
HETATM   10  O   UNL     1      43.834 -17.025   2.571  1.00  0.00    -0.338 OA
HETATM   11  C   UNL     1      43.804 -18.201   3.268  1.00  0.00     0.077 A 
HETATM   12  C   UNL     1      43.960 -18.188   4.657  1.00  0.00     0.001 A 
HETATM   13  C   UNL     1      44.218 -16.903   5.380  1.00  0.00     0.276 C 
HETATM   14  C   UNL     1      43.684 -19.396   2.565  1.00  0.00     0.037 A 
HETATM   15  C   UNL     1      43.657 -20.603   3.262  1.00  0.00     0.003 A 
HETATM   16  C   UNL     1      43.777 -20.610   4.650  1.00  0.00     0.001 A 
HETATM   17  C   UNL     1      43.939 -19.410   5.346  1.00  0.00     0.012 A 
ENDROOT
BRANCH   1  18
HETATM   18  C   UNL     1      42.769 -15.095   6.378  1.00  0.00     0.276 C 
BRANCH  18  19
HETATM   19  C   UNL     1      43.113 -13.659   6.509  1.00  0.00     0.004 A 
HETATM   20  C   UNL     1      42.242 -12.561   6.317  1.00  0.00     0.149 A 
HETATM   21  N   UNL     1      42.829 -11.395   6.566  1.00  0.00    -0.185 NA
HETATM   22  N   UNL     1      44.104 -11.715   6.835  1.00  0.00    -0.285 N 
HETATM   23  C   UNL     1      45.075 -10.675   7.083  1.00  0.00     0.179 C 
HETATM   24  C   UNL     1      44.321 -13.068   6.831  1.00  0.00     0.122 A 
ENDBRANCH  18  19
ENDBRANCH   1  18
BRANCH   7  25
HETATM   25  C   UNL     1      39.503 -13.857   0.469  1.00  0.00     0.238 C 
BRANCH  25  26
HETATM   26  N   UNL     1      39.647 -13.010  -0.778  1.00  0.00    -0.078 N 
HETATM   27  H   UNL     1      40.272 -12.219  -0.582  1.00  0.00     0.278 HD
HETATM   28  C   UNL     1      40.229 -13.751  -1.958  1.00  0.00     0.269 C 
HETATM   29  C   UNL     1      38.320 -12.389  -1.161  1.00  0.00     0.269 C 
ENDBRANCH  25  26
ENDBRANCH   7  25
TORSDOF 4
ENDMDL
MODEL 3
REMARK VINA RESULT:      -8.3      1.919      5.962
REMARK  4 active torsions:
REMARK  status: ('A' for Active; 'I' for Inactive)
REMARK    1  A    between atoms: C_5  and  C_6 
REMARK    2  A    between atoms: C_6  and  N_7 
REMARK    3  A    between atoms: C_13  and  C_14 
REMARK    4  A    between atoms: C_14  and  N_15 
ROOT
HETATM    1  N   UNL     1      42.382 -12.913   3.578  1.00  0.00    -0.060 N 
HETATM    2  H   UNL     1      41.896 -13.189   4.436  1.00  0.00     0.280 HD
HETATM    3  C   UNL     1      42.961 -14.181   2.958  1.00  0.00     0.274 C 
HETATM    4  C   UNL     1      41.958 -15.381   2.983  1.00  0.00     0.092 C 
HETATM    5  C   UNL     1      42.433 -16.520   2.046  1.00  0.00     0.041 C 
HETATM    6  C   UNL     1      43.652 -17.287   2.560  1.00  0.00     0.009 C 
HETATM    7  C   UNL     1      43.405 -17.889   3.954  1.00  0.00     0.012 C 
HETATM    8  C   UNL     1      43.008 -16.767   4.924  1.00  0.00     0.009 C 
HETATM    9  C   UNL     1      41.803 -15.968   4.412  1.00  0.00     0.041 C 
HETATM   10  O   UNL     1      40.613 -14.982   2.612  1.00  0.00    -0.338 OA
HETATM   11  C   UNL     1      40.542 -14.247   1.461  1.00  0.00     0.077 A 
HETATM   12  C   UNL     1      40.893 -12.895   1.479  1.00  0.00     0.001 A 
HETATM   13  C   UNL     1      41.289 -12.230   2.761  1.00  0.00     0.276 C 
HETATM   14  C   UNL     1      40.057 -14.853   0.306  1.00  0.00     0.037 A 
HETATM   15  C   UNL     1      39.974 -14.115  -0.874  1.00  0.00     0.003 A 
HETATM   16  C   UNL     1      40.351 -12.774  -0.885  1.00  0.00     0.001 A 
HETATM   17  C   UNL     1      40.798 -12.160   0.287  1.00  0.00     0.012 A 
ENDROOT
BRANCH   1  18
HETATM   18  C   UNL     1      43.453 -11.934   4.023  1.00  0.00     0.276 C 
BRANCH  18  19
HETATM   19  C   UNL     1      43.624 -11.822   5.491  1.00  0.00     0.004 A 
HETATM   20  C   UNL     1      43.942 -12.870   6.387  1.00  0.00     0.149 A 
HETATM   21  N   UNL     1      44.087 -12.445   7.638  1.00  0.00    -0.185 NA
HETATM   22  N   UNL     1      43.779 -11.140   7.583  1.00  0.00    -0.285 N 
HETATM   23  C   UNL     1      43.754 -10.351   8.794  1.00  0.00     0.179 C 
HETATM   24  C   UNL     1      43.512 -10.713   6.310  1.00  0.00     0.122 A 
ENDBRANCH  18  19
ENDBRANCH   1  18
BRANCH   7  25
HETATM   25  C   UNL     1      44.654 -18.682   4.399  1.00  0.00     0.238 C 
BRANCH  25  26
HETATM   26  N   UNL     1      44.416 -20.173   4.513  1.00  0.00    -0.078 N 
HETATM   27  H   UNL     1      45.319 -20.661   4.538  1.00  0.00     0.278 HD
HETATM   28  C   UNL     1      43.659 -20.580   5.753  1.00  0.00     0.269 C 
HETATM   29  C   UNL     1      43.710 -20.699   3.280  1.00  0.00     0.269 C 
ENDBRANCH  25  26
ENDBRANCH   7  25
TORSDOF 4
ENDMDL
MODEL 4
REMARK VINA RESULT:      -8.0      1.501      2.025
REMARK  4 active torsions:
REMARK  status: ('A' for Active; 'I' for Inactive)
REMARK    1  A    between atoms: C_5  and  C_6 
REMARK    2  A    between atoms: C_6  and  N_7 
REMARK    3  A    between atoms: C_13  and  C_14 
REMARK    4  A    between atoms: C_14  and  N_15 
ROOT
HETATM    1  N   UNL     1      42.361 -14.550   5.032  1.00  0.00    -0.060 N 
HETATM    2  H   UNL     1      42.904 -13.773   4.646  1.00  0.00     0.280 HD
HETATM    3  C   UNL     1      41.469 -15.077   3.913  1.00  0.00     0.274 C 
HETATM    4  C   UNL     1      42.217 -15.198   2.545  1.00  0.00     0.092 C 
HETATM    5  C   UNL     1      41.403 -16.054   1.542  1.00  0.00     0.041 C 
HETATM    6  C   UNL     1      40.147 -15.366   1.006  1.00  0.00     0.009 C 
HETATM    7  C   UNL     1      40.473 -14.022   0.330  1.00  0.00     0.012 C 
HETATM    8  C   UNL     1      41.213 -13.123   1.331  1.00  0.00     0.009 C 
HETATM    9  C   UNL     1      42.462 -13.807   1.901  1.00  0.00     0.041 C 
HETATM   10  O   UNL     1      43.546 -15.763   2.693  1.00  0.00    -0.338 OA
HETATM   11  C   UNL     1      43.588 -16.913   3.432  1.00  0.00     0.077 A 
HETATM   12  C   UNL     1      43.508 -16.845   4.825  1.00  0.00     0.001 A 
HETATM   13  C   UNL     1      43.435 -15.520   5.518  1.00  0.00     0.276 C 
HETATM   14  C   UNL     1      43.777 -18.126   2.777  1.00  0.00     0.037 A 
HETATM   15  C   UNL     1      43.828 -19.306   3.517  1.00  0.00     0.003 A 
HETATM   16  C   UNL     1      43.715 -19.263   4.906  1.00  0.00     0.001 A 
HETATM   17  C   UNL     1      43.568 -18.038   5.560  1.00  0.00     0.012 A 
ENDROOT
BRANCH   1  18
HETATM   18  C   UNL     1      41.572 -13.954   6.183  1.00  0.00     0.276 C 
BRANCH  18  19
HETATM   19  C   UNL     1      40.900 -12.669   5.878  1.00  0.00     0.004 A 
HETATM   20  C   UNL     1      39.526 -12.373   6.045  1.00  0.00     0.149 A 
HETATM   21  N   UNL     1      39.235 -11.113   5.740  1.00  0.00    -0.185 NA
HETATM   22  N   UNL     1      40.392 -10.604   5.289  1.00  0.00    -0.285 N 
HETATM   23  C   UNL     1      40.440  -9.250   4.786  1.00  0.00     0.179 C 
HETATM   24  C   UNL     1      41.428 -11.496   5.370  1.00  0.00     0.122 A 
ENDBRANCH  18  19
ENDBRANCH   1  18
BRANCH   7  25
HETATM   25  C   UNL     1      39.174 -13.398  -0.224  1.00  0.00     0.238 C 
BRANCH  25  26
HETATM   26  N   UNL     1      38.705 -14.024  -1.520  1.00  0.00    -0.078 N 
HETATM   27  H   UNL     1      38.383 -14.982  -1.338  1.00  0.00     0.278 HD
HETATM   28  C   UNL     1      37.563 -13.290  -2.178  1.00  0.00     0.269 C 
HETATM   29  C   UNL     1      39.857 -14.167  -2.494  1.00  0.00     0.269 C 
ENDBRANCH  25  26
ENDBRANCH   7  25
TORSDOF 4
ENDMDL
MODEL 5
REMARK VINA RESULT:      -8.0      1.800      6.402
REMARK  4 active torsions:
REMARK  status: ('A' for Active; 'I' for Inactive)
REMARK    1  A    between atoms: C_5  and  C_6 
REMARK    2  A    between atoms: C_6  and  N_7 
REMARK    3  A    between atoms: C_13  and  C_14 
REMARK    4  A    between atoms: C_14  and  N_15 
ROOT
HETATM    1  N   UNL     1      41.857 -14.539   2.613  1.00  0.00    -0.060 N 
HETATM    2  H   UNL     1      40.942 -14.254   2.972  1.00  0.00     0.280 HD
HETATM    3  C   UNL     1      42.894 -14.156   3.664  1.00  0.00     0.274 C 
HETATM    4  C   UNL     1      42.440 -14.502   5.120  1.00  0.00     0.092 C 
HETATM    5  C   UNL     1      43.634 -14.433   6.105  1.00  0.00     0.041 C 
HETATM    6  C   UNL     1      44.125 -13.014   6.396  1.00  0.00     0.009 C 
HETATM    7  C   UNL     1      43.001 -12.120   6.948  1.00  0.00     0.012 C 
HETATM    8  C   UNL     1      41.833 -12.108   5.952  1.00  0.00     0.009 C 
HETATM    9  C   UNL     1      41.344 -13.525   5.625  1.00  0.00     0.041 C 
HETATM   10  O   UNL     1      41.820 -15.811   5.207  1.00  0.00    -0.338 OA
HETATM   11  C   UNL     1      42.539 -16.813   4.616  1.00  0.00     0.077 A 
HETATM   12  C   UNL     1      42.529 -16.947   3.225  1.00  0.00     0.001 A 
HETATM   13  C   UNL     1      41.690 -16.038   2.381  1.00  0.00     0.276 C 
HETATM   14  C   UNL     1      43.215 -17.722   5.424  1.00  0.00     0.037 A 
HETATM   15  C   UNL     1      43.948 -18.752   4.837  1.00  0.00     0.003 A 
HETATM   16  C   UNL     1      43.978 -18.882   3.450  1.00  0.00     0.001 A 
HETATM   17  C   UNL     1      43.263 -17.992   2.645  1.00  0.00     0.012 A 
ENDROOT
BRANCH   1  18
HETATM   18  C   UNL     1      42.030 -13.779   1.311  1.00  0.00     0.276 C 
BRANCH  18  19
HETATM   19  C   UNL     1      40.765 -13.386   0.646  1.00  0.00     0.004 A 
HETATM   20  C   UNL     1      39.770 -12.524   1.165  1.00  0.00     0.149 A 
HETATM   21  N   UNL     1      38.777 -12.316   0.307  1.00  0.00    -0.185 NA
HETATM   22  N   UNL     1      39.070 -13.107  -0.738  1.00  0.00    -0.285 N 
HETATM   23  C   UNL     1      38.155 -13.201  -1.853  1.00  0.00     0.179 C 
HETATM   24  C   UNL     1      40.266 -13.757  -0.589  1.00  0.00     0.122 A 
ENDBRANCH  18  19
ENDBRANCH   1  18
BRANCH   7  25
HETATM   25  C   UNL     1      43.567 -10.717   7.259  1.00  0.00     0.238 C 
BRANCH  25  26
HETATM   26  N   UNL     1      44.676 -10.726   8.290  1.00  0.00    -0.078 N 
HETATM   27  H   UNL     1      44.996 -11.690   8.437  1.00  0.00     0.278 HD
HETATM   28  C   UNL     1      45.885  -9.913   7.896  1.00  0.00     0.269 C 
HETATM   29  C   UNL     1      44.159 -10.264   9.637  1.00  0.00     0.269 C 
ENDBRANCH  25  26
ENDBRANCH   7  25
TORSDOF 4
ENDMDL
MODEL 6
REMARK VINA RESULT:      -7.9      2.281      7.298
REMARK  4 active torsions:
REMARK  status: ('A' for Active; 'I' for Inactive)
REMARK    1  A    between atoms: C_5  and  C_6 
REMARK    2  A    between atoms: C_6  and  N_7 
REMARK    3  A    between atoms: C_13  and  C_14 
REMARK    4  A    between atoms: C_14  and  N_15 
ROOT
HETATM    1  N   UNL     1      41.085 -12.115   2.126  1.00  0.00    -0.060 N 
HETATM    2  H   UNL     1      41.679 -12.195   1.296  1.00  0.00     0.280 HD
HETATM    3  C   UNL     1      41.361 -13.337   2.997  1.00  0.00     0.274 C 
HETATM    4  C   UNL     1      42.884 -13.673   3.107  1.00  0.00     0.092 C 
HETATM    5  C   UNL     1      43.149 -14.675   4.260  1.00  0.00     0.041 C 
HETATM    6  C   UNL     1      42.665 -16.097   3.978  1.00  0.00     0.009 C 
HETATM    7  C   UNL     1      43.291 -16.673   2.695  1.00  0.00     0.012 C 
HETATM    8  C   UNL     1      42.976 -15.737   1.518  1.00  0.00     0.009 C 
HETATM    9  C   UNL     1      43.429 -14.298   1.795  1.00  0.00     0.041 C 
HETATM   10  O   UNL     1      43.697 -12.487   3.304  1.00  0.00    -0.338 OA
HETATM   11  C   UNL     1      43.256 -11.663   4.301  1.00  0.00     0.077 A 
HETATM   12  C   UNL     1      42.161 -10.824   4.075  1.00  0.00     0.001 A 
HETATM   13  C   UNL     1      41.505 -10.778   2.730  1.00  0.00     0.276 C 
HETATM   14  C   UNL     1      43.953 -11.632   5.505  1.00  0.00     0.037 A 
HETATM   15  C   UNL     1      43.519 -10.793   6.530  1.00  0.00     0.003 A 
HETATM   16  C   UNL     1      42.409  -9.973   6.336  1.00  0.00     0.001 A 
HETATM   17  C   UNL     1      41.738  -9.978   5.111  1.00  0.00     0.012 A 
ENDROOT
BRANCH   1  18
HETATM   18  C   UNL     1      39.663 -12.078   1.598  1.00  0.00     0.276 C 
BRANCH  18  19
HETATM   19  C   UNL     1      39.442 -12.845   0.349  1.00  0.00     0.004 A 
HETATM   20  C   UNL     1      39.932 -14.139   0.054  1.00  0.00     0.149 A 
HETATM   21  N   UNL     1      39.515 -14.586  -1.125  1.00  0.00    -0.185 NA
HETATM   22  N   UNL     1      38.825 -13.558  -1.645  1.00  0.00    -0.285 N 
HETATM   23  C   UNL     1      38.276 -13.656  -2.978  1.00  0.00     0.179 C 
HETATM   24  C   UNL     1      38.737 -12.494  -0.788  1.00  0.00     0.122 A 
ENDBRANCH  18  19
ENDBRANCH   1  18
BRANCH   7  25
HETATM   25  C   UNL     1      42.795 -18.121   2.487  1.00  0.00     0.238 C 
BRANCH  25  26
HETATM   26  N   UNL     1      43.873 -19.164   2.689  1.00  0.00    -0.078 N 
HETATM   27  H   UNL     1      44.758 -18.821   2.296  1.00  0.00     0.278 HD
HETATM   28  C   UNL     1      44.135 -19.503   4.137  1.00  0.00     0.269 C 
HETATM   29  C   UNL     1      43.552 -20.425   1.913  1.00  0.00     0.269 C 
ENDBRANCH  25  26
ENDBRANCH   7  25
TORSDOF 4
ENDMDL
MODEL 7
REMARK VINA RESULT:      -7.7      2.143      5.676
REMARK  4 active torsions:
REMARK  status: ('A' for Active; 'I' for Inactive)
REMARK    1  A    between atoms: C_5  and  C_6 
REMARK    2  A    between atoms: C_6  and  N_7 
REMARK    3  A    between atoms: C_13  and  C_14 
REMARK    4  A    between atoms: C_14  and  N_15 
ROOT
HETATM    1  N   UNL     1      42.734 -16.334   3.227  1.00  0.00    -0.060 N 
HETATM    2  H   UNL     1      41.886 -16.904   3.168  1.00  0.00     0.280 HD
HETATM    3  C   UNL     1      42.484 -15.067   2.415  1.00  0.00     0.274 C 
HETATM    4  C   UNL     1      41.065 -14.456   2.665  1.00  0.00     0.092 C 
HETATM    5  C   UNL     1      40.979 -13.010   2.115  1.00  0.00     0.041 C 
HETATM    6  C   UNL     1      40.954 -12.921   0.589  1.00  0.00     0.009 C 
HETATM    7  C   UNL     1      39.791 -13.728  -0.015  1.00  0.00     0.012 C 
HETATM    8  C   UNL     1      39.897 -15.188   0.453  1.00  0.00     0.009 C 
HETATM    9  C   UNL     1      39.953 -15.296   1.982  1.00  0.00     0.041 C 
HETATM   10  O   UNL     1      40.705 -14.459   4.070  1.00  0.00    -0.338 OA
HETATM   11  C   UNL     1      41.664 -13.944   4.897  1.00  0.00     0.077 A 
HETATM   12  C   UNL     1      42.783 -14.714   5.226  1.00  0.00     0.001 A 
HETATM   13  C   UNL     1      42.910 -16.120   4.727  1.00  0.00     0.276 C 
HETATM   14  C   UNL     1      41.469 -12.681   5.447  1.00  0.00     0.037 A 
HETATM   15  C   UNL     1      42.436 -12.145   6.297  1.00  0.00     0.003 A 
HETATM   16  C   UNL     1      43.575 -12.883   6.610  1.00  0.00     0.001 A 
HETATM   17  C   UNL     1      43.745 -14.167   6.088  1.00  0.00     0.012 A 
ENDROOT
BRANCH   1  18
HETATM   18  C   UNL     1      43.838 -17.197   2.644  1.00  0.00     0.276 C 
BRANCH  18  19
HETATM   19  C   UNL     1      43.833 -18.607   3.101  1.00  0.00     0.004 A 
HETATM   20  C   UNL     1      43.494 -19.744   2.330  1.00  0.00     0.149 A 
HETATM   21  N   UNL     1      43.644 -20.880   3.004  1.00  0.00    -0.185 NA
HETATM   22  N   UNL     1      43.994 -20.490   4.240  1.00  0.00    -0.285 N 
HETATM   23  C   UNL     1      44.172 -21.471   5.285  1.00  0.00     0.179 C 
HETATM   24  C   UNL     1      44.140 -19.132   4.344  1.00  0.00     0.122 A 
ENDBRANCH  18  19
ENDBRANCH   1  18
BRANCH   7  25
HETATM   25  C   UNL     1      39.795 -13.566  -1.551  1.00  0.00     0.238 C 
BRANCH  25  26
HETATM   26  N   UNL     1      39.034 -12.350  -2.033  1.00  0.00    -0.078 N 
HETATM   27  H   UNL     1      38.811 -11.748  -1.231  1.00  0.00     0.278 HD
HETATM   28  C   UNL     1      39.796 -11.503  -3.023  1.00  0.00     0.269 C 
HETATM   29  C   UNL     1      37.696 -12.752  -2.619  1.00  0.00     0.269 C 
ENDBRANCH  25  26
ENDBRANCH   7  25
TORSDOF 4
ENDMDL
MODEL 8
REMARK VINA RESULT:      -7.7      1.879      6.387
REMARK  4 active torsions:
REMARK  status: ('A' for Active; 'I' for Inactive)
REMARK    1  A    between atoms: C_5  and  C_6 
REMARK    2  A    between atoms: C_6  and  N_7 
REMARK    3  A    between atoms: C_13  and  C_14 
REMARK    4  A    between atoms: C_14  and  N_15 
ROOT
HETATM    1  N   UNL     1      40.298 -12.432   2.756  1.00  0.00    -0.060 N 
HETATM    2  H   UNL     1      39.641 -12.979   3.319  1.00  0.00     0.280 HD
HETATM    3  C   UNL     1      41.447 -13.360   2.373  1.00  0.00     0.274 C 
HETATM    4  C   UNL     1      40.958 -14.775   1.920  1.00  0.00     0.092 C 
HETATM    5  C   UNL     1      42.095 -15.555   1.212  1.00  0.00     0.041 C 
HETATM    6  C   UNL     1      43.205 -16.032   2.149  1.00  0.00     0.009 C 
HETATM    7  C   UNL     1      42.657 -16.917   3.283  1.00  0.00     0.012 C 
HETATM    8  C   UNL     1      41.580 -16.138   4.052  1.00  0.00     0.009 C 
HETATM    9  C   UNL     1      40.471 -15.626   3.124  1.00  0.00     0.041 C 
HETATM   10  O   UNL     1      39.804 -14.705   1.042  1.00  0.00    -0.338 OA
HETATM   11  C   UNL     1      39.942 -13.826   0.004  1.00  0.00     0.077 A 
HETATM   12  C   UNL     1      39.801 -12.455   0.231  1.00  0.00     0.001 A 
HETATM   13  C   UNL     1      39.441 -11.945   1.591  1.00  0.00     0.276 C 
HETATM   14  C   UNL     1      40.157 -14.328  -1.277  1.00  0.00     0.037 A 
HETATM   15  C   UNL     1      40.294 -13.445  -2.347  1.00  0.00     0.003 A 
HETATM   16  C   UNL     1      40.190 -12.072  -2.135  1.00  0.00     0.001 A 
HETATM   17  C   UNL     1      39.933 -11.577  -0.855  1.00  0.00     0.012 A 
ENDROOT
BRANCH   1  18
HETATM   18  C   UNL     1      40.740 -11.290   3.653  1.00  0.00     0.276 C 
BRANCH  18  19
HETATM   19  C   UNL     1      41.794 -11.641   4.634  1.00  0.00     0.004 A 
HETATM   20  C   UNL     1      41.678 -12.552   5.710  1.00  0.00     0.149 A 
HETATM   21  N   UNL     1      42.816 -12.700   6.378  1.00  0.00    -0.185 NA
HETATM   22  N   UNL     1      43.656 -11.825   5.803  1.00  0.00    -0.285 N 
HETATM   23  C   UNL     1      44.991 -11.651   6.327  1.00  0.00     0.179 C 
HETATM   24  C   UNL     1      43.093 -11.177   4.736  1.00  0.00     0.122 A 
ENDBRANCH  18  19
ENDBRANCH   1  18
BRANCH   7  25
HETATM   25  C   UNL     1      43.827 -17.399   4.169  1.00  0.00     0.238 C 
BRANCH  25  26
HETATM   26  N   UNL     1      43.433 -18.475   5.158  1.00  0.00    -0.078 N 
HETATM   27  H   UNL     1      42.439 -18.700   5.039  1.00  0.00     0.278 HD
HETATM   28  C   UNL     1      44.200 -19.765   4.997  1.00  0.00     0.269 C 
HETATM   29  C   UNL     1      43.564 -17.971   6.581  1.00  0.00     0.269 C 
ENDBRANCH  25  26
ENDBRANCH   7  25
TORSDOF 4
ENDMDL
MODEL 9
REMARK VINA RESULT:      -7.3      9.611     13.521
REMARK  4 active torsions:
REMARK  status: ('A' for Active; 'I' for Inactive)
REMARK    1  A    between atoms: C_5  and  C_6 
REMARK    2  A    between atoms: C_6  and  N_7 
REMARK    3  A    between atoms: C_13  and  C_14 
REMARK    4  A    between atoms: C_14  and  N_15 
ROOT
HETATM    1  N   UNL     1      40.336  -8.302  10.834  1.00  0.00    -0.060 N 
HETATM    2  H   UNL     1      39.881  -9.050  11.365  1.00  0.00     0.280 HD
HETATM    3  C   UNL     1      41.324  -7.619  11.774  1.00  0.00     0.274 C 
HETATM    4  C   UNL     1      42.148  -8.634  12.632  1.00  0.00     0.092 C 
HETATM    5  C   UNL     1      43.364  -7.940  13.297  1.00  0.00     0.041 C 
HETATM    6  C   UNL     1      42.997  -6.989  14.436  1.00  0.00     0.009 C 
HETATM    7  C   UNL     1      42.193  -7.698  15.540  1.00  0.00     0.012 C 
HETATM    8  C   UNL     1      40.938  -8.330  14.920  1.00  0.00     0.009 C 
HETATM    9  C   UNL     1      41.284  -9.267  13.756  1.00  0.00     0.041 C 
HETATM   10  O   UNL     1      42.608  -9.768  11.852  1.00  0.00    -0.338 OA
HETATM   11  C   UNL     1      43.226  -9.430  10.681  1.00  0.00     0.077 A 
HETATM   12  C   UNL     1      42.460  -9.038   9.580  1.00  0.00     0.001 A 
HETATM   13  C   UNL     1      40.965  -9.041   9.656  1.00  0.00     0.276 C 
HETATM   14  C   UNL     1      44.610  -9.549  10.592  1.00  0.00     0.037 A 
HETATM   15  C   UNL     1      45.254  -9.213   9.403  1.00  0.00     0.003 A 
HETATM   16  C   UNL     1      44.511  -8.787   8.304  1.00  0.00     0.001 A 
HETATM   17  C   UNL     1      43.119  -8.710   8.386  1.00  0.00     0.012 A 
ENDROOT
BRANCH   1  18
HETATM   18  C   UNL     1      39.212  -7.384  10.393  1.00  0.00     0.276 C 
BRANCH  18  19
HETATM   19  C   UNL     1      38.519  -6.674  11.495  1.00  0.00     0.004 A 
HETATM   20  C   UNL     1      37.999  -7.253  12.677  1.00  0.00     0.149 A 
HETATM   21  N   UNL     1      37.486  -6.349  13.505  1.00  0.00    -0.185 NA
HETATM   22  N   UNL     1      37.587  -5.190  12.835  1.00  0.00    -0.285 N 
HETATM   23  C   UNL     1      37.052  -3.975  13.405  1.00  0.00     0.179 C 
HETATM   24  C   UNL     1      38.219  -5.331  11.628  1.00  0.00     0.122 A 
ENDBRANCH  18  19
ENDBRANCH   1  18
BRANCH   7  25
HETATM   25  C   UNL     1      41.888  -6.698  16.677  1.00  0.00     0.238 C 
BRANCH  25  26
HETATM   26  N   UNL     1      41.643  -7.360  18.016  1.00  0.00    -0.078 N 
HETATM   27  H   UNL     1      41.791  -8.372  17.928  1.00  0.00     0.278 HD
HETATM   28  C   UNL     1      42.554  -6.873  19.116  1.00  0.00     0.269 C 
HETATM   29  C   UNL     1      40.196  -7.201  18.436  1.00  0.00     0.269 C 
ENDBRANCH  25  26
ENDBRANCH   7  25
TORSDOF 4
ENDMDL
MODEL 10
REMARK VINA RESULT:      -7.3      2.138      5.580
REMARK  4 active torsions:
REMARK  status: ('A' for Active; 'I' for Inactive)
REMARK    1  A    between atoms: C_5  and  C_6 
REMARK    2  A    between atoms: C_6  and  N_7 
REMARK    3  A    between atoms: C_13  and  C_14 
REMARK    4  A    between atoms: C_14  and  N_15 
ROOT
HETATM    1  N   UNL     1      40.693 -14.943   1.753  1.00  0.00    -0.060 N 
HETATM    2  H   UNL     1      39.794 -14.760   2.208  1.00  0.00     0.280 HD
HETATM    3  C   UNL     1      41.744 -14.111   2.480  1.00  0.00     0.274 C 
HETATM    4  C   UNL     1      41.587 -14.157   4.035  1.00  0.00     0.092 C 
HETATM    5  C   UNL     1      42.854 -13.608   4.737  1.00  0.00     0.041 C 
HETATM    6  C   UNL     1      43.033 -12.095   4.614  1.00  0.00     0.009 C 
HETATM    7  C   UNL     1      41.817 -11.327   5.160  1.00  0.00     0.012 C 
HETATM    8  C   UNL     1      40.553 -11.797   4.424  1.00  0.00     0.009 C 
HETATM    9  C   UNL     1      40.372 -13.318   4.513  1.00  0.00     0.041 C 
HETATM   10  O   UNL     1      41.310 -15.497   4.521  1.00  0.00    -0.338 OA
HETATM   11  C   UNL     1      42.156 -16.455   4.037  1.00  0.00     0.077 A 
HETATM   12  C   UNL     1      41.989 -16.937   2.737  1.00  0.00     0.001 A 
HETATM   13  C   UNL     1      40.853 -16.455   1.889  1.00  0.00     0.276 C 
HETATM   14  C   UNL     1      43.131 -16.978   4.882  1.00  0.00     0.037 A 
HETATM   15  C   UNL     1      43.998 -17.960   4.406  1.00  0.00     0.003 A 
HETATM   16  C   UNL     1      43.869 -18.430   3.100  1.00  0.00     0.001 A 
HETATM   17  C   UNL     1      42.862 -17.931   2.271  1.00  0.00     0.012 A 
ENDROOT
BRANCH   1  18
HETATM   18  C   UNL     1      40.503 -14.521   0.308  1.00  0.00     0.276 C 
BRANCH  18  19
HETATM   19  C   UNL     1      40.189 -13.085   0.115  1.00  0.00     0.004 A 
HETATM   20  C   UNL     1      40.934 -12.151  -0.643  1.00  0.00     0.149 A 
HETATM   21  N   UNL     1      40.365 -10.951  -0.676  1.00  0.00    -0.185 NA
HETATM   22  N   UNL     1      39.297 -11.067   0.129  1.00  0.00    -0.285 N 
HETATM   23  C   UNL     1      38.466  -9.916   0.400  1.00  0.00     0.179 C 
HETATM   24  C   UNL     1      39.138 -12.337   0.615  1.00  0.00     0.122 A 
ENDBRANCH  18  19
ENDBRANCH   1  18
BRANCH   7  25
HETATM   25  C   UNL     1      42.074  -9.808   5.045  1.00  0.00     0.238 C 
BRANCH  25  26
HETATM   26  N   UNL     1      40.821  -8.970   5.182  1.00  0.00    -0.078 N 
HETATM   27  H   UNL     1      40.023  -9.484   4.792  1.00  0.00     0.278 HD
HETATM   28  C   UNL     1      40.469  -8.621   6.608  1.00  0.00     0.269 C 
HETATM   29  C   UNL     1      40.928  -7.706   4.353  1.00  0.00     0.269 C 
ENDBRANCH  25  26
ENDBRANCH   7  25
TORSDOF 4
ENDMDL
