MODEL 1
REMARK VINA RESULT:      -8.9      0.000      0.000
REMARK  2 active torsions:
REMARK  status: ('A' for Active; 'I' for Inactive)
REMARK    1  A    between atoms: N_2  and  C_3 
REMARK       I    between atoms: N_4  and  C_5 
REMARK       I    between atoms: C_5  and  N_6 
REMARK    2  A    between atoms: C_9  and  C_10 
ROOT
HETATM    1  C   UNL     1      43.068 -16.341   6.904  1.00  0.00     0.703 A 
HETATM    2  N   UNL     1      43.097 -15.567   5.746  1.00  0.00    -0.141 N 
HETATM    3  C   UNL     1      43.046 -14.175   5.704  1.00  0.00     0.188 C 
HETATM    4  N   UNL     1      42.453 -13.565   6.762  1.00  0.00    -0.272 NA
HETATM    5  N   UNL     1      43.508 -13.441   4.741  1.00  0.00    -0.273 NA
HETATM    6  H   UNL     1      43.276 -12.467   4.948  1.00  0.00     0.189 HD
HETATM    7  C   UNL     1      43.290 -16.210   4.414  1.00  0.00     0.179 A 
HETATM    8  C   UNL     1      43.546 -17.711   4.444  1.00  0.00    -0.001 A 
HETATM    9  C   UNL     1      43.526 -18.388   5.659  1.00  0.00     0.058 A 
HETATM   10  N   UNL     1      43.255 -17.685   6.827  1.00  0.00    -0.190 N 
HETATM   11  C   UNL     1      43.791 -18.433   3.258  1.00  0.00     0.035 A 
HETATM   12  C   UNL     1      43.990 -19.811   3.297  1.00  0.00     0.034 A 
HETATM   13 CL   UNL     1      44.250 -20.684   1.838  1.00  0.00    -0.084 Cl
HETATM   14  C   UNL     1      43.970 -20.485   4.512  1.00  0.00     0.026 A 
HETATM   15  C   UNL     1      43.740 -19.773   5.690  1.00  0.00     0.032 A 
HETATM   16  H   UNL     1      42.473 -14.170   7.592  1.00  0.00     0.127 HD
HETATM   17  H   UNL     1      42.784 -12.637   6.981  1.00  0.00     0.127 HD
HETATM   18  H   UNL     1      43.310 -18.215   7.684  1.00  0.00     0.184 HD
ENDROOT
BRANCH   1  19
HETATM   19  N   UNL     1      42.903 -15.811   8.088  1.00  0.00    -0.117 NA
HETATM   20  H   UNL     1      41.911 -15.620   8.243  1.00  0.00     0.206 HD
ENDBRANCH   1  19
BRANCH   7  21
HETATM   21  C   UNL     1      42.113 -15.897   3.474  1.00  0.00    -0.030 A 
HETATM   22  C   UNL     1      42.366 -15.391   2.185  1.00  0.00     0.009 A 
HETATM   23  C   UNL     1      41.317 -15.128   1.302  1.00  0.00     0.001 A 
HETATM   24  C   UNL     1      40.003 -15.365   1.696  1.00  0.00     0.000 A 
HETATM   25  C   UNL     1      39.735 -15.857   2.973  1.00  0.00     0.001 A 
HETATM   26  C   UNL     1      40.782 -16.121   3.860  1.00  0.00     0.009 A 
ENDBRANCH   7  21
TORSDOF 2
ENDMDL
MODEL 2
REMARK VINA RESULT:      -8.2      2.643      4.606
REMARK  2 active torsions:
REMARK  status: ('A' for Active; 'I' for Inactive)
REMARK    1  A    between atoms: N_2  and  C_3 
REMARK       I    between atoms: N_4  and  C_5 
REMARK       I    between atoms: C_5  and  N_6 
REMARK    2  A    between atoms: C_9  and  C_10 
ROOT
HETATM    1  C   UNL     1      39.829 -14.014   3.229  1.00  0.00     0.703 A 
HETATM    2  N   UNL     1      40.329 -13.681   4.486  1.00  0.00    -0.141 N 
HETATM    3  C   UNL     1      39.778 -12.734   5.349  1.00  0.00     0.188 C 
HETATM    4  N   UNL     1      39.041 -11.753   4.769  1.00  0.00    -0.272 NA
HETATM    5  N   UNL     1      39.927 -12.722   6.636  1.00  0.00    -0.273 NA
HETATM    6  H   UNL     1      39.470 -11.883   6.999  1.00  0.00     0.189 HD
HETATM    7  C   UNL     1      41.489 -14.423   5.058  1.00  0.00     0.179 A 
HETATM    8  C   UNL     1      41.990 -15.596   4.224  1.00  0.00    -0.001 A 
HETATM    9  C   UNL     1      41.402 -15.863   2.992  1.00  0.00     0.058 A 
HETATM   10  N   UNL     1      40.376 -15.046   2.533  1.00  0.00    -0.190 N 
HETATM   11  C   UNL     1      43.051 -16.408   4.673  1.00  0.00     0.035 A 
HETATM   12  C   UNL     1      43.521 -17.456   3.884  1.00  0.00     0.034 A 
HETATM   13 CL   UNL     1      44.840 -18.416   4.426  1.00  0.00    -0.084 Cl
HETATM   14  C   UNL     1      42.931 -17.722   2.654  1.00  0.00     0.026 A 
HETATM   15  C   UNL     1      41.873 -16.927   2.211  1.00  0.00     0.032 A 
HETATM   16  H   UNL     1      38.684 -12.055   3.854  1.00  0.00     0.127 HD
HETATM   17  H   UNL     1      38.303 -11.360   5.335  1.00  0.00     0.127 HD
HETATM   18  H   UNL     1      39.948 -15.320   1.662  1.00  0.00     0.184 HD
ENDROOT
BRANCH   1  19
HETATM   19  N   UNL     1      38.812 -13.385   2.698  1.00  0.00    -0.117 NA
HETATM   20  H   UNL     1      38.211 -13.018   3.438  1.00  0.00     0.206 HD
ENDBRANCH   1  19
BRANCH   7  21
HETATM   21  C   UNL     1      42.653 -13.469   5.375  1.00  0.00    -0.030 A 
HETATM   22  C   UNL     1      43.100 -12.562   4.395  1.00  0.00     0.009 A 
HETATM   23  C   UNL     1      44.133 -11.665   4.669  1.00  0.00     0.001 A 
HETATM   24  C   UNL     1      44.736 -11.664   5.924  1.00  0.00     0.000 A 
HETATM   25  C   UNL     1      44.312 -12.562   6.903  1.00  0.00     0.001 A 
HETATM   26  C   UNL     1      43.278 -13.462   6.633  1.00  0.00     0.009 A 
ENDBRANCH   7  21
TORSDOF 2
ENDMDL
MODEL 3
REMARK VINA RESULT:      -7.7      3.635      6.584
REMARK  2 active torsions:
REMARK  status: ('A' for Active; 'I' for Inactive)
REMARK    1  A    between atoms: N_2  and  C_3 
REMARK       I    between atoms: N_4  and  C_5 
REMARK       I    between atoms: C_5  and  N_6 
REMARK    2  A    between atoms: C_9  and  C_10 
ROOT
HETATM    1  C   UNL     1      41.634 -11.252   1.628  1.00  0.00     0.703 A 
HETATM    2  N   UNL     1      41.284 -12.396   2.343  1.00  0.00    -0.141 N 
HETATM    3  C   UNL     1      41.396 -12.549   3.724  1.00  0.00     0.188 C 
HETATM    4  N   UNL     1      42.324 -11.774   4.340  1.00  0.00    -0.272 NA
HETATM    5  N   UNL     1      40.695 -13.370   4.442  1.00  0.00    -0.273 NA
HETATM    6  H   UNL     1      41.034 -13.314   5.405  1.00  0.00     0.189 HD
HETATM    7  C   UNL     1      40.647 -13.552   1.651  1.00  0.00     0.179 A 
HETATM    8  C   UNL     1      40.331 -13.339   0.176  1.00  0.00    -0.001 A 
HETATM    9  C   UNL     1      40.696 -12.146  -0.439  1.00  0.00     0.058 A 
HETATM   10  N   UNL     1      41.359 -11.173   0.299  1.00  0.00    -0.190 N 
HETATM   11  C   UNL     1      39.686 -14.337  -0.583  1.00  0.00     0.035 A 
HETATM   12  C   UNL     1      39.434 -14.141  -1.939  1.00  0.00     0.034 A 
HETATM   13 CL   UNL     1      38.681 -15.381  -2.862  1.00  0.00    -0.084 Cl
HETATM   14  C   UNL     1      39.799 -12.948  -2.551  1.00  0.00     0.026 A 
HETATM   15  C   UNL     1      40.428 -11.953  -1.801  1.00  0.00     0.032 A 
HETATM   16  H   UNL     1      42.533 -10.938   3.780  1.00  0.00     0.127 HD
HETATM   17  H   UNL     1      42.130 -11.528   5.299  1.00  0.00     0.127 HD
HETATM   18  H   UNL     1      41.548 -10.306  -0.182  1.00  0.00     0.184 HD
ENDROOT
BRANCH   1  19
HETATM   19  N   UNL     1      42.193 -10.219   2.202  1.00  0.00    -0.117 NA
HETATM   20  H   UNL     1      41.683  -9.369   1.953  1.00  0.00     0.206 HD
ENDBRANCH   1  19
BRANCH   7  21
HETATM   21  C   UNL     1      41.483 -14.832   1.830  1.00  0.00    -0.030 A 
HETATM   22  C   UNL     1      42.851 -14.823   1.502  1.00  0.00     0.009 A 
HETATM   23  C   UNL     1      43.638 -15.961   1.685  1.00  0.00     0.001 A 
HETATM   24  C   UNL     1      43.066 -17.124   2.194  1.00  0.00     0.000 A 
HETATM   25  C   UNL     1      41.709 -17.153   2.514  1.00  0.00     0.001 A 
HETATM   26  C   UNL     1      40.919 -16.015   2.333  1.00  0.00     0.009 A 
ENDBRANCH   7  21
TORSDOF 2
ENDMDL
MODEL 4
REMARK VINA RESULT:      -7.6      2.795      4.793
REMARK  2 active torsions:
REMARK  status: ('A' for Active; 'I' for Inactive)
REMARK    1  A    between atoms: N_2  and  C_3 
REMARK       I    between atoms: N_4  and  C_5 
REMARK       I    between atoms: C_5  and  N_6 
REMARK    2  A    between atoms: C_9  and  C_10 
ROOT
HETATM    1  C   UNL     1      40.233 -14.221   2.012  1.00  0.00     0.703 A 
HETATM    2  N   UNL     1      40.351 -13.825   3.342  1.00  0.00    -0.141 N 
HETATM    3  C   UNL     1      39.582 -12.842   3.963  1.00  0.00     0.188 C 
HETATM    4  N   UNL     1      39.049 -11.895   3.149  1.00  0.00    -0.272 NA
HETATM    5  N   UNL     1      39.353 -12.768   5.236  1.00  0.00    -0.273 NA
HETATM    6  H   UNL     1      38.816 -11.915   5.411  1.00  0.00     0.189 HD
HETATM    7  C   UNL     1      41.292 -14.530   4.259  1.00  0.00     0.179 A 
HETATM    8  C   UNL     1      42.005 -15.737   3.662  1.00  0.00    -0.001 A 
HETATM    9  C   UNL     1      41.795 -16.068   2.327  1.00  0.00     0.058 A 
HETATM   10  N   UNL     1      40.951 -15.281   1.553  1.00  0.00    -0.190 N 
HETATM   11  C   UNL     1      42.886 -16.520   4.436  1.00  0.00     0.035 A 
HETATM   12  C   UNL     1      43.556 -17.601   3.867  1.00  0.00     0.034 A 
HETATM   13 CL   UNL     1      44.656 -18.524   4.812  1.00  0.00    -0.084 Cl
HETATM   14  C   UNL     1      43.344 -17.930   2.534  1.00  0.00     0.026 A 
HETATM   15  C   UNL     1      42.464 -17.165   1.767  1.00  0.00     0.032 A 
HETATM   16  H   UNL     1      38.969 -12.244   2.185  1.00  0.00     0.127 HD
HETATM   17  H   UNL     1      38.183 -11.481   3.458  1.00  0.00     0.127 HD
HETATM   18  H   UNL     1      40.790 -15.600   0.610  1.00  0.00     0.184 HD
ENDROOT
BRANCH   1  19
HETATM   19  N   UNL     1      39.416 -13.626   1.181  1.00  0.00    -0.117 NA
HETATM   20  H   UNL     1      38.674 -14.272   0.908  1.00  0.00     0.206 HD
ENDBRANCH   1  19
BRANCH   7  21
HETATM   21  C   UNL     1      42.322 -13.553   4.852  1.00  0.00    -0.030 A 
HETATM   22  C   UNL     1      42.596 -13.580   6.232  1.00  0.00     0.009 A 
HETATM   23  C   UNL     1      43.549 -12.726   6.789  1.00  0.00     0.001 A 
HETATM   24  C   UNL     1      44.238 -11.832   5.974  1.00  0.00     0.000 A 
HETATM   25  C   UNL     1      43.972 -11.784   4.607  1.00  0.00     0.001 A 
HETATM   26  C   UNL     1      43.019 -12.638   4.045  1.00  0.00     0.009 A 
ENDBRANCH   7  21
TORSDOF 2
ENDMDL
MODEL 5
REMARK VINA RESULT:      -7.5      2.014      3.134
REMARK  2 active torsions:
REMARK  status: ('A' for Active; 'I' for Inactive)
REMARK    1  A    between atoms: N_2  and  C_3 
REMARK       I    between atoms: N_4  and  C_5 
REMARK       I    between atoms: C_5  and  N_6 
REMARK    2  A    between atoms: C_9  and  C_10 
ROOT
HETATM    1  C   UNL     1      42.567 -12.654   6.296  1.00  0.00     0.703 A 
HETATM    2  N   UNL     1      42.801 -12.754   4.926  1.00  0.00    -0.141 N 
HETATM    3  C   UNL     1      42.869 -11.681   4.039  1.00  0.00     0.188 C 
HETATM    4  N   UNL     1      42.201 -10.557   4.406  1.00  0.00    -0.272 NA
HETATM    5  N   UNL     1      43.503 -11.686   2.910  1.00  0.00    -0.273 NA
HETATM    6  H   UNL     1      43.327 -10.793   2.444  1.00  0.00     0.189 HD
HETATM    7  C   UNL     1      43.104 -14.076   4.307  1.00  0.00     0.179 A 
HETATM    8  C   UNL     1      43.233 -15.241   5.281  1.00  0.00    -0.001 A 
HETATM    9  C   UNL     1      43.008 -15.030   6.637  1.00  0.00     0.058 A 
HETATM   10  N   UNL     1      42.653 -13.761   7.081  1.00  0.00    -0.190 N 
HETATM   11  C   UNL     1      43.563 -16.535   4.830  1.00  0.00     0.035 A 
HETATM   12  C   UNL     1      43.644 -17.597   5.728  1.00  0.00     0.034 A 
HETATM   13 CL   UNL     1      44.010 -19.177   5.160  1.00  0.00    -0.084 Cl
HETATM   14  C   UNL     1      43.420 -17.384   7.083  1.00  0.00     0.026 A 
HETATM   15  C   UNL     1      43.104 -16.101   7.535  1.00  0.00     0.032 A 
HETATM   16  H   UNL     1      42.069 -10.526   5.425  1.00  0.00     0.127 HD
HETATM   17  H   UNL     1      42.576  -9.687   4.062  1.00  0.00     0.127 HD
HETATM   18  H   UNL     1      42.559 -13.653   8.080  1.00  0.00     0.184 HD
ENDROOT
BRANCH   1  19
HETATM   19  N   UNL     1      42.300 -11.512   6.873  1.00  0.00    -0.117 NA
HETATM   20  H   UNL     1      42.604 -10.744   6.271  1.00  0.00     0.206 HD
ENDBRANCH   1  19
BRANCH   7  21
HETATM   21  C   UNL     1      42.082 -14.419   3.210  1.00  0.00    -0.030 A 
HETATM   22  C   UNL     1      40.706 -14.360   3.495  1.00  0.00     0.009 A 
HETATM   23  C   UNL     1      39.758 -14.636   2.508  1.00  0.00     0.001 A 
HETATM   24  C   UNL     1      40.175 -14.979   1.224  1.00  0.00     0.000 A 
HETATM   25  C   UNL     1      41.535 -15.052   0.927  1.00  0.00     0.001 A 
HETATM   26  C   UNL     1      42.486 -14.776   1.913  1.00  0.00     0.009 A 
ENDBRANCH   7  21
TORSDOF 2
ENDMDL
MODEL 6
REMARK VINA RESULT:      -7.3     12.958     14.377
REMARK  2 active torsions:
REMARK  status: ('A' for Active; 'I' for Inactive)
REMARK    1  A    between atoms: N_2  and  C_3 
REMARK       I    between atoms: N_4  and  C_5 
REMARK       I    between atoms: C_5  and  N_6 
REMARK    2  A    between atoms: C_9  and  C_10 
ROOT
HETATM    1  C   UNL     1      46.642 -28.545   1.495  1.00  0.00     0.703 A 
HETATM    2  N   UNL     1      46.717 -29.412   0.406  1.00  0.00    -0.141 N 
HETATM    3  C   UNL     1      47.852 -29.636  -0.371  1.00  0.00     0.188 C 
HETATM    4  N   UNL     1      48.767 -28.633  -0.399  1.00  0.00    -0.272 NA
HETATM    5  N   UNL     1      48.085 -30.709  -1.059  1.00  0.00    -0.273 NA
HETATM    6  H   UNL     1      48.955 -30.569  -1.577  1.00  0.00     0.189 HD
HETATM    7  C   UNL     1      45.553 -30.270   0.044  1.00  0.00     0.179 A 
HETATM    8  C   UNL     1      44.363 -30.194   0.994  1.00  0.00    -0.001 A 
HETATM    9  C   UNL     1      44.400 -29.315   2.071  1.00  0.00     0.058 A 
HETATM   10  N   UNL     1      45.516 -28.507   2.256  1.00  0.00    -0.190 N 
HETATM   11  C   UNL     1      43.217 -30.989   0.792  1.00  0.00     0.035 A 
HETATM   12  C   UNL     1      42.124 -30.883   1.649  1.00  0.00     0.034 A 
HETATM   13 CL   UNL     1      40.718 -31.832   1.370  1.00  0.00    -0.084 Cl
HETATM   14  C   UNL     1      42.163 -30.005   2.726  1.00  0.00     0.026 A 
HETATM   15  C   UNL     1      43.301 -29.224   2.935  1.00  0.00     0.032 A 
HETATM   16  H   UNL     1      48.679 -28.034   0.432  1.00  0.00     0.127 HD
HETATM   17  H   UNL     1      49.725 -28.911  -0.547  1.00  0.00     0.127 HD
HETATM   18  H   UNL     1      45.514 -27.932   3.085  1.00  0.00     0.184 HD
ENDROOT
BRANCH   1  19
HETATM   19  N   UNL     1      47.644 -27.779   1.841  1.00  0.00    -0.117 NA
HETATM   20  H   UNL     1      47.380 -26.798   1.734  1.00  0.00     0.206 HD
ENDBRANCH   1  19
BRANCH   7  21
HETATM   21  C   UNL     1      45.092 -29.997  -1.398  1.00  0.00    -0.030 A 
HETATM   22  C   UNL     1      45.005 -28.672  -1.863  1.00  0.00     0.009 A 
HETATM   23  C   UNL     1      44.619 -28.400  -3.177  1.00  0.00     0.001 A 
HETATM   24  C   UNL     1      44.313 -29.448  -4.041  1.00  0.00     0.000 A 
HETATM   25  C   UNL     1      44.385 -30.767  -3.593  1.00  0.00     0.001 A 
HETATM   26  C   UNL     1      44.770 -31.043  -2.278  1.00  0.00     0.009 A 
ENDBRANCH   7  21
TORSDOF 2
ENDMDL
MODEL 7
REMARK VINA RESULT:      -7.1      3.641      6.204
REMARK  2 active torsions:
REMARK  status: ('A' for Active; 'I' for Inactive)
REMARK    1  A    between atoms: N_2  and  C_3 
REMARK       I    between atoms: N_4  and  C_5 
REMARK       I    between atoms: C_5  and  N_6 
REMARK    2  A    between atoms: C_9  and  C_10 
ROOT
HETATM    1  C   UNL     1      39.890 -13.246   3.558  1.00  0.00     0.703 A 
HETATM    2  N   UNL     1      40.857 -14.222   3.324  1.00  0.00    -0.141 N 
HETATM    3  C   UNL     1      40.719 -15.300   2.450  1.00  0.00     0.188 C 
HETATM    4  N   UNL     1      39.449 -15.705   2.193  1.00  0.00    -0.272 NA
HETATM    5  N   UNL     1      41.700 -15.932   1.886  1.00  0.00    -0.273 NA
HETATM    6  H   UNL     1      41.308 -16.711   1.352  1.00  0.00     0.189 HD
HETATM    7  C   UNL     1      42.203 -14.118   3.954  1.00  0.00     0.179 A 
HETATM    8  C   UNL     1      42.452 -12.848   4.759  1.00  0.00    -0.001 A 
HETATM    9  C   UNL     1      41.428 -11.918   4.909  1.00  0.00     0.058 A 
HETATM   10  N   UNL     1      40.188 -12.171   4.336  1.00  0.00    -0.190 N 
HETATM   11  C   UNL     1      43.700 -12.603   5.368  1.00  0.00     0.035 A 
HETATM   12  C   UNL     1      43.902 -11.454   6.129  1.00  0.00     0.034 A 
HETATM   13 CL   UNL     1      45.416 -11.186   6.897  1.00  0.00    -0.084 Cl
HETATM   14  C   UNL     1      42.878 -10.526   6.276  1.00  0.00     0.026 A 
HETATM   15  C   UNL     1      41.644 -10.759   5.666  1.00  0.00     0.032 A 
HETATM   16  H   UNL     1      38.780 -14.944   2.366  1.00  0.00     0.127 HD
HETATM   17  H   UNL     1      39.293 -16.127   1.290  1.00  0.00     0.127 HD
HETATM   18  H   UNL     1      39.501 -11.437   4.427  1.00  0.00     0.184 HD
ENDROOT
BRANCH   1  19
HETATM   19  N   UNL     1      38.700 -13.305   3.021  1.00  0.00    -0.117 NA
HETATM   20  H   UNL     1      38.517 -12.449   2.495  1.00  0.00     0.206 HD
ENDBRANCH   1  19
BRANCH   7  21
HETATM   21  C   UNL     1      42.507 -15.354   4.818  1.00  0.00    -0.030 A 
HETATM   22  C   UNL     1      43.574 -16.203   4.470  1.00  0.00     0.009 A 
HETATM   23  C   UNL     1      43.889 -17.313   5.255  1.00  0.00     0.001 A 
HETATM   24  C   UNL     1      43.141 -17.591   6.396  1.00  0.00     0.000 A 
HETATM   25  C   UNL     1      42.075 -16.765   6.750  1.00  0.00     0.001 A 
HETATM   26  C   UNL     1      41.756 -15.653   5.966  1.00  0.00     0.009 A 
ENDBRANCH   7  21
TORSDOF 2
ENDMDL
MODEL 8
REMARK VINA RESULT:      -7.1      2.846      5.212
REMARK  2 active torsions:
REMARK  status: ('A' for Active; 'I' for Inactive)
REMARK    1  A    between atoms: N_2  and  C_3 
REMARK       I    between atoms: N_4  and  C_5 
REMARK       I    between atoms: C_5  and  N_6 
REMARK    2  A    between atoms: C_9  and  C_10 
ROOT
HETATM    1  C   UNL     1      43.064 -13.305   6.569  1.00  0.00     0.703 A 
HETATM    2  N   UNL     1      42.334 -14.430   6.191  1.00  0.00    -0.141 N 
HETATM    3  C   UNL     1      42.001 -15.494   7.028  1.00  0.00     0.188 C 
HETATM    4  N   UNL     1      42.817 -15.697   8.094  1.00  0.00    -0.272 NA
HETATM    5  N   UNL     1      40.993 -16.291   6.856  1.00  0.00    -0.273 NA
HETATM    6  H   UNL     1      41.032 -17.011   7.581  1.00  0.00     0.189 HD
HETATM    7  C   UNL     1      41.752 -14.527   4.822  1.00  0.00     0.179 A 
HETATM    8  C   UNL     1      41.930 -13.292   3.947  1.00  0.00    -0.001 A 
HETATM    9  C   UNL     1      42.653 -12.207   4.430  1.00  0.00     0.058 A 
HETATM   10  N   UNL     1      43.216 -12.272   5.699  1.00  0.00    -0.190 N 
HETATM   11  C   UNL     1      41.387 -13.235   2.647  1.00  0.00     0.035 A 
HETATM   12  C   UNL     1      41.587 -12.113   1.846  1.00  0.00     0.034 A 
HETATM   13 CL   UNL     1      40.951 -12.072   0.250  1.00  0.00    -0.084 Cl
HETATM   14  C   UNL     1      42.309 -11.030   2.331  1.00  0.00     0.026 A 
HETATM   15  C   UNL     1      42.839 -11.077   3.621  1.00  0.00     0.032 A 
HETATM   16  H   UNL     1      43.318 -14.834   8.340  1.00  0.00     0.127 HD
HETATM   17  H   UNL     1      42.388 -16.113   8.907  1.00  0.00     0.127 HD
HETATM   18  H   UNL     1      43.680 -11.435   6.020  1.00  0.00     0.184 HD
ENDROOT
BRANCH   1  19
HETATM   19  N   UNL     1      43.588 -13.187   7.761  1.00  0.00    -0.117 NA
HETATM   20  H   UNL     1      43.333 -13.997   8.330  1.00  0.00     0.206 HD
ENDBRANCH   1  19
BRANCH   7  21
HETATM   21  C   UNL     1      42.273 -15.772   4.086  1.00  0.00    -0.030 A 
HETATM   22  C   UNL     1      41.482 -16.379   3.093  1.00  0.00     0.009 A 
HETATM   23  C   UNL     1      41.946 -17.491   2.389  1.00  0.00     0.001 A 
HETATM   24  C   UNL     1      43.206 -18.013   2.670  1.00  0.00     0.000 A 
HETATM   25  C   UNL     1      43.999 -17.430   3.658  1.00  0.00     0.001 A 
HETATM   26  C   UNL     1      43.538 -16.317   4.365  1.00  0.00     0.009 A 
ENDBRANCH   7  21
TORSDOF 2
ENDMDL
MODEL 9
REMARK VINA RESULT:      -7.0     13.327     16.023
REMARK  2 active torsions:
REMARK  status: ('A' for Active; 'I' for Inactive)
REMARK    1  A    between atoms: N_2  and  C_3 
REMARK       I    between atoms: N_4  and  C_5 
REMARK       I    between atoms: C_5  and  N_6 
REMARK    2  A    between atoms: C_9  and  C_10 
ROOT
HETATM    1  C   UNL     1      47.460 -28.363   0.365  1.00  0.00     0.703 A 
HETATM    2  N   UNL     1      47.932 -29.671   0.272  1.00  0.00    -0.141 N 
HETATM    3  C   UNL     1      48.613 -30.357   1.276  1.00  0.00     0.188 C 
HETATM    4  N   UNL     1      49.280 -29.591   2.178  1.00  0.00    -0.272 NA
HETATM    5  N   UNL     1      48.661 -31.645   1.399  1.00  0.00    -0.273 NA
HETATM    6  H   UNL     1      49.281 -31.866   2.181  1.00  0.00     0.189 HD
HETATM    7  C   UNL     1      47.639 -30.494  -0.936  1.00  0.00     0.179 A 
HETATM    8  C   UNL     1      46.727 -29.840  -1.968  1.00  0.00    -0.001 A 
HETATM    9  C   UNL     1      46.285 -28.537  -1.766  1.00  0.00     0.058 A 
HETATM   10  N   UNL     1      46.695 -27.845  -0.633  1.00  0.00    -0.190 N 
HETATM   11  C   UNL     1      46.334 -30.529  -3.133  1.00  0.00     0.035 A 
HETATM   12  C   UNL     1      45.529 -29.906  -4.084  1.00  0.00     0.034 A 
HETATM   13 CL   UNL     1      45.088 -30.744  -5.519  1.00  0.00    -0.084 Cl
HETATM   14  C   UNL     1      45.087 -28.604  -3.880  1.00  0.00     0.026 A 
HETATM   15  C   UNL     1      45.465 -27.923  -2.722  1.00  0.00     0.032 A 
HETATM   16  H   UNL     1      48.882 -28.644   2.219  1.00  0.00     0.127 HD
HETATM   17  H   UNL     1      49.381 -29.983   3.102  1.00  0.00     0.127 HD
HETATM   18  H   UNL     1      46.299 -26.926  -0.508  1.00  0.00     0.184 HD
ENDROOT
BRANCH   1  19
HETATM   19  N   UNL     1      47.697 -27.613   1.410  1.00  0.00    -0.117 NA
HETATM   20  H   UNL     1      48.476 -26.983   1.211  1.00  0.00     0.206 HD
ENDBRANCH   1  19
BRANCH   7  21
HETATM   21  C   UNL     1      48.937 -30.970  -1.609  1.00  0.00    -0.030 A 
HETATM   22  C   UNL     1      49.985 -30.057  -1.830  1.00  0.00     0.009 A 
HETATM   23  C   UNL     1      51.184 -30.471  -2.410  1.00  0.00     0.001 A 
HETATM   24  C   UNL     1      51.352 -31.803  -2.780  1.00  0.00     0.000 A 
HETATM   25  C   UNL     1      50.320 -32.719  -2.578  1.00  0.00     0.001 A 
HETATM   26  C   UNL     1      49.118 -32.308  -1.997  1.00  0.00     0.009 A 
ENDBRANCH   7  21
TORSDOF 2
ENDMDL
MODEL 10
REMARK VINA RESULT:      -6.8      9.138     11.050
REMARK  2 active torsions:
REMARK  status: ('A' for Active; 'I' for Inactive)
REMARK    1  A    between atoms: N_2  and  C_3 
REMARK       I    between atoms: N_4  and  C_5 
REMARK       I    between atoms: C_5  and  N_6 
REMARK    2  A    between atoms: C_9  and  C_10 
ROOT
HETATM    1  C   UNL     1      39.364 -10.104  10.112  1.00  0.00     0.703 A 
HETATM    2  N   UNL     1      40.215  -9.269   9.390  1.00  0.00    -0.141 N 
HETATM    3  C   UNL     1      40.142  -9.034   8.018  1.00  0.00     0.188 C 
HETATM    4  N   UNL     1      39.560 -10.009   7.273  1.00  0.00    -0.272 NA
HETATM    5  N   UNL     1      40.589  -7.977   7.418  1.00  0.00    -0.273 NA
HETATM    6  H   UNL     1      40.457  -8.105   6.412  1.00  0.00     0.189 HD
HETATM    7  C   UNL     1      41.252  -8.460  10.092  1.00  0.00     0.179 A 
HETATM    8  C   UNL     1      41.229  -8.544  11.613  1.00  0.00    -0.001 A 
HETATM    9  C   UNL     1      40.318  -9.387  12.240  1.00  0.00     0.058 A 
HETATM   10  N   UNL     1      39.453 -10.154  11.468  1.00  0.00    -0.190 N 
HETATM   11  C   UNL     1      42.125  -7.791  12.398  1.00  0.00     0.035 A 
HETATM   12  C   UNL     1      42.115  -7.904  13.787  1.00  0.00     0.034 A 
HETATM   13 CL   UNL     1      43.239  -7.009  14.731  1.00  0.00    -0.084 Cl
HETATM   14  C   UNL     1      41.203  -8.747  14.412  1.00  0.00     0.026 A 
HETATM   15  C   UNL     1      40.306  -9.485  13.638  1.00  0.00     0.032 A 
HETATM   16  H   UNL     1      38.932 -10.584   7.849  1.00  0.00     0.127 HD
HETATM   17  H   UNL     1      39.101  -9.706   6.428  1.00  0.00     0.127 HD
HETATM   18  H   UNL     1      38.775 -10.702  11.976  1.00  0.00     0.184 HD
ENDROOT
BRANCH   1  19
HETATM   19  N   UNL     1      38.443 -10.827   9.530  1.00  0.00    -0.117 NA
HETATM   20  H   UNL     1      38.075 -10.325   8.720  1.00  0.00     0.206 HD
ENDBRANCH   1  19
BRANCH   7  21
HETATM   21  C   UNL     1      42.660  -8.792   9.569  1.00  0.00    -0.030 A 
HETATM   22  C   UNL     1      43.482  -7.762   9.077  1.00  0.00     0.009 A 
HETATM   23  C   UNL     1      44.775  -8.032   8.626  1.00  0.00     0.001 A 
HETATM   24  C   UNL     1      45.262  -9.337   8.659  1.00  0.00     0.000 A 
HETATM   25  C   UNL     1      44.456 -10.371   9.135  1.00  0.00     0.001 A 
HETATM   26  C   UNL     1      43.161 -10.103   9.587  1.00  0.00     0.009 A 
ENDBRANCH   7  21
TORSDOF 2
ENDMDL
