MODEL 1
REMARK VINA RESULT:     -10.1      0.000      0.000
REMARK  3 active torsions:
REMARK  status: ('A' for Active; 'I' for Inactive)
REMARK    1  A    between atoms: N_9  and  C_10 
REMARK    2  A    between atoms: C_10  and  C_11 
REMARK    3  A    between atoms: C_11  and  C_12 
REMARK       I    between atoms: C_12  and  N_13 
ROOT
HETATM    1  C   UNL     1      42.137 -13.355   5.006  1.00  0.00     0.221 C 
HETATM    2  N   UNL     1      42.845 -12.531   5.888  1.00  0.00    -0.352 N 
HETATM    3  C   UNL     1      44.163 -12.874   6.422  1.00  0.00     0.129 C 
HETATM    4  C   UNL     1      44.986 -11.637   6.758  1.00  0.00     0.068 C 
HETATM    5  C   UNL     1      44.225 -10.643   7.648  1.00  0.00     0.094 C 
HETATM    6  N   UNL     1      45.023  -9.442   7.778  1.00  0.00    -0.334 N 
HETATM    7  C   UNL     1      44.813  -8.510   8.760  1.00  0.00     0.255 C 
HETATM    8  O   UNL     1      45.207  -7.357   8.638  1.00  0.00    -0.268 OA
HETATM    9  C   UNL     1      44.117  -8.985   9.969  1.00  0.00     0.053 A 
HETATM   10  C   UNL     1      43.760 -10.336  10.027  1.00  0.00     0.026 A 
HETATM   11  N   UNL     1      44.075 -11.220   8.985  1.00  0.00    -0.265 NA
HETATM   12  C   UNL     1      43.857  -8.112  11.030  1.00  0.00     0.019 A 
HETATM   13  C   UNL     1      43.255  -8.601  12.187  1.00  0.00     0.001 A 
HETATM   14  C   UNL     1      42.936  -9.955  12.282  1.00  0.00     0.002 A 
HETATM   15  C   UNL     1      43.202 -10.819  11.215  1.00  0.00     0.024 A 
HETATM   16  C   UNL     1      42.865 -10.316   7.010  1.00  0.00     0.068 C 
HETATM   17  C   UNL     1      42.069 -11.565   6.662  1.00  0.00     0.129 C 
HETATM   18  O   UNL     1      40.947 -13.171   4.754  1.00  0.00    -0.273 OA
HETATM   19  H   UNL     1      45.434  -9.043   6.945  1.00  0.00     0.164 HD
HETATM   20  H   UNL     1      43.511 -12.063   9.020  1.00  0.00     0.130 HD
ENDROOT
BRANCH   1  21
HETATM   21  C   UNL     1      42.901 -14.494   4.363  1.00  0.00     0.123 C 
BRANCH  21  22
HETATM   22  C   UNL     1      41.996 -15.695   4.114  1.00  0.00     0.138 C 
BRANCH  22  23
HETATM   23  N   UNL     1      42.576 -16.917   4.660  1.00  0.00    -0.349 N 
HETATM   24  C   UNL     1      43.019 -17.973   3.884  1.00  0.00     0.045 A 
HETATM   25  C   UNL     1      43.484 -18.955   4.761  1.00  0.00    -0.001 A 
HETATM   26  C   UNL     1      43.049 -18.148   2.490  1.00  0.00     0.030 A 
HETATM   27  C   UNL     1      43.312 -18.463   6.092  1.00  0.00    -0.027 A 
HETATM   28  C   UNL     1      43.998 -20.154   4.220  1.00  0.00     0.014 A 
HETATM   29  C   UNL     1      43.677 -19.172   7.350  1.00  0.00     0.051 C 
HETATM   30  C   UNL     1      42.744 -17.201   6.000  1.00  0.00     0.015 A 
HETATM   31  C   UNL     1      42.371 -16.254   7.089  1.00  0.00     0.069 C 
HETATM   32  C   UNL     1      44.035 -20.335   2.833  1.00  0.00     0.001 A 
HETATM   33  C   UNL     1      43.566 -19.343   1.981  1.00  0.00     0.002 A 
ENDBRANCH  22  23
ENDBRANCH  21  22
ENDBRANCH   1  21
TORSDOF 3
ENDMDL
MODEL 2
REMARK VINA RESULT:     -10.0      6.120      9.245
REMARK  3 active torsions:
REMARK  status: ('A' for Active; 'I' for Inactive)
REMARK    1  A    between atoms: N_9  and  C_10 
REMARK    2  A    between atoms: C_10  and  C_11 
REMARK    3  A    between atoms: C_11  and  C_12 
REMARK       I    between atoms: C_12  and  N_13 
ROOT
HETATM    1  C   UNL     1      40.513 -14.372   2.098  1.00  0.00     0.221 C 
HETATM    2  N   UNL     1      39.998 -13.880   0.895  1.00  0.00    -0.352 N 
HETATM    3  C   UNL     1      40.193 -14.547  -0.394  1.00  0.00     0.129 C 
HETATM    4  C   UNL     1      39.056 -14.261  -1.366  1.00  0.00     0.068 C 
HETATM    5  C   UNL     1      38.764 -12.759  -1.512  1.00  0.00     0.094 C 
HETATM    6  N   UNL     1      37.576 -12.601  -2.325  1.00  0.00    -0.334 N 
HETATM    7  C   UNL     1      37.240 -11.420  -2.931  1.00  0.00     0.255 C 
HETATM    8  O   UNL     1      36.088 -11.185  -3.273  1.00  0.00    -0.268 OA
HETATM    9  C   UNL     1      38.345 -10.473  -3.169  1.00  0.00     0.053 A 
HETATM   10  C   UNL     1      39.632 -10.866  -2.790  1.00  0.00     0.026 A 
HETATM   11  N   UNL     1      39.875 -12.127  -2.226  1.00  0.00    -0.265 NA
HETATM   12  C   UNL     1      38.106  -9.240  -3.785  1.00  0.00     0.019 A 
HETATM   13  C   UNL     1      39.177  -8.392  -4.056  1.00  0.00     0.001 A 
HETATM   14  C   UNL     1      40.474  -8.787  -3.728  1.00  0.00     0.002 A 
HETATM   15  C   UNL     1      40.700 -10.023  -3.114  1.00  0.00     0.024 A 
HETATM   16  C   UNL     1      38.550 -12.138  -0.123  1.00  0.00     0.068 C 
HETATM   17  C   UNL     1      39.685 -12.454   0.839  1.00  0.00     0.129 C 
HETATM   18  O   UNL     1      40.545 -13.690   3.122  1.00  0.00    -0.273 OA
HETATM   19  H   UNL     1      36.770 -13.175  -2.119  1.00  0.00     0.164 HD
HETATM   20  H   UNL     1      40.764 -12.159  -1.736  1.00  0.00     0.130 HD
ENDROOT
BRANCH   1  21
HETATM   21  C   UNL     1      41.035 -15.794   2.094  1.00  0.00     0.123 C 
BRANCH  21  22
HETATM   22  C   UNL     1      42.560 -15.823   2.111  1.00  0.00     0.138 C 
BRANCH  22  23
HETATM   23  N   UNL     1      43.062 -16.577   3.254  1.00  0.00    -0.349 N 
HETATM   24  C   UNL     1      43.313 -17.937   3.230  1.00  0.00     0.045 A 
HETATM   25  C   UNL     1      43.760 -18.291   4.505  1.00  0.00    -0.001 A 
HETATM   26  C   UNL     1      43.183 -18.884   2.199  1.00  0.00     0.030 A 
HETATM   27  C   UNL     1      43.775 -17.105   5.303  1.00  0.00    -0.027 A 
HETATM   28  C   UNL     1      44.089 -19.642   4.753  1.00  0.00     0.014 A 
HETATM   29  C   UNL     1      44.190 -17.005   6.730  1.00  0.00     0.051 C 
HETATM   30  C   UNL     1      43.334 -16.059   4.504  1.00  0.00     0.015 A 
HETATM   31  C   UNL     1      43.173 -14.617   4.844  1.00  0.00     0.069 C 
HETATM   32  C   UNL     1      43.967 -20.590   3.732  1.00  0.00     0.001 A 
HETATM   33  C   UNL     1      43.519 -20.213   2.472  1.00  0.00     0.002 A 
ENDBRANCH  22  23
ENDBRANCH  21  22
ENDBRANCH   1  21
TORSDOF 3
ENDMDL
MODEL 3
REMARK VINA RESULT:     -10.0      5.245      9.217
REMARK  3 active torsions:
REMARK  status: ('A' for Active; 'I' for Inactive)
REMARK    1  A    between atoms: N_9  and  C_10 
REMARK    2  A    between atoms: C_10  and  C_11 
REMARK    3  A    between atoms: C_11  and  C_12 
REMARK       I    between atoms: C_12  and  N_13 
ROOT
HETATM    1  C   UNL     1      40.091 -13.354   2.520  1.00  0.00     0.221 C 
HETATM    2  N   UNL     1      41.021 -14.201   3.131  1.00  0.00    -0.352 N 
HETATM    3  C   UNL     1      42.464 -13.958   3.110  1.00  0.00     0.129 C 
HETATM    4  C   UNL     1      43.164 -14.550   4.326  1.00  0.00     0.068 C 
HETATM    5  C   UNL     1      42.814 -16.029   4.549  1.00  0.00     0.094 C 
HETATM    6  N   UNL     1      43.397 -16.452   5.805  1.00  0.00    -0.334 N 
HETATM    7  C   UNL     1      43.574 -17.768   6.139  1.00  0.00     0.255 C 
HETATM    8  O   UNL     1      43.691 -18.119   7.306  1.00  0.00    -0.268 OA
HETATM    9  C   UNL     1      43.642 -18.721   5.016  1.00  0.00     0.053 A 
HETATM   10  C   UNL     1      43.553 -18.205   3.719  1.00  0.00     0.026 A 
HETATM   11  N   UNL     1      43.429 -16.828   3.487  1.00  0.00    -0.265 NA
HETATM   12  C   UNL     1      43.824 -20.088   5.251  1.00  0.00     0.019 A 
HETATM   13  C   UNL     1      43.949 -20.957   4.170  1.00  0.00     0.001 A 
HETATM   14  C   UNL     1      43.910 -20.455   2.869  1.00  0.00     0.002 A 
HETATM   15  C   UNL     1      43.729 -19.086   2.647  1.00  0.00     0.024 A 
HETATM   16  C   UNL     1      41.287 -16.199   4.582  1.00  0.00     0.068 C 
HETATM   17  C   UNL     1      40.605 -15.581   3.370  1.00  0.00     0.129 C 
HETATM   18  O   UNL     1      38.920 -13.688   2.343  1.00  0.00    -0.273 OA
HETATM   19  H   UNL     1      43.281 -15.859   6.615  1.00  0.00     0.164 HD
HETATM   20  H   UNL     1      43.079 -16.631   2.555  1.00  0.00     0.130 HD
ENDROOT
BRANCH   1  21
HETATM   21  C   UNL     1      40.586 -11.991   2.079  1.00  0.00     0.123 C 
BRANCH  21  22
HETATM   22  C   UNL     1      40.941 -11.986   0.596  1.00  0.00     0.138 C 
BRANCH  22  23
HETATM   23  N   UNL     1      39.748 -11.858  -0.233  1.00  0.00    -0.349 N 
HETATM   24  C   UNL     1      39.287 -12.851  -1.079  1.00  0.00     0.045 A 
HETATM   25  C   UNL     1      38.146 -12.352  -1.709  1.00  0.00    -0.001 A 
HETATM   26  C   UNL     1      39.777 -14.142  -1.344  1.00  0.00     0.030 A 
HETATM   27  C   UNL     1      37.926 -11.026  -1.219  1.00  0.00    -0.027 A 
HETATM   28  C   UNL     1      37.471 -13.176  -2.636  1.00  0.00     0.014 A 
HETATM   29  C   UNL     1      36.816 -10.113  -1.609  1.00  0.00     0.051 C 
HETATM   30  C   UNL     1      38.936 -10.745  -0.310  1.00  0.00     0.015 A 
HETATM   31  C   UNL     1      39.164  -9.509   0.491  1.00  0.00     0.069 C 
HETATM   32  C   UNL     1      37.950 -14.463  -2.903  1.00  0.00     0.001 A 
HETATM   33  C   UNL     1      39.089 -14.938  -2.264  1.00  0.00     0.002 A 
ENDBRANCH  22  23
ENDBRANCH  21  22
ENDBRANCH   1  21
TORSDOF 3
ENDMDL
MODEL 4
REMARK VINA RESULT:      -9.7      2.308      9.222
REMARK  3 active torsions:
REMARK  status: ('A' for Active; 'I' for Inactive)
REMARK    1  A    between atoms: N_9  and  C_10 
REMARK    2  A    between atoms: C_10  and  C_11 
REMARK    3  A    between atoms: C_11  and  C_12 
REMARK       I    between atoms: C_12  and  N_13 
ROOT
HETATM    1  C   UNL     1      41.320 -10.123   6.006  1.00  0.00     0.221 C 
HETATM    2  N   UNL     1      41.057 -11.394   5.485  1.00  0.00    -0.352 N 
HETATM    3  C   UNL     1      40.167 -12.358   6.134  1.00  0.00     0.129 C 
HETATM    4  C   UNL     1      39.520 -13.307   5.133  1.00  0.00     0.068 C 
HETATM    5  C   UNL     1      40.544 -13.976   4.203  1.00  0.00     0.094 C 
HETATM    6  N   UNL     1      39.824 -14.727   3.196  1.00  0.00    -0.334 N 
HETATM    7  C   UNL     1      40.409 -15.703   2.435  1.00  0.00     0.255 C 
HETATM    8  O   UNL     1      39.931 -16.046   1.361  1.00  0.00    -0.268 OA
HETATM    9  C   UNL     1      41.620 -16.328   2.997  1.00  0.00     0.053 A 
HETATM   10  C   UNL     1      42.048 -15.900   4.258  1.00  0.00     0.026 A 
HETATM   11  N   UNL     1      41.339 -14.928   4.979  1.00  0.00    -0.265 NA
HETATM   12  C   UNL     1      42.290 -17.338   2.299  1.00  0.00     0.019 A 
HETATM   13  C   UNL     1      43.394 -17.956   2.883  1.00  0.00     0.001 A 
HETATM   14  C   UNL     1      43.806 -17.576   4.159  1.00  0.00     0.002 A 
HETATM   15  C   UNL     1      43.128 -16.565   4.848  1.00  0.00     0.024 A 
HETATM   16  C   UNL     1      41.422 -12.900   3.545  1.00  0.00     0.068 C 
HETATM   17  C   UNL     1      42.041 -11.950   4.560  1.00  0.00     0.129 C 
HETATM   18  O   UNL     1      42.239  -9.422   5.584  1.00  0.00    -0.273 OA
HETATM   19  H   UNL     1      39.047 -14.283   2.727  1.00  0.00     0.164 HD
HETATM   20  H   UNL     1      41.907 -14.508   5.709  1.00  0.00     0.130 HD
ENDROOT
BRANCH   1  21
HETATM   21  C   UNL     1      40.418  -9.635   7.121  1.00  0.00     0.123 C 
BRANCH  21  22
HETATM   22  C   UNL     1      41.048  -8.464   7.867  1.00  0.00     0.138 C 
BRANCH  22  23
HETATM   23  N   UNL     1      41.669  -8.901   9.112  1.00  0.00    -0.349 N 
HETATM   24  C   UNL     1      43.030  -9.093   9.268  1.00  0.00     0.045 A 
HETATM   25  C   UNL     1      43.233  -9.526  10.579  1.00  0.00    -0.001 A 
HETATM   26  C   UNL     1      44.097  -8.924   8.368  1.00  0.00     0.030 A 
HETATM   27  C   UNL     1      41.955  -9.588  11.217  1.00  0.00    -0.027 A 
HETATM   28  C   UNL     1      44.552  -9.798  11.004  1.00  0.00     0.014 A 
HETATM   29  C   UNL     1      41.688  -9.994  12.625  1.00  0.00     0.051 C 
HETATM   30  C   UNL     1      41.004  -9.200  10.283  1.00  0.00     0.015 A 
HETATM   31  C   UNL     1      39.527  -9.082  10.437  1.00  0.00     0.069 C 
HETATM   32  C   UNL     1      45.620  -9.630  10.116  1.00  0.00     0.001 A 
HETATM   33  C   UNL     1      45.393  -9.199   8.815  1.00  0.00     0.002 A 
ENDBRANCH  22  23
ENDBRANCH  21  22
ENDBRANCH   1  21
TORSDOF 3
ENDMDL
MODEL 5
REMARK VINA RESULT:      -9.7      2.352      8.818
REMARK  3 active torsions:
REMARK  status: ('A' for Active; 'I' for Inactive)
REMARK    1  A    between atoms: N_9  and  C_10 
REMARK    2  A    between atoms: C_10  and  C_11 
REMARK    3  A    between atoms: C_11  and  C_12 
REMARK       I    between atoms: C_12  and  N_13 
ROOT
HETATM    1  C   UNL     1      40.544 -10.384   6.613  1.00  0.00     0.221 C 
HETATM    2  N   UNL     1      41.392 -11.455   6.310  1.00  0.00    -0.352 N 
HETATM    3  C   UNL     1      42.813 -11.290   6.003  1.00  0.00     0.129 C 
HETATM    4  C   UNL     1      43.627 -12.522   6.375  1.00  0.00     0.068 C 
HETATM    5  C   UNL     1      43.040 -13.818   5.794  1.00  0.00     0.094 C 
HETATM    6  N   UNL     1      43.786 -14.938   6.330  1.00  0.00    -0.334 N 
HETATM    7  C   UNL     1      43.759 -16.187   5.770  1.00  0.00     0.255 C 
HETATM    8  O   UNL     1      44.056 -17.182   6.418  1.00  0.00    -0.268 OA
HETATM    9  C   UNL     1      43.382 -16.254   4.346  1.00  0.00     0.053 A 
HETATM   10  C   UNL     1      43.117 -15.050   3.685  1.00  0.00     0.026 A 
HETATM   11  N   UNL     1      43.230 -13.816   4.343  1.00  0.00    -0.265 NA
HETATM   12  C   UNL     1      43.328 -17.483   3.680  1.00  0.00     0.019 A 
HETATM   13  C   UNL     1      43.032 -17.511   2.319  1.00  0.00     0.001 A 
HETATM   14  C   UNL     1      42.812 -16.317   1.634  1.00  0.00     0.002 A 
HETATM   15  C   UNL     1      42.870 -15.094   2.310  1.00  0.00     0.024 A 
HETATM   16  C   UNL     1      41.556 -13.929   6.177  1.00  0.00     0.068 C 
HETATM   17  C   UNL     1      40.766 -12.679   5.818  1.00  0.00     0.129 C 
HETATM   18  O   UNL     1      39.320 -10.508   6.636  1.00  0.00    -0.273 OA
HETATM   19  H   UNL     1      43.975 -14.961   7.322  1.00  0.00     0.164 HD
HETATM   20  H   UNL     1      42.731 -13.079   3.853  1.00  0.00     0.130 HD
ENDROOT
BRANCH   1  21
HETATM   21  C   UNL     1      41.197  -9.052   6.917  1.00  0.00     0.123 C 
BRANCH  21  22
HETATM   22  C   UNL     1      40.754  -8.517   8.274  1.00  0.00     0.138 C 
BRANCH  22  23
HETATM   23  N   UNL     1      41.636  -8.979   9.340  1.00  0.00    -0.349 N 
HETATM   24  C   UNL     1      43.015  -9.016   9.237  1.00  0.00     0.045 A 
HETATM   25  C   UNL     1      43.499  -9.531  10.441  1.00  0.00    -0.001 A 
HETATM   26  C   UNL     1      43.875  -8.643   8.190  1.00  0.00     0.030 A 
HETATM   27  C   UNL     1      42.373  -9.803  11.280  1.00  0.00    -0.027 A 
HETATM   28  C   UNL     1      44.895  -9.676  10.601  1.00  0.00     0.014 A 
HETATM   29  C   UNL     1      42.413 -10.356  12.662  1.00  0.00     0.051 C 
HETATM   30  C   UNL     1      41.232  -9.456  10.570  1.00  0.00     0.015 A 
HETATM   31  C   UNL     1      39.804  -9.532  10.989  1.00  0.00     0.069 C 
HETATM   32  C   UNL     1      45.758  -9.304   9.565  1.00  0.00     0.001 A 
HETATM   33  C   UNL     1      45.252  -8.795   8.375  1.00  0.00     0.002 A 
ENDBRANCH  22  23
ENDBRANCH  21  22
ENDBRANCH   1  21
TORSDOF 3
ENDMDL
MODEL 6
REMARK VINA RESULT:      -9.6      5.998      9.457
REMARK  3 active torsions:
REMARK  status: ('A' for Active; 'I' for Inactive)
REMARK    1  A    between atoms: N_9  and  C_10 
REMARK    2  A    between atoms: C_10  and  C_11 
REMARK    3  A    between atoms: C_11  and  C_12 
REMARK       I    between atoms: C_12  and  N_13 
ROOT
HETATM    1  C   UNL     1      40.779 -14.391   2.247  1.00  0.00     0.221 C 
HETATM    2  N   UNL     1      40.218 -13.957   1.042  1.00  0.00    -0.352 N 
HETATM    3  C   UNL     1      40.319 -14.712  -0.208  1.00  0.00     0.129 C 
HETATM    4  C   UNL     1      39.142 -14.444  -1.138  1.00  0.00     0.068 C 
HETATM    5  C   UNL     1      38.899 -12.944  -1.367  1.00  0.00     0.094 C 
HETATM    6  N   UNL     1      37.675 -12.792  -2.128  1.00  0.00    -0.334 N 
HETATM    7  C   UNL     1      37.351 -11.640  -2.792  1.00  0.00     0.255 C 
HETATM    8  O   UNL     1      36.191 -11.381  -3.089  1.00  0.00    -0.268 OA
HETATM    9  C   UNL     1      38.474 -10.755  -3.148  1.00  0.00     0.053 A 
HETATM   10  C   UNL     1      39.765 -11.174  -2.810  1.00  0.00     0.026 A 
HETATM   11  N   UNL     1      39.991 -12.404  -2.177  1.00  0.00    -0.265 NA
HETATM   12  C   UNL     1      38.248  -9.555  -3.831  1.00  0.00     0.019 A 
HETATM   13  C   UNL     1      39.333  -8.769  -4.212  1.00  0.00     0.001 A 
HETATM   14  C   UNL     1      40.630  -9.194  -3.926  1.00  0.00     0.002 A 
HETATM   15  C   UNL     1      40.844 -10.396  -3.243  1.00  0.00     0.024 A 
HETATM   16  C   UNL     1      38.782 -12.227  -0.013  1.00  0.00     0.068 C 
HETATM   17  C   UNL     1      39.955 -12.526   0.909  1.00  0.00     0.129 C 
HETATM   18  O   UNL     1      40.890 -13.646   3.221  1.00  0.00    -0.273 OA
HETATM   19  H   UNL     1      36.861 -13.318  -1.843  1.00  0.00     0.164 HD
HETATM   20  H   UNL     1      40.904 -12.440  -1.733  1.00  0.00     0.130 HD
ENDROOT
BRANCH   1  21
HETATM   21  C   UNL     1      41.248 -15.830   2.311  1.00  0.00     0.123 C 
BRANCH  21  22
HETATM   22  C   UNL     1      42.758 -15.911   2.500  1.00  0.00     0.138 C 
BRANCH  22  23
HETATM   23  N   UNL     1      43.106 -16.781   3.617  1.00  0.00    -0.349 N 
HETATM   24  C   UNL     1      43.176 -16.357   4.932  1.00  0.00     0.045 A 
HETATM   25  C   UNL     1      43.554 -17.461   5.697  1.00  0.00    -0.001 A 
HETATM   26  C   UNL     1      42.941 -15.098   5.511  1.00  0.00     0.030 A 
HETATM   27  C   UNL     1      43.709 -18.571   4.808  1.00  0.00    -0.027 A 
HETATM   28  C   UNL     1      43.700 -17.299   7.092  1.00  0.00     0.014 A 
HETATM   29  C   UNL     1      44.098 -19.958   5.185  1.00  0.00     0.051 C 
HETATM   30  C   UNL     1      43.430 -18.119   3.526  1.00  0.00     0.015 A 
HETATM   31  C   UNL     1      43.436 -18.873   2.240  1.00  0.00     0.069 C 
HETATM   32  C   UNL     1      43.465 -16.050   7.677  1.00  0.00     0.001 A 
HETATM   33  C   UNL     1      43.090 -14.965   6.895  1.00  0.00     0.002 A 
ENDBRANCH  22  23
ENDBRANCH  21  22
ENDBRANCH   1  21
TORSDOF 3
ENDMDL
MODEL 7
REMARK VINA RESULT:      -9.6      1.497      2.841
REMARK  3 active torsions:
REMARK  status: ('A' for Active; 'I' for Inactive)
REMARK    1  A    between atoms: N_9  and  C_10 
REMARK    2  A    between atoms: C_10  and  C_11 
REMARK    3  A    between atoms: C_11  and  C_12 
REMARK       I    between atoms: C_12  and  N_13 
ROOT
HETATM    1  C   UNL     1      40.461 -12.032   5.202  1.00  0.00     0.221 C 
HETATM    2  N   UNL     1      41.299 -11.314   6.060  1.00  0.00    -0.352 N 
HETATM    3  C   UNL     1      42.693 -11.682   6.314  1.00  0.00     0.129 C 
HETATM    4  C   UNL     1      43.548 -10.476   6.679  1.00  0.00     0.068 C 
HETATM    5  C   UNL     1      42.939  -9.639   7.814  1.00  0.00     0.094 C 
HETATM    6  N   UNL     1      43.736  -8.441   7.976  1.00  0.00    -0.334 N 
HETATM    7  C   UNL     1      43.686  -7.660   9.100  1.00  0.00     0.255 C 
HETATM    8  O   UNL     1      44.043  -6.488   9.077  1.00  0.00    -0.268 OA
HETATM    9  C   UNL     1      43.210  -8.318  10.329  1.00  0.00     0.053 A 
HETATM   10  C   UNL     1      42.882  -9.676  10.256  1.00  0.00     0.026 A 
HETATM   11  N   UNL     1      43.024 -10.398   9.062  1.00  0.00    -0.265 NA
HETATM   12  C   UNL     1      43.125  -7.607  11.531  1.00  0.00     0.019 A 
HETATM   13  C   UNL     1      42.733  -8.270  12.692  1.00  0.00     0.001 A 
HETATM   14  C   UNL     1      42.448  -9.634  12.647  1.00  0.00     0.002 A 
HETATM   15  C   UNL     1      42.537 -10.335  11.440  1.00  0.00     0.024 A 
HETATM   16  C   UNL     1      41.488  -9.274   7.463  1.00  0.00     0.068 C 
HETATM   17  C   UNL     1      40.656 -10.489   7.081  1.00  0.00     0.129 C 
HETATM   18  O   UNL     1      39.243 -11.855   5.180  1.00  0.00    -0.273 OA
HETATM   19  H   UNL     1      43.996  -7.918   7.151  1.00  0.00     0.164 HD
HETATM   20  H   UNL     1      42.482 -11.256   9.072  1.00  0.00     0.130 HD
ENDROOT
BRANCH   1  21
HETATM   21  C   UNL     1      41.116 -13.047   4.287  1.00  0.00     0.123 C 
BRANCH  21  22
HETATM   22  C   UNL     1      40.483 -14.425   4.447  1.00  0.00     0.138 C 
BRANCH  22  23
HETATM   23  N   UNL     1      41.493 -15.476   4.436  1.00  0.00    -0.349 N 
HETATM   24  C   UNL     1      42.240 -15.839   5.542  1.00  0.00     0.045 A 
HETATM   25  C   UNL     1      43.104 -16.857   5.134  1.00  0.00    -0.001 A 
HETATM   26  C   UNL     1      42.230 -15.359   6.863  1.00  0.00     0.030 A 
HETATM   27  C   UNL     1      42.858 -17.103   3.746  1.00  0.00    -0.027 A 
HETATM   28  C   UNL     1      43.988 -17.414   6.084  1.00  0.00     0.014 A 
HETATM   29  C   UNL     1      43.544 -18.112   2.892  1.00  0.00     0.051 C 
HETATM   30  C   UNL     1      41.859 -16.230   3.340  1.00  0.00     0.015 A 
HETATM   31  C   UNL     1      41.227 -16.082   1.998  1.00  0.00     0.069 C 
HETATM   32  C   UNL     1      43.983 -16.945   7.401  1.00  0.00     0.001 A 
HETATM   33  C   UNL     1      43.114 -15.930   7.784  1.00  0.00     0.002 A 
ENDBRANCH  22  23
ENDBRANCH  21  22
ENDBRANCH   1  21
TORSDOF 3
ENDMDL
MODEL 8
REMARK VINA RESULT:      -9.3      5.064      8.165
REMARK  3 active torsions:
REMARK  status: ('A' for Active; 'I' for Inactive)
REMARK    1  A    between atoms: N_9  and  C_10 
REMARK    2  A    between atoms: C_10  and  C_11 
REMARK    3  A    between atoms: C_11  and  C_12 
REMARK       I    between atoms: C_12  and  N_13 
ROOT
HETATM    1  C   UNL     1      39.896 -12.294   4.365  1.00  0.00     0.221 C 
HETATM    2  N   UNL     1      40.310 -12.274   3.029  1.00  0.00    -0.352 N 
HETATM    3  C   UNL     1      41.707 -12.422   2.621  1.00  0.00     0.129 C 
HETATM    4  C   UNL     1      41.838 -13.033   1.232  1.00  0.00     0.068 C 
HETATM    5  C   UNL     1      40.986 -12.304   0.181  1.00  0.00     0.094 C 
HETATM    6  N   UNL     1      41.053 -13.049  -1.059  1.00  0.00    -0.334 N 
HETATM    7  C   UNL     1      40.704 -12.514  -2.269  1.00  0.00     0.255 C 
HETATM    8  O   UNL     1      40.394 -13.227  -3.215  1.00  0.00    -0.268 OA
HETATM    9  C   UNL     1      40.752 -11.044  -2.369  1.00  0.00     0.053 A 
HETATM   10  C   UNL     1      41.174 -10.328  -1.244  1.00  0.00     0.026 A 
HETATM   11  N   UNL     1      41.565 -10.983  -0.067  1.00  0.00    -0.265 NA
HETATM   12  C   UNL     1      40.417 -10.400  -3.565  1.00  0.00     0.019 A 
HETATM   13  C   UNL     1      40.533  -9.014  -3.651  1.00  0.00     0.001 A 
HETATM   14  C   UNL     1      40.998  -8.288  -2.554  1.00  0.00     0.002 A 
HETATM   15  C   UNL     1      41.331  -8.944  -1.364  1.00  0.00     0.024 A 
HETATM   16  C   UNL     1      39.533 -12.209   0.672  1.00  0.00     0.068 C 
HETATM   17  C   UNL     1      39.426 -11.617   2.069  1.00  0.00     0.129 C 
HETATM   18  O   UNL     1      38.768 -11.937   4.704  1.00  0.00    -0.273 OA
HETATM   19  H   UNL     1      40.928 -14.052  -1.027  1.00  0.00     0.164 HD
HETATM   20  H   UNL     1      41.553 -10.360   0.735  1.00  0.00     0.130 HD
ENDROOT
BRANCH   1  21
HETATM   21  C   UNL     1      40.899 -12.780   5.391  1.00  0.00     0.123 C 
BRANCH  21  22
HETATM   22  C   UNL     1      40.618 -14.223   5.796  1.00  0.00     0.138 C 
BRANCH  22  23
HETATM   23  N   UNL     1      41.743 -15.092   5.472  1.00  0.00    -0.349 N 
HETATM   24  C   UNL     1      41.836 -15.831   4.306  1.00  0.00     0.045 A 
HETATM   25  C   UNL     1      43.035 -16.544   4.369  1.00  0.00    -0.001 A 
HETATM   26  C   UNL     1      40.968 -15.933   3.204  1.00  0.00     0.030 A 
HETATM   27  C   UNL     1      43.669 -16.214   5.607  1.00  0.00    -0.027 A 
HETATM   28  C   UNL     1      43.376 -17.388   3.289  1.00  0.00     0.014 A 
HETATM   29  C   UNL     1      44.976 -16.735   6.097  1.00  0.00     0.051 C 
HETATM   30  C   UNL     1      42.845 -15.317   6.272  1.00  0.00     0.015 A 
HETATM   31  C   UNL     1      43.044 -14.657   7.593  1.00  0.00     0.069 C 
HETATM   32  C   UNL     1      42.520 -17.493   2.188  1.00  0.00     0.001 A 
HETATM   33  C   UNL     1      41.332 -16.774   2.148  1.00  0.00     0.002 A 
ENDBRANCH  22  23
ENDBRANCH  21  22
ENDBRANCH   1  21
TORSDOF 3
ENDMDL
MODEL 9
REMARK VINA RESULT:      -9.2      2.572      9.097
REMARK  3 active torsions:
REMARK  status: ('A' for Active; 'I' for Inactive)
REMARK    1  A    between atoms: N_9  and  C_10 
REMARK    2  A    between atoms: C_10  and  C_11 
REMARK    3  A    between atoms: C_11  and  C_12 
REMARK       I    between atoms: C_12  and  N_13 
ROOT
HETATM    1  C   UNL     1      39.562 -11.039   6.537  1.00  0.00     0.221 C 
HETATM    2  N   UNL     1      40.614 -11.925   6.285  1.00  0.00    -0.352 N 
HETATM    3  C   UNL     1      41.940 -11.490   5.844  1.00  0.00     0.129 C 
HETATM    4  C   UNL     1      43.035 -12.455   6.279  1.00  0.00     0.068 C 
HETATM    5  C   UNL     1      42.730 -13.910   5.895  1.00  0.00     0.094 C 
HETATM    6  N   UNL     1      43.742 -14.761   6.487  1.00  0.00    -0.334 N 
HETATM    7  C   UNL     1      43.970 -16.046   6.072  1.00  0.00     0.255 C 
HETATM    8  O   UNL     1      44.524 -16.861   6.799  1.00  0.00    -0.268 OA
HETATM    9  C   UNL     1      43.539 -16.373   4.701  1.00  0.00     0.053 A 
HETATM   10  C   UNL     1      42.968 -15.351   3.936  1.00  0.00     0.026 A 
HETATM   11  N   UNL     1      42.831 -14.050   4.442  1.00  0.00    -0.265 NA
HETATM   12  C   UNL     1      43.731 -17.658   4.181  1.00  0.00     0.019 A 
HETATM   13  C   UNL     1      43.373 -17.922   2.861  1.00  0.00     0.001 A 
HETATM   14  C   UNL     1      42.846 -16.903   2.069  1.00  0.00     0.002 A 
HETATM   15  C   UNL     1      42.660 -15.621   2.599  1.00  0.00     0.024 A 
HETATM   16  C   UNL     1      41.335 -14.298   6.412  1.00  0.00     0.068 C 
HETATM   17  C   UNL     1      40.259 -13.310   5.984  1.00  0.00     0.129 C 
HETATM   18  O   UNL     1      38.402 -11.426   6.676  1.00  0.00    -0.273 OA
HETATM   19  H   UNL     1      43.986 -14.617   7.457  1.00  0.00     0.164 HD
HETATM   20  H   UNL     1      42.150 -13.509   3.918  1.00  0.00     0.130 HD
ENDROOT
BRANCH   1  21
HETATM   21  C   UNL     1      39.908  -9.568   6.638  1.00  0.00     0.123 C 
BRANCH  21  22
HETATM   22  C   UNL     1      39.529  -9.003   8.003  1.00  0.00     0.138 C 
BRANCH  22  23
HETATM   23  N   UNL     1      40.651  -9.066   8.932  1.00  0.00    -0.349 N 
HETATM   24  C   UNL     1      40.542  -9.486  10.246  1.00  0.00     0.045 A 
HETATM   25  C   UNL     1      41.814  -9.388  10.812  1.00  0.00    -0.001 A 
HETATM   26  C   UNL     1      39.435  -9.942  10.982  1.00  0.00     0.030 A 
HETATM   27  C   UNL     1      42.700  -8.898   9.802  1.00  0.00    -0.027 A 
HETATM   28  C   UNL     1      41.982  -9.761  12.163  1.00  0.00     0.014 A 
HETATM   29  C   UNL     1      44.160  -8.644   9.955  1.00  0.00     0.051 C 
HETATM   30  C   UNL     1      41.952  -8.703   8.650  1.00  0.00     0.015 A 
HETATM   31  C   UNL     1      42.393  -8.216   7.312  1.00  0.00     0.069 C 
HETATM   32  C   UNL     1      40.887 -10.218  12.903  1.00  0.00     0.001 A 
HETATM   33  C   UNL     1      39.630 -10.307  12.317  1.00  0.00     0.002 A 
ENDBRANCH  22  23
ENDBRANCH  21  22
ENDBRANCH   1  21
TORSDOF 3
ENDMDL
MODEL 10
REMARK VINA RESULT:      -9.2      4.731      8.012
REMARK  3 active torsions:
REMARK  status: ('A' for Active; 'I' for Inactive)
REMARK    1  A    between atoms: N_9  and  C_10 
REMARK    2  A    between atoms: C_10  and  C_11 
REMARK    3  A    between atoms: C_11  and  C_12 
REMARK       I    between atoms: C_12  and  N_13 
ROOT
HETATM    1  C   UNL     1      41.713 -11.785   4.983  1.00  0.00     0.221 C 
HETATM    2  N   UNL     1      40.879 -11.890   3.865  1.00  0.00    -0.352 N 
HETATM    3  C   UNL     1      40.320 -13.160   3.398  1.00  0.00     0.129 C 
HETATM    4  C   UNL     1      38.994 -12.971   2.672  1.00  0.00     0.068 C 
HETATM    5  C   UNL     1      39.071 -11.912   1.563  1.00  0.00     0.094 C 
HETATM    6  N   UNL     1      37.736 -11.694   1.046  1.00  0.00    -0.334 N 
HETATM    7  C   UNL     1      37.493 -11.087  -0.157  1.00  0.00     0.255 C 
HETATM    8  O   UNL     1      36.411 -10.567  -0.401  1.00  0.00    -0.268 OA
HETATM    9  C   UNL     1      38.592 -11.123  -1.138  1.00  0.00     0.053 A 
HETATM   10  C   UNL     1      39.766 -11.792  -0.776  1.00  0.00     0.026 A 
HETATM   11  N   UNL     1      39.889 -12.430   0.466  1.00  0.00    -0.265 NA
HETATM   12  C   UNL     1      38.442 -10.534  -2.398  1.00  0.00     0.019 A 
HETATM   13  C   UNL     1      39.473 -10.638  -3.329  1.00  0.00     0.001 A 
HETATM   14  C   UNL     1      40.632 -11.342  -3.003  1.00  0.00     0.002 A 
HETATM   15  C   UNL     1      40.770 -11.928  -1.740  1.00  0.00     0.024 A 
HETATM   16  C   UNL     1      39.644 -10.606   2.136  1.00  0.00     0.068 C 
HETATM   17  C   UNL     1      40.956 -10.819   2.875  1.00  0.00     0.129 C 
HETATM   18  O   UNL     1      42.357 -10.765   5.223  1.00  0.00    -0.273 OA
HETATM   19  H   UNL     1      36.978 -11.571   1.703  1.00  0.00     0.164 HD
HETATM   20  H   UNL     1      40.860 -12.603   0.709  1.00  0.00     0.130 HD
ENDROOT
BRANCH   1  21
HETATM   21  C   UNL     1      41.792 -12.989   5.899  1.00  0.00     0.123 C 
BRANCH  21  22
HETATM   22  C   UNL     1      43.211 -13.542   5.964  1.00  0.00     0.138 C 
BRANCH  22  23
HETATM   23  N   UNL     1      43.247 -14.952   5.594  1.00  0.00    -0.349 N 
HETATM   24  C   UNL     1      43.258 -15.407   4.287  1.00  0.00     0.045 A 
HETATM   25  C   UNL     1      43.274 -16.802   4.341  1.00  0.00    -0.001 A 
HETATM   26  C   UNL     1      43.254 -14.711   3.066  1.00  0.00     0.030 A 
HETATM   27  C   UNL     1      43.275 -17.181   5.720  1.00  0.00    -0.027 A 
HETATM   28  C   UNL     1      43.287 -17.524   3.128  1.00  0.00     0.014 A 
HETATM   29  C   UNL     1      43.296 -18.572   6.253  1.00  0.00     0.051 C 
HETATM   30  C   UNL     1      43.253 -16.016   6.473  1.00  0.00     0.015 A 
HETATM   31  C   UNL     1      43.255 -15.852   7.954  1.00  0.00     0.069 C 
HETATM   32  C   UNL     1      43.287 -16.839   1.908  1.00  0.00     0.001 A 
HETATM   33  C   UNL     1      43.270 -15.450   1.880  1.00  0.00     0.002 A 
ENDBRANCH  22  23
ENDBRANCH  21  22
ENDBRANCH   1  21
TORSDOF 3
ENDMDL
