MODEL 1
REMARK VINA RESULT:      -8.9      0.000      0.000
REMARK  7 active torsions:
REMARK  status: ('A' for Active; 'I' for Inactive)
REMARK    1  A    between atoms: O_2  and  C_3 
REMARK    2  A    between atoms: C_6  and  C_7 
REMARK    3  A    between atoms: C_11  and  C_12 
REMARK       I    between atoms: C_12  and  N_13 
REMARK    4  A    between atoms: N_13  and  N_14 
REMARK       I    between atoms: N_14  and  C_15 
REMARK    5  A    between atoms: C_15  and  C_16 
REMARK    6  A    between atoms: C_16  and  C_17 
REMARK    7  A    between atoms: C_17  and  C_18 
ROOT
HETATM    1  C   UNL     1      44.336 -12.053   7.146  1.00  0.00     0.288 C 
HETATM    2  N   UNL     1      43.399 -13.036   7.379  1.00  0.00    -0.262 N 
HETATM    3  O   UNL     1      45.061 -12.062   6.154  1.00  0.00    -0.264 OA
HETATM    4  H   UNL     1      42.769 -13.038   8.179  1.00  0.00     0.190 HD
ENDROOT
BRANCH   1   5
HETATM    5  C   UNL     1      44.399 -11.027   8.150  1.00  0.00     0.121 A 
HETATM    6  N   UNL     1      45.584 -10.574   8.658  1.00  0.00    -0.272 N 
HETATM    7  N   UNL     1      45.453  -9.632   9.604  1.00  0.00    -0.174 NA
HETATM    8  H   UNL     1      46.516 -10.885   8.402  1.00  0.00     0.189 HD
HETATM    9  C   UNL     1      44.130  -9.432   9.705  1.00  0.00     0.089 A 
HETATM   10  C   UNL     1      43.434 -10.293   8.811  1.00  0.00     0.071 A 
BRANCH   9  11
HETATM   11  C   UNL     1      43.555  -8.462  10.643  1.00  0.00    -0.005 A 
HETATM   12  C   UNL     1      42.956  -7.282  10.185  1.00  0.00     0.016 A 
HETATM   13  C   UNL     1      42.384  -6.380  11.086  1.00  0.00     0.037 A 
HETATM   14  C   UNL     1      42.391  -6.639  12.458  1.00  0.00     0.068 A 
HETATM   15  C   UNL     1      43.001  -7.802  12.925  1.00  0.00     0.037 A 
HETATM   16  C   UNL     1      43.580  -8.704  12.023  1.00  0.00     0.016 A 
BRANCH  14  17
HETATM   17  O   UNL     1      41.783  -5.683  13.223  1.00  0.00    -0.356 OA
HETATM   18  C   UNL     1      42.147  -4.333  12.967  1.00  0.00     0.210 C 
ENDBRANCH  14  17
ENDBRANCH   9  11
ENDBRANCH   1   5
BRANCH   2  19
HETATM   19  N   UNL     1      43.214 -14.061   6.451  1.00  0.00    -0.267 N 
HETATM   20  C   UNL     1      43.010 -15.334   6.943  1.00  0.00     0.236 C 
HETATM   21  O   UNL     1      43.034 -15.580   8.147  1.00  0.00    -0.272 OA
HETATM   22  H   UNL     1      43.122 -13.799   5.471  1.00  0.00     0.190 HD
BRANCH  20  23
HETATM   23  C   UNL     1      42.742 -16.362   5.870  1.00  0.00     0.109 C 
BRANCH  23  24
HETATM   24  C   UNL     1      44.032 -16.750   5.150  1.00  0.00     0.049 C 
BRANCH  24  25
HETATM   25  C   UNL     1      43.915 -18.079   4.441  1.00  0.00    -0.036 A 
HETATM   26  C   UNL     1      43.621 -18.191   3.073  1.00  0.00     0.040 A 
HETATM   27 CL   UNL     1      43.366 -16.802   2.077  1.00  0.00    -0.084 Cl
HETATM   28  C   UNL     1      43.523 -19.448   2.467  1.00  0.00     0.024 A 
HETATM   29  C   UNL     1      43.713 -20.607   3.218  1.00  0.00     0.002 A 
HETATM   30  C   UNL     1      43.997 -20.512   4.578  1.00  0.00     0.001 A 
HETATM   31  C   UNL     1      44.096 -19.258   5.186  1.00  0.00     0.009 A 
ENDBRANCH  24  25
ENDBRANCH  23  24
ENDBRANCH  20  23
ENDBRANCH   2  19
TORSDOF 7
ENDMDL
MODEL 2
REMARK VINA RESULT:      -8.8      3.637     11.383
REMARK  7 active torsions:
REMARK  status: ('A' for Active; 'I' for Inactive)
REMARK    1  A    between atoms: O_2  and  C_3 
REMARK    2  A    between atoms: C_6  and  C_7 
REMARK    3  A    between atoms: C_11  and  C_12 
REMARK       I    between atoms: C_12  and  N_13 
REMARK    4  A    between atoms: N_13  and  N_14 
REMARK       I    between atoms: N_14  and  C_15 
REMARK    5  A    between atoms: C_15  and  C_16 
REMARK    6  A    between atoms: C_16  and  C_17 
REMARK    7  A    between atoms: C_17  and  C_18 
ROOT
HETATM    1  C   UNL     1      42.652 -10.860   6.646  1.00  0.00     0.288 C 
HETATM    2  N   UNL     1      43.117 -11.261   7.879  1.00  0.00    -0.262 N 
HETATM    3  O   UNL     1      42.102  -9.775   6.475  1.00  0.00    -0.264 OA
HETATM    4  H   UNL     1      43.598 -12.143   8.043  1.00  0.00     0.190 HD
ENDROOT
BRANCH   1   5
HETATM    5  C   UNL     1      42.858 -11.808   5.585  1.00  0.00     0.121 A 
HETATM    6  N   UNL     1      43.266 -11.429   4.338  1.00  0.00    -0.272 N 
HETATM    7  N   UNL     1      43.383 -12.443   3.466  1.00  0.00    -0.174 NA
HETATM    8  H   UNL     1      43.466 -10.486   4.021  1.00  0.00     0.189 HD
HETATM    9  C   UNL     1      43.070 -13.539   4.173  1.00  0.00     0.089 A 
HETATM   10  C   UNL     1      42.730 -13.181   5.508  1.00  0.00     0.071 A 
BRANCH   9  11
HETATM   11  C   UNL     1      43.078 -14.880   3.581  1.00  0.00    -0.005 A 
HETATM   12  C   UNL     1      43.022 -16.025   4.385  1.00  0.00     0.016 A 
HETATM   13  C   UNL     1      42.999 -17.298   3.808  1.00  0.00     0.037 A 
HETATM   14  C   UNL     1      43.022 -17.454   2.421  1.00  0.00     0.068 A 
HETATM   15  C   UNL     1      43.096 -16.321   1.613  1.00  0.00     0.037 A 
HETATM   16  C   UNL     1      43.126 -15.045   2.189  1.00  0.00     0.016 A 
BRANCH  14  17
HETATM   17  O   UNL     1      42.977 -18.751   1.991  1.00  0.00    -0.356 OA
HETATM   18  C   UNL     1      43.833 -19.673   2.653  1.00  0.00     0.210 C 
ENDBRANCH  14  17
ENDBRANCH   9  11
ENDBRANCH   1   5
BRANCH   2  19
HETATM   19  N   UNL     1      43.014 -10.407   8.978  1.00  0.00    -0.267 N 
HETATM   20  C   UNL     1      44.112 -10.302   9.806  1.00  0.00     0.236 C 
HETATM   21  O   UNL     1      45.133 -10.962   9.623  1.00  0.00    -0.272 OA
HETATM   22  H   UNL     1      42.182  -9.822   9.044  1.00  0.00     0.190 HD
BRANCH  20  23
HETATM   23  C   UNL     1      43.937  -9.298  10.921  1.00  0.00     0.109 C 
BRANCH  23  24
HETATM   24  C   UNL     1      42.494  -9.285  11.422  1.00  0.00     0.049 C 
BRANCH  24  25
HETATM   25  C   UNL     1      42.370  -8.671  12.797  1.00  0.00    -0.036 A 
HETATM   26  C   UNL     1      41.384  -9.056  13.719  1.00  0.00     0.040 A 
HETATM   27 CL   UNL     1      40.217 -10.275  13.352  1.00  0.00    -0.084 Cl
HETATM   28  C   UNL     1      41.315  -8.452  14.979  1.00  0.00     0.024 A 
HETATM   29  C   UNL     1      42.225  -7.457  15.333  1.00  0.00     0.002 A 
HETATM   30  C   UNL     1      43.204  -7.060  14.426  1.00  0.00     0.001 A 
HETATM   31  C   UNL     1      43.275  -7.660  13.167  1.00  0.00     0.009 A 
ENDBRANCH  24  25
ENDBRANCH  23  24
ENDBRANCH  20  23
ENDBRANCH   2  19
TORSDOF 7
ENDMDL
MODEL 3
REMARK VINA RESULT:      -8.7      3.382     11.450
REMARK  7 active torsions:
REMARK  status: ('A' for Active; 'I' for Inactive)
REMARK    1  A    between atoms: O_2  and  C_3 
REMARK    2  A    between atoms: C_6  and  C_7 
REMARK    3  A    between atoms: C_11  and  C_12 
REMARK       I    between atoms: C_12  and  N_13 
REMARK    4  A    between atoms: N_13  and  N_14 
REMARK       I    between atoms: N_14  and  C_15 
REMARK    5  A    between atoms: C_15  and  C_16 
REMARK    6  A    between atoms: C_16  and  C_17 
REMARK    7  A    between atoms: C_17  and  C_18 
ROOT
HETATM    1  C   UNL     1      42.773 -11.912   6.392  1.00  0.00     0.288 C 
HETATM    2  N   UNL     1      43.521 -12.108   7.532  1.00  0.00    -0.262 N 
HETATM    3  O   UNL     1      42.129 -10.884   6.200  1.00  0.00    -0.264 OA
HETATM    4  H   UNL     1      44.083 -12.939   7.704  1.00  0.00     0.190 HD
ENDROOT
BRANCH   1   5
HETATM    5  C   UNL     1      42.805 -13.000   5.453  1.00  0.00     0.121 A 
HETATM    6  N   UNL     1      42.381 -12.864   4.162  1.00  0.00    -0.272 N 
HETATM    7  N   UNL     1      42.460 -13.988   3.434  1.00  0.00    -0.174 NA
HETATM    8  H   UNL     1      42.013 -12.023   3.726  1.00  0.00     0.189 HD
HETATM    9  C   UNL     1      42.986 -14.898   4.269  1.00  0.00     0.089 A 
HETATM   10  C   UNL     1      43.212 -14.317   5.548  1.00  0.00     0.071 A 
BRANCH   9  11
HETATM   11  C   UNL     1      43.241 -16.282   3.857  1.00  0.00    -0.005 A 
HETATM   12  C   UNL     1      43.845 -17.195   4.729  1.00  0.00     0.016 A 
HETATM   13  C   UNL     1      44.056 -18.520   4.336  1.00  0.00     0.037 A 
HETATM   14  C   UNL     1      43.662 -18.961   3.072  1.00  0.00     0.068 A 
HETATM   15  C   UNL     1      43.076 -18.055   2.190  1.00  0.00     0.037 A 
HETATM   16  C   UNL     1      42.869 -16.725   2.580  1.00  0.00     0.016 A 
BRANCH  14  17
HETATM   17  O   UNL     1      43.911 -20.283   2.824  1.00  0.00    -0.356 OA
HETATM   18  C   UNL     1      43.930 -21.151   3.950  1.00  0.00     0.210 C 
ENDBRANCH  14  17
ENDBRANCH   9  11
ENDBRANCH   1   5
BRANCH   2  19
HETATM   19  N   UNL     1      43.603 -11.103   8.497  1.00  0.00    -0.267 N 
HETATM   20  C   UNL     1      44.860 -10.631   8.816  1.00  0.00     0.236 C 
HETATM   21  O   UNL     1      45.880 -11.099   8.313  1.00  0.00    -0.272 OA
HETATM   22  H   UNL     1      42.731 -10.693   8.825  1.00  0.00     0.190 HD
BRANCH  20  23
HETATM   23  C   UNL     1      44.845  -9.494   9.809  1.00  0.00     0.109 C 
BRANCH  23  24
HETATM   24  C   UNL     1      43.600  -8.628   9.630  1.00  0.00     0.049 C 
BRANCH  24  25
HETATM   25  C   UNL     1      43.206  -7.920  10.905  1.00  0.00    -0.036 A 
HETATM   26  C   UNL     1      42.577  -6.664  10.919  1.00  0.00     0.040 A 
HETATM   27 CL   UNL     1      42.199  -5.816   9.462  1.00  0.00    -0.084 Cl
HETATM   28  C   UNL     1      42.236  -6.053  12.130  1.00  0.00     0.024 A 
HETATM   29  C   UNL     1      42.520  -6.684  13.340  1.00  0.00     0.002 A 
HETATM   30  C   UNL     1      43.150  -7.925  13.342  1.00  0.00     0.001 A 
HETATM   31  C   UNL     1      43.492  -8.538  12.135  1.00  0.00     0.009 A 
ENDBRANCH  24  25
ENDBRANCH  23  24
ENDBRANCH  20  23
ENDBRANCH   2  19
TORSDOF 7
ENDMDL
MODEL 4
REMARK VINA RESULT:      -8.7      3.211     11.361
REMARK  7 active torsions:
REMARK  status: ('A' for Active; 'I' for Inactive)
REMARK    1  A    between atoms: O_2  and  C_3 
REMARK    2  A    between atoms: C_6  and  C_7 
REMARK    3  A    between atoms: C_11  and  C_12 
REMARK       I    between atoms: C_12  and  N_13 
REMARK    4  A    between atoms: N_13  and  N_14 
REMARK       I    between atoms: N_14  and  C_15 
REMARK    5  A    between atoms: C_15  and  C_16 
REMARK    6  A    between atoms: C_16  and  C_17 
REMARK    7  A    between atoms: C_17  and  C_18 
ROOT
HETATM    1  C   UNL     1      42.892 -11.599   6.643  1.00  0.00     0.288 C 
HETATM    2  N   UNL     1      43.540 -11.885   7.825  1.00  0.00    -0.262 N 
HETATM    3  O   UNL     1      42.313 -10.533   6.455  1.00  0.00    -0.264 OA
HETATM    4  H   UNL     1      44.049 -12.750   7.996  1.00  0.00     0.190 HD
ENDROOT
BRANCH   1   5
HETATM    5  C   UNL     1      42.946 -12.643   5.656  1.00  0.00     0.121 A 
HETATM    6  N   UNL     1      42.782 -12.397   4.323  1.00  0.00    -0.272 N 
HETATM    7  N   UNL     1      42.839 -13.491   3.549  1.00  0.00    -0.174 NA
HETATM    8  H   UNL     1      42.613 -11.496   3.885  1.00  0.00     0.189 HD
HETATM    9  C   UNL     1      43.080 -14.499   4.402  1.00  0.00     0.089 A 
HETATM   10  C   UNL     1      43.150 -14.007   5.735  1.00  0.00     0.071 A 
BRANCH   9  11
HETATM   11  C   UNL     1      43.218 -15.887   3.952  1.00  0.00    -0.005 A 
HETATM   12  C   UNL     1      42.789 -16.280   2.678  1.00  0.00     0.016 A 
HETATM   13  C   UNL     1      42.954 -17.600   2.248  1.00  0.00     0.037 A 
HETATM   14  C   UNL     1      43.555 -18.550   3.075  1.00  0.00     0.068 A 
HETATM   15  C   UNL     1      43.969 -18.174   4.352  1.00  0.00     0.037 A 
HETATM   16  C   UNL     1      43.799 -16.853   4.786  1.00  0.00     0.016 A 
BRANCH  14  17
HETATM   17  O   UNL     1      43.669 -19.797   2.524  1.00  0.00    -0.356 OA
HETATM   18  C   UNL     1      43.879 -20.876   3.425  1.00  0.00     0.210 C 
ENDBRANCH  14  17
ENDBRANCH   9  11
ENDBRANCH   1   5
BRANCH   2  19
HETATM   19  N   UNL     1      43.595 -10.931   8.842  1.00  0.00    -0.267 N 
HETATM   20  C   UNL     1      44.841 -10.467   9.211  1.00  0.00     0.236 C 
HETATM   21  O   UNL     1      45.875 -10.900   8.706  1.00  0.00    -0.272 OA
HETATM   22  H   UNL     1      42.713 -10.545   9.173  1.00  0.00     0.190 HD
BRANCH  20  23
HETATM   23  C   UNL     1      44.796  -9.383  10.261  1.00  0.00     0.109 C 
BRANCH  23  24
HETATM   24  C   UNL     1      43.586  -9.559  11.177  1.00  0.00     0.049 C 
BRANCH  24  25
HETATM   25  C   UNL     1      43.144  -8.254  11.798  1.00  0.00    -0.036 A 
HETATM   26  C   UNL     1      42.608  -7.195  11.049  1.00  0.00     0.040 A 
HETATM   27 CL   UNL     1      42.408  -7.297   9.336  1.00  0.00    -0.084 Cl
HETATM   28  C   UNL     1      42.216  -6.008  11.676  1.00  0.00     0.024 A 
HETATM   29  C   UNL     1      42.357  -5.862  13.055  1.00  0.00     0.002 A 
HETATM   30  C   UNL     1      42.894  -6.900  13.810  1.00  0.00     0.001 A 
HETATM   31  C   UNL     1      43.287  -8.087  13.187  1.00  0.00     0.009 A 
ENDBRANCH  24  25
ENDBRANCH  23  24
ENDBRANCH  20  23
ENDBRANCH   2  19
TORSDOF 7
ENDMDL
MODEL 5
REMARK VINA RESULT:      -8.6      1.924      2.377
REMARK  7 active torsions:
REMARK  status: ('A' for Active; 'I' for Inactive)
REMARK    1  A    between atoms: O_2  and  C_3 
REMARK    2  A    between atoms: C_6  and  C_7 
REMARK    3  A    between atoms: C_11  and  C_12 
REMARK       I    between atoms: C_12  and  N_13 
REMARK    4  A    between atoms: N_13  and  N_14 
REMARK       I    between atoms: N_14  and  C_15 
REMARK    5  A    between atoms: C_15  and  C_16 
REMARK    6  A    between atoms: C_16  and  C_17 
REMARK    7  A    between atoms: C_17  and  C_18 
ROOT
HETATM    1  C   UNL     1      44.434 -11.175   8.283  1.00  0.00     0.288 C 
HETATM    2  N   UNL     1      43.423 -11.934   7.735  1.00  0.00    -0.262 N 
HETATM    3  O   UNL     1      45.607 -11.301   7.939  1.00  0.00    -0.264 OA
HETATM    4  H   UNL     1      42.441 -11.832   7.984  1.00  0.00     0.190 HD
ENDROOT
BRANCH   1   5
HETATM    5  C   UNL     1      44.010 -10.235   9.284  1.00  0.00     0.121 A 
HETATM    6  N   UNL     1      43.936  -8.893   9.039  1.00  0.00    -0.272 N 
HETATM    7  N   UNL     1      43.544  -8.162  10.094  1.00  0.00    -0.174 NA
HETATM    8  H   UNL     1      44.156  -8.418   8.169  1.00  0.00     0.189 HD
HETATM    9  C   UNL     1      43.321  -9.059  11.067  1.00  0.00     0.089 A 
HETATM   10  C   UNL     1      43.607 -10.372  10.597  1.00  0.00     0.071 A 
BRANCH   9  11
HETATM   11  C   UNL     1      42.870  -8.666  12.405  1.00  0.00    -0.005 A 
HETATM   12  C   UNL     1      41.843  -9.362  13.054  1.00  0.00     0.016 A 
HETATM   13  C   UNL     1      41.441  -8.997  14.343  1.00  0.00     0.037 A 
HETATM   14  C   UNL     1      42.060  -7.939  15.010  1.00  0.00     0.068 A 
HETATM   15  C   UNL     1      43.071  -7.228  14.366  1.00  0.00     0.037 A 
HETATM   16  C   UNL     1      43.470  -7.589  13.072  1.00  0.00     0.016 A 
BRANCH  14  17
HETATM   17  O   UNL     1      41.583  -7.700  16.269  1.00  0.00    -0.356 OA
HETATM   18  C   UNL     1      41.690  -6.367  16.751  1.00  0.00     0.210 C 
ENDBRANCH  14  17
ENDBRANCH   9  11
ENDBRANCH   1   5
BRANCH   2  19
HETATM   19  N   UNL     1      43.706 -12.850   6.721  1.00  0.00    -0.267 N 
HETATM   20  C   UNL     1      42.635 -13.449   6.090  1.00  0.00     0.236 C 
HETATM   21  O   UNL     1      41.473 -13.229   6.425  1.00  0.00    -0.272 OA
HETATM   22  H   UNL     1      44.676 -12.939   6.424  1.00  0.00     0.190 HD
BRANCH  20  23
HETATM   23  C   UNL     1      43.035 -14.364   4.957  1.00  0.00     0.109 C 
BRANCH  23  24
HETATM   24  C   UNL     1      42.105 -15.573   4.876  1.00  0.00     0.049 C 
BRANCH  24  25
HETATM   25  C   UNL     1      42.753 -16.749   4.183  1.00  0.00    -0.036 A 
HETATM   26  C   UNL     1      42.384 -17.176   2.898  1.00  0.00     0.040 A 
HETATM   27 CL   UNL     1      41.145 -16.382   1.993  1.00  0.00    -0.084 Cl
HETATM   28  C   UNL     1      43.016 -18.273   2.305  1.00  0.00     0.024 A 
HETATM   29  C   UNL     1      44.020 -18.959   2.986  1.00  0.00     0.002 A 
HETATM   30  C   UNL     1      44.391 -18.552   4.265  1.00  0.00     0.001 A 
HETATM   31  C   UNL     1      43.761 -17.458   4.861  1.00  0.00     0.009 A 
ENDBRANCH  24  25
ENDBRANCH  23  24
ENDBRANCH  20  23
ENDBRANCH   2  19
TORSDOF 7
ENDMDL
MODEL 6
REMARK VINA RESULT:      -8.6      1.769      2.265
REMARK  7 active torsions:
REMARK  status: ('A' for Active; 'I' for Inactive)
REMARK    1  A    between atoms: O_2  and  C_3 
REMARK    2  A    between atoms: C_6  and  C_7 
REMARK    3  A    between atoms: C_11  and  C_12 
REMARK       I    between atoms: C_12  and  N_13 
REMARK    4  A    between atoms: N_13  and  N_14 
REMARK       I    between atoms: N_14  and  C_15 
REMARK    5  A    between atoms: C_15  and  C_16 
REMARK    6  A    between atoms: C_16  and  C_17 
REMARK    7  A    between atoms: C_17  and  C_18 
ROOT
HETATM    1  C   UNL     1      44.338 -11.104   7.715  1.00  0.00     0.288 C 
HETATM    2  N   UNL     1      43.255 -11.909   7.438  1.00  0.00    -0.262 N 
HETATM    3  O   UNL     1      45.268 -10.964   6.924  1.00  0.00    -0.264 OA
HETATM    4  H   UNL     1      42.460 -12.022   8.065  1.00  0.00     0.190 HD
ENDROOT
BRANCH   1   5
HETATM    5  C   UNL     1      44.294 -10.449   8.993  1.00  0.00     0.121 A 
HETATM    6  N   UNL     1      45.405  -9.903   9.572  1.00  0.00    -0.272 N 
HETATM    7  N   UNL     1      45.185  -9.354  10.776  1.00  0.00    -0.174 NA
HETATM    8  H   UNL     1      46.346  -9.888   9.192  1.00  0.00     0.189 HD
HETATM    9  C   UNL     1      43.870  -9.518  10.991  1.00  0.00     0.089 A 
HETATM   10  C   UNL     1      43.277 -10.206   9.895  1.00  0.00     0.071 A 
BRANCH   9  11
HETATM   11  C   UNL     1      43.213  -9.048  12.214  1.00  0.00    -0.005 A 
HETATM   12  C   UNL     1      43.624  -7.868  12.847  1.00  0.00     0.016 A 
HETATM   13  C   UNL     1      42.969  -7.413  13.996  1.00  0.00     0.037 A 
HETATM   14  C   UNL     1      41.890  -8.119  14.530  1.00  0.00     0.068 A 
HETATM   15  C   UNL     1      41.486  -9.304  13.917  1.00  0.00     0.037 A 
HETATM   16  C   UNL     1      42.144  -9.765  12.769  1.00  0.00     0.016 A 
BRANCH  14  17
HETATM   17  O   UNL     1      41.332  -7.555  15.643  1.00  0.00    -0.356 OA
HETATM   18  C   UNL     1      41.190  -6.140  15.638  1.00  0.00     0.210 C 
ENDBRANCH  14  17
ENDBRANCH   9  11
ENDBRANCH   1   5
BRANCH   2  19
HETATM   19  N   UNL     1      43.162 -12.562   6.208  1.00  0.00    -0.267 N 
HETATM   20  C   UNL     1      42.984 -13.929   6.227  1.00  0.00     0.236 C 
HETATM   21  O   UNL     1      42.952 -14.569   7.276  1.00  0.00    -0.272 OA
HETATM   22  H   UNL     1      43.114 -11.983   5.371  1.00  0.00     0.190 HD
BRANCH  20  23
HETATM   23  C   UNL     1      42.817 -14.537   4.854  1.00  0.00     0.109 C 
BRANCH  23  24
HETATM   24  C   UNL     1      41.994 -15.822   4.922  1.00  0.00     0.049 C 
BRANCH  24  25
HETATM   25  C   UNL     1      42.702 -16.991   4.278  1.00  0.00    -0.036 A 
HETATM   26  C   UNL     1      43.459 -17.921   5.008  1.00  0.00     0.040 A 
HETATM   27 CL   UNL     1      43.645 -17.804   6.721  1.00  0.00    -0.084 Cl
HETATM   28  C   UNL     1      44.096 -18.984   4.359  1.00  0.00     0.024 A 
HETATM   29  C   UNL     1      43.989 -19.130   2.977  1.00  0.00     0.002 A 
HETATM   30  C   UNL     1      43.249 -18.211   2.239  1.00  0.00     0.001 A 
HETATM   31  C   UNL     1      42.612 -17.148   2.883  1.00  0.00     0.009 A 
ENDBRANCH  24  25
ENDBRANCH  23  24
ENDBRANCH  20  23
ENDBRANCH   2  19
TORSDOF 7
ENDMDL
MODEL 7
REMARK VINA RESULT:      -8.2      3.578     11.559
REMARK  7 active torsions:
REMARK  status: ('A' for Active; 'I' for Inactive)
REMARK    1  A    between atoms: O_2  and  C_3 
REMARK    2  A    between atoms: C_6  and  C_7 
REMARK    3  A    between atoms: C_11  and  C_12 
REMARK       I    between atoms: C_12  and  N_13 
REMARK    4  A    between atoms: N_13  and  N_14 
REMARK       I    between atoms: N_14  and  C_15 
REMARK    5  A    between atoms: C_15  and  C_16 
REMARK    6  A    between atoms: C_16  and  C_17 
REMARK    7  A    between atoms: C_17  and  C_18 
ROOT
HETATM    1  C   UNL     1      39.982 -11.964   6.291  1.00  0.00     0.288 C 
HETATM    2  N   UNL     1      41.038 -11.244   6.804  1.00  0.00    -0.262 N 
HETATM    3  O   UNL     1      38.814 -11.693   6.557  1.00  0.00    -0.264 OA
HETATM    4  H   UNL     1      42.014 -11.431   6.580  1.00  0.00     0.190 HD
ENDROOT
BRANCH   1   5
HETATM    5  C   UNL     1      40.355 -13.051   5.427  1.00  0.00     0.121 A 
HETATM    6  N   UNL     1      39.687 -13.324   4.267  1.00  0.00    -0.272 N 
HETATM    7  N   UNL     1      40.156 -14.389   3.599  1.00  0.00    -0.174 NA
HETATM    8  H   UNL     1      38.891 -12.820   3.889  1.00  0.00     0.189 HD
HETATM    9  C   UNL     1      41.195 -14.820   4.331  1.00  0.00     0.089 A 
HETATM   10  C   UNL     1      41.349 -14.008   5.490  1.00  0.00     0.071 A 
BRANCH   9  11
HETATM   11  C   UNL     1      41.997 -15.983   3.941  1.00  0.00    -0.005 A 
HETATM   12  C   UNL     1      41.834 -16.585   2.687  1.00  0.00     0.016 A 
HETATM   13  C   UNL     1      42.626 -17.675   2.314  1.00  0.00     0.037 A 
HETATM   14  C   UNL     1      43.599 -18.179   3.177  1.00  0.00     0.068 A 
HETATM   15  C   UNL     1      43.758 -17.599   4.434  1.00  0.00     0.037 A 
HETATM   16  C   UNL     1      42.960 -16.510   4.813  1.00  0.00     0.016 A 
BRANCH  14  17
HETATM   17  O   UNL     1      44.313 -19.234   2.680  1.00  0.00    -0.356 OA
HETATM   18  C   UNL     1      43.623 -20.471   2.557  1.00  0.00     0.210 C 
ENDBRANCH  14  17
ENDBRANCH   9  11
ENDBRANCH   1   5
BRANCH   2  19
HETATM   19  N   UNL     1      40.800 -10.136   7.620  1.00  0.00    -0.267 N 
HETATM   20  C   UNL     1      41.894  -9.401   8.028  1.00  0.00     0.236 C 
HETATM   21  O   UNL     1      43.043  -9.721   7.731  1.00  0.00    -0.272 OA
HETATM   22  H   UNL     1      39.830  -9.865   7.773  1.00  0.00     0.190 HD
BRANCH  20  23
HETATM   23  C   UNL     1      41.533  -8.180   8.840  1.00  0.00     0.109 C 
BRANCH  23  24
HETATM   24  C   UNL     1      42.788  -7.470   9.346  1.00  0.00     0.049 C 
BRANCH  24  25
HETATM   25  C   UNL     1      42.795  -7.320  10.849  1.00  0.00    -0.036 A 
HETATM   26  C   UNL     1      43.340  -8.286  11.710  1.00  0.00     0.040 A 
HETATM   27 CL   UNL     1      44.055  -9.741  11.114  1.00  0.00    -0.084 Cl
HETATM   28  C   UNL     1      43.318  -8.097  13.096  1.00  0.00     0.024 A 
HETATM   29  C   UNL     1      42.750  -6.946  13.639  1.00  0.00     0.002 A 
HETATM   30  C   UNL     1      42.198  -5.983  12.798  1.00  0.00     0.001 A 
HETATM   31  C   UNL     1      42.218  -6.169  11.414  1.00  0.00     0.009 A 
ENDBRANCH  24  25
ENDBRANCH  23  24
ENDBRANCH  20  23
ENDBRANCH   2  19
TORSDOF 7
ENDMDL
MODEL 8
REMARK VINA RESULT:      -8.1      8.669     10.997
REMARK  7 active torsions:
REMARK  status: ('A' for Active; 'I' for Inactive)
REMARK    1  A    between atoms: O_2  and  C_3 
REMARK    2  A    between atoms: C_6  and  C_7 
REMARK    3  A    between atoms: C_11  and  C_12 
REMARK       I    between atoms: C_12  and  N_13 
REMARK    4  A    between atoms: N_13  and  N_14 
REMARK       I    between atoms: N_14  and  C_15 
REMARK    5  A    between atoms: C_15  and  C_16 
REMARK    6  A    between atoms: C_16  and  C_17 
REMARK    7  A    between atoms: C_17  and  C_18 
ROOT
HETATM    1  C   UNL     1      41.043 -12.342   0.335  1.00  0.00     0.288 C 
HETATM    2  N   UNL     1      41.459 -13.623   0.048  1.00  0.00    -0.262 N 
HETATM    3  O   UNL     1      40.920 -11.936   1.488  1.00  0.00    -0.264 OA
HETATM    4  H   UNL     1      41.594 -13.975  -0.897  1.00  0.00     0.190 HD
ENDROOT
BRANCH   1   5
HETATM    5  C   UNL     1      40.763 -11.525  -0.814  1.00  0.00     0.121 A 
HETATM    6  N   UNL     1      39.646 -11.702  -1.580  1.00  0.00    -0.272 N 
HETATM    7  N   UNL     1      39.559 -10.867  -2.627  1.00  0.00    -0.174 NA
HETATM    8  H   UNL     1      38.913 -12.391  -1.441  1.00  0.00     0.189 HD
HETATM    9  C   UNL     1      40.646 -10.086  -2.532  1.00  0.00     0.089 A 
HETATM   10  C   UNL     1      41.430 -10.472  -1.409  1.00  0.00     0.071 A 
BRANCH   9  11
HETATM   11  C   UNL     1      40.932  -9.022  -3.499  1.00  0.00    -0.005 A 
HETATM   12  C   UNL     1      41.995  -8.133  -3.302  1.00  0.00     0.016 A 
HETATM   13  C   UNL     1      42.277  -7.142  -4.247  1.00  0.00     0.037 A 
HETATM   14  C   UNL     1      41.511  -7.022  -5.407  1.00  0.00     0.068 A 
HETATM   15  C   UNL     1      40.438  -7.891  -5.604  1.00  0.00     0.037 A 
HETATM   16  C   UNL     1      40.151  -8.881  -4.655  1.00  0.00     0.016 A 
BRANCH  14  17
HETATM   17  O   UNL     1      41.905  -6.023  -6.252  1.00  0.00    -0.356 OA
HETATM   18  C   UNL     1      43.289  -5.966  -6.572  1.00  0.00     0.210 C 
ENDBRANCH  14  17
ENDBRANCH   9  11
ENDBRANCH   1   5
BRANCH   2  19
HETATM   19  N   UNL     1      41.804 -14.495   1.082  1.00  0.00    -0.267 N 
HETATM   20  C   UNL     1      40.919 -15.512   1.376  1.00  0.00     0.236 C 
HETATM   21  O   UNL     1      39.845 -15.632   0.791  1.00  0.00    -0.272 OA
HETATM   22  H   UNL     1      42.737 -14.406   1.482  1.00  0.00     0.190 HD
BRANCH  20  23
HETATM   23  C   UNL     1      41.412 -16.450   2.452  1.00  0.00     0.109 C 
BRANCH  23  24
HETATM   24  C   UNL     1      42.905 -16.729   2.293  1.00  0.00     0.049 C 
BRANCH  24  25
HETATM   25  C   UNL     1      43.305 -18.062   2.881  1.00  0.00    -0.036 A 
HETATM   26  C   UNL     1      43.836 -18.199   4.173  1.00  0.00     0.040 A 
HETATM   27 CL   UNL     1      44.080 -16.838   5.209  1.00  0.00    -0.084 Cl
HETATM   28  C   UNL     1      44.191 -19.459   4.666  1.00  0.00     0.024 A 
HETATM   29  C   UNL     1      44.024 -20.595   3.877  1.00  0.00     0.002 A 
HETATM   30  C   UNL     1      43.506 -20.475   2.591  1.00  0.00     0.001 A 
HETATM   31  C   UNL     1      43.151 -19.218   2.094  1.00  0.00     0.009 A 
ENDBRANCH  24  25
ENDBRANCH  23  24
ENDBRANCH  20  23
ENDBRANCH   2  19
TORSDOF 7
ENDMDL
MODEL 9
REMARK VINA RESULT:      -8.0      3.696     11.054
REMARK  7 active torsions:
REMARK  status: ('A' for Active; 'I' for Inactive)
REMARK    1  A    between atoms: O_2  and  C_3 
REMARK    2  A    between atoms: C_6  and  C_7 
REMARK    3  A    between atoms: C_11  and  C_12 
REMARK       I    between atoms: C_12  and  N_13 
REMARK    4  A    between atoms: N_13  and  N_14 
REMARK       I    between atoms: N_14  and  C_15 
REMARK    5  A    between atoms: C_15  and  C_16 
REMARK    6  A    between atoms: C_16  and  C_17 
REMARK    7  A    between atoms: C_17  and  C_18 
ROOT
HETATM    1  C   UNL     1      42.387 -11.581   6.170  1.00  0.00     0.288 C 
HETATM    2  N   UNL     1      41.109 -11.359   6.635  1.00  0.00    -0.262 N 
HETATM    3  O   UNL     1      43.326 -10.845   6.461  1.00  0.00    -0.264 OA
HETATM    4  H   UNL     1      40.319 -11.967   6.430  1.00  0.00     0.190 HD
ENDROOT
BRANCH   1   5
HETATM    5  C   UNL     1      42.530 -12.733   5.322  1.00  0.00     0.121 A 
HETATM    6  N   UNL     1      42.282 -12.686   3.979  1.00  0.00    -0.272 N 
HETATM    7  N   UNL     1      42.443 -13.859   3.348  1.00  0.00    -0.174 NA
HETATM    8  H   UNL     1      41.985 -11.877   3.442  1.00  0.00     0.189 HD
HETATM    9  C   UNL     1      42.842 -14.709   4.306  1.00  0.00     0.089 A 
HETATM   10  C   UNL     1      42.905 -14.040   5.561  1.00  0.00     0.071 A 
BRANCH   9  11
HETATM   11  C   UNL     1      43.133 -16.119   4.029  1.00  0.00    -0.005 A 
HETATM   12  C   UNL     1      42.810 -16.693   2.793  1.00  0.00     0.016 A 
HETATM   13  C   UNL     1      43.121 -18.031   2.528  1.00  0.00     0.037 A 
HETATM   14  C   UNL     1      43.764 -18.817   3.485  1.00  0.00     0.068 A 
HETATM   15  C   UNL     1      44.073 -18.260   4.725  1.00  0.00     0.037 A 
HETATM   16  C   UNL     1      43.758 -16.922   4.994  1.00  0.00     0.016 A 
BRANCH  14  17
HETATM   17  O   UNL     1      44.023 -20.100   3.089  1.00  0.00    -0.356 OA
HETATM   18  C   UNL     1      43.617 -20.457   1.775  1.00  0.00     0.210 C 
ENDBRANCH  14  17
ENDBRANCH   9  11
ENDBRANCH   1   5
BRANCH   2  19
HETATM   19  N   UNL     1      40.854 -10.296   7.503  1.00  0.00    -0.267 N 
HETATM   20  C   UNL     1      39.556 -10.129   7.938  1.00  0.00     0.236 C 
HETATM   21  O   UNL     1      38.639 -10.850   7.549  1.00  0.00    -0.272 OA
HETATM   22  H   UNL     1      41.655  -9.777   7.859  1.00  0.00     0.190 HD
BRANCH  20  23
HETATM   23  C   UNL     1      39.391  -9.005   8.933  1.00  0.00     0.109 C 
BRANCH  23  24
HETATM   24  C   UNL     1      40.748  -8.523   9.444  1.00  0.00     0.049 C 
BRANCH  24  25
HETATM   25  C   UNL     1      40.955  -8.840  10.906  1.00  0.00    -0.036 A 
HETATM   26  C   UNL     1      42.067  -9.552  11.383  1.00  0.00     0.040 A 
HETATM   27 CL   UNL     1      43.304 -10.130  10.325  1.00  0.00    -0.084 Cl
HETATM   28  C   UNL     1      42.208  -9.819  12.749  1.00  0.00     0.024 A 
HETATM   29  C   UNL     1      41.241  -9.384  13.654  1.00  0.00     0.002 A 
HETATM   30  C   UNL     1      40.128  -8.684  13.194  1.00  0.00     0.001 A 
HETATM   31  C   UNL     1      39.984  -8.416  11.832  1.00  0.00     0.009 A 
ENDBRANCH  24  25
ENDBRANCH  23  24
ENDBRANCH  20  23
ENDBRANCH   2  19
TORSDOF 7
ENDMDL
MODEL 10
REMARK VINA RESULT:      -7.9      2.627      3.428
REMARK  7 active torsions:
REMARK  status: ('A' for Active; 'I' for Inactive)
REMARK    1  A    between atoms: O_2  and  C_3 
REMARK    2  A    between atoms: C_6  and  C_7 
REMARK    3  A    between atoms: C_11  and  C_12 
REMARK       I    between atoms: C_12  and  N_13 
REMARK    4  A    between atoms: N_13  and  N_14 
REMARK       I    between atoms: N_14  and  C_15 
REMARK    5  A    between atoms: C_15  and  C_16 
REMARK    6  A    between atoms: C_16  and  C_17 
REMARK    7  A    between atoms: C_17  and  C_18 
ROOT
HETATM    1  C   UNL     1      43.847 -10.681   8.256  1.00  0.00     0.288 C 
HETATM    2  N   UNL     1      42.707 -10.899   7.514  1.00  0.00    -0.262 N 
HETATM    3  O   UNL     1      44.968 -10.703   7.755  1.00  0.00    -0.264 OA
HETATM    4  H   UNL     1      41.765 -10.861   7.900  1.00  0.00     0.190 HD
ENDROOT
BRANCH   1   5
HETATM    5  C   UNL     1      43.620 -10.431   9.653  1.00  0.00     0.121 A 
HETATM    6  N   UNL     1      43.729 -11.412  10.597  1.00  0.00    -0.272 N 
HETATM    7  N   UNL     1      43.460 -11.006  11.848  1.00  0.00    -0.174 NA
HETATM    8  H   UNL     1      43.973 -12.385  10.441  1.00  0.00     0.189 HD
HETATM    9  C   UNL     1      43.191  -9.696  11.730  1.00  0.00     0.089 A 
HETATM   10  C   UNL     1      43.277  -9.299  10.366  1.00  0.00     0.071 A 
BRANCH   9  11
HETATM   11  C   UNL     1      42.844  -8.863  12.885  1.00  0.00    -0.005 A 
HETATM   12  C   UNL     1      43.468  -7.628  13.098  1.00  0.00     0.016 A 
HETATM   13  C   UNL     1      43.106  -6.827  14.186  1.00  0.00     0.037 A 
HETATM   14  C   UNL     1      42.113  -7.238  15.075  1.00  0.00     0.068 A 
HETATM   15  C   UNL     1      41.498  -8.474  14.882  1.00  0.00     0.037 A 
HETATM   16  C   UNL     1      41.863  -9.280  13.796  1.00  0.00     0.016 A 
BRANCH  14  17
HETATM   17  O   UNL     1      41.846  -6.352  16.083  1.00  0.00    -0.356 OA
HETATM   18  C   UNL     1      41.290  -5.101  15.702  1.00  0.00     0.210 C 
ENDBRANCH  14  17
ENDBRANCH   9  11
ENDBRANCH   1   5
BRANCH   2  19
HETATM   19  N   UNL     1      42.796 -11.108   6.137  1.00  0.00    -0.267 N 
HETATM   20  C   UNL     1      41.865 -11.947   5.561  1.00  0.00     0.236 C 
HETATM   21  O   UNL     1      41.011 -12.530   6.226  1.00  0.00    -0.272 OA
HETATM   22  H   UNL     1      43.466 -10.543   5.618  1.00  0.00     0.190 HD
BRANCH  20  23
HETATM   23  C   UNL     1      41.991 -12.051   4.059  1.00  0.00     0.109 C 
BRANCH  23  24
HETATM   24  C   UNL     1      43.296 -12.741   3.668  1.00  0.00     0.049 C 
BRANCH  24  25
HETATM   25  C   UNL     1      43.080 -14.175   3.241  1.00  0.00    -0.036 A 
HETATM   26  C   UNL     1      43.117 -15.253   4.139  1.00  0.00     0.040 A 
HETATM   27 CL   UNL     1      43.416 -15.026   5.825  1.00  0.00    -0.084 Cl
HETATM   28  C   UNL     1      42.912 -16.561   3.688  1.00  0.00     0.024 A 
HETATM   29  C   UNL     1      42.671 -16.809   2.338  1.00  0.00     0.002 A 
HETATM   30  C   UNL     1      42.640 -15.751   1.434  1.00  0.00     0.001 A 
HETATM   31  C   UNL     1      42.845 -14.444   1.880  1.00  0.00     0.009 A 
ENDBRANCH  24  25
ENDBRANCH  23  24
ENDBRANCH  20  23
ENDBRANCH   2  19
TORSDOF 7
ENDMDL
