MODEL 1
REMARK VINA RESULT:      -8.6      0.000      0.000
REMARK  4 active torsions:
REMARK  status: ('A' for Active; 'I' for Inactive)
REMARK    1  A    between atoms: N_1  and  C_2 
REMARK    2  A    between atoms: C_2  and  C_3 
REMARK    3  A    between atoms: C_3  and  C_4 
REMARK    4  A    between atoms: N_13  and  C_16 
ROOT
HETATM    1  C   UNL     1      43.007 -16.167   6.755  1.00  0.00     0.162 C 
HETATM    2  C   UNL     1      41.619 -16.606   6.218  1.00  0.00     0.061 C 
HETATM    3  C   UNL     1      40.650 -15.447   5.973  1.00  0.00     0.125 C 
HETATM    4  N   UNL     1      41.302 -14.455   5.111  1.00  0.00    -0.380 N 
HETATM    5  C   UNL     1      42.520 -13.875   5.705  1.00  0.00     0.125 C 
HETATM    6  C   UNL     1      43.543 -14.989   5.910  1.00  0.00     0.061 C 
ENDROOT
BRANCH   1   7
HETATM    7  N   UNL     1      42.878 -15.749   8.165  1.00  0.00     0.088 N 
HETATM    8  H   UNL     1      42.575 -16.533   8.742  1.00  0.00     0.313 HD
HETATM    9  H   UNL     1      42.191 -15.011   8.285  1.00  0.00     0.313 HD
ENDBRANCH   1   7
BRANCH   1  10
HETATM   10  C   UNL     1      43.966 -17.401   6.658  1.00  0.00     0.079 C 
BRANCH  10  11
HETATM   11  C   UNL     1      43.914 -18.212   5.380  1.00  0.00    -0.056 A 
HETATM   12  C   UNL     1      43.942 -19.613   5.419  1.00  0.00     0.009 A 
HETATM   13  C   UNL     1      43.883 -20.356   4.238  1.00  0.00     0.024 A 
HETATM   14  C   UNL     1      43.798 -19.704   3.011  1.00  0.00     0.034 A 
HETATM   15 CL   UNL     1      43.729 -20.619   1.556  1.00  0.00    -0.084 Cl
HETATM   16  C   UNL     1      43.770 -18.312   2.955  1.00  0.00     0.024 A 
HETATM   17  C   UNL     1      43.825 -17.569   4.136  1.00  0.00     0.009 A 
ENDBRANCH  10  11
ENDBRANCH   1  10
BRANCH   4  18
HETATM   18  C   UNL     1      40.549 -13.609   4.309  1.00  0.00     0.045 A 
HETATM   19  C   UNL     1      39.938 -12.437   4.799  1.00  0.00     0.047 A 
HETATM   20  C   UNL     1      39.155 -11.621   3.989  1.00  0.00     0.092 A 
HETATM   21  N   UNL     1      38.946 -11.921   2.705  1.00  0.00    -0.351 N 
HETATM   22  H   UNL     1      38.367 -11.321   2.120  1.00  0.00     0.166 HD
HETATM   23  C   UNL     1      39.508 -13.047   2.199  1.00  0.00     0.117 A 
HETATM   24  N   UNL     1      39.396 -13.528   0.920  1.00  0.00    -0.352 N 
HETATM   25  C   UNL     1      40.299 -13.909   2.944  1.00  0.00     0.036 A 
HETATM   26  H   UNL     1      38.884 -13.110   0.153  1.00  0.00     0.166 HD
HETATM   27  C   UNL     1      40.087 -14.709   0.828  1.00  0.00     0.090 A 
HETATM   28  C   UNL     1      40.643 -14.974   2.061  1.00  0.00     0.034 A 
ENDBRANCH   4  18
TORSDOF 4
ENDMDL
MODEL 2
REMARK VINA RESULT:      -8.4      2.557      4.192
REMARK  4 active torsions:
REMARK  status: ('A' for Active; 'I' for Inactive)
REMARK    1  A    between atoms: N_1  and  C_2 
REMARK    2  A    between atoms: C_2  and  C_3 
REMARK    3  A    between atoms: C_3  and  C_4 
REMARK    4  A    between atoms: N_13  and  C_16 
ROOT
HETATM    1  C   UNL     1      42.170 -15.071   2.241  1.00  0.00     0.162 C 
HETATM    2  C   UNL     1      41.117 -15.850   1.409  1.00  0.00     0.061 C 
HETATM    3  C   UNL     1      39.822 -15.074   1.157  1.00  0.00     0.125 C 
HETATM    4  N   UNL     1      40.155 -13.771   0.570  1.00  0.00    -0.380 N 
HETATM    5  C   UNL     1      40.992 -12.932   1.446  1.00  0.00     0.125 C 
HETATM    6  C   UNL     1      42.325 -13.640   1.676  1.00  0.00     0.061 C 
ENDROOT
BRANCH   1   7
HETATM    7  N   UNL     1      41.732 -15.004   3.649  1.00  0.00     0.088 N 
HETATM    8  H   UNL     1      42.171 -15.746   4.193  1.00  0.00     0.313 HD
HETATM    9  H   UNL     1      40.728 -15.122   3.745  1.00  0.00     0.313 HD
ENDBRANCH   1   7
BRANCH   1  10
HETATM   10  C   UNL     1      43.523 -15.853   2.148  1.00  0.00     0.079 C 
BRANCH  10  11
HETATM   11  C   UNL     1      43.621 -17.150   2.924  1.00  0.00    -0.056 A 
HETATM   12  C   UNL     1      43.445 -18.384   2.282  1.00  0.00     0.009 A 
HETATM   13  C   UNL     1      43.546 -19.577   3.001  1.00  0.00     0.024 A 
HETATM   14  C   UNL     1      43.822 -19.544   4.365  1.00  0.00     0.034 A 
HETATM   15 CL   UNL     1      43.945 -21.014   5.251  1.00  0.00    -0.084 Cl
HETATM   16  C   UNL     1      43.999 -18.327   5.017  1.00  0.00     0.024 A 
HETATM   17  C   UNL     1      43.901 -17.133   4.299  1.00  0.00     0.009 A 
ENDBRANCH  10  11
ENDBRANCH   1  10
BRANCH   4  18
HETATM   18  C   UNL     1      39.240 -13.099  -0.229  1.00  0.00     0.045 A 
HETATM   19  C   UNL     1      38.637 -11.885   0.157  1.00  0.00     0.047 A 
HETATM   20  C   UNL     1      37.693 -11.246  -0.641  1.00  0.00     0.092 A 
HETATM   21  N   UNL     1      37.315 -11.765  -1.811  1.00  0.00    -0.351 N 
HETATM   22  H   UNL     1      36.619 -11.293  -2.387  1.00  0.00     0.166 HD
HETATM   23  C   UNL     1      37.864 -12.938  -2.212  1.00  0.00     0.117 A 
HETATM   24  N   UNL     1      37.594 -13.630  -3.364  1.00  0.00    -0.352 N 
HETATM   25  C   UNL     1      38.809 -13.634  -1.472  1.00  0.00     0.036 A 
HETATM   26  H   UNL     1      36.948 -13.367  -4.098  1.00  0.00     0.166 HD
HETATM   27  C   UNL     1      38.335 -14.784  -3.373  1.00  0.00     0.090 A 
HETATM   28  C   UNL     1      39.084 -14.818  -2.215  1.00  0.00     0.034 A 
ENDBRANCH   4  18
TORSDOF 4
ENDMDL
MODEL 3
REMARK VINA RESULT:      -8.3      3.828      7.898
REMARK  4 active torsions:
REMARK  status: ('A' for Active; 'I' for Inactive)
REMARK    1  A    between atoms: N_1  and  C_2 
REMARK    2  A    between atoms: C_2  and  C_3 
REMARK    3  A    between atoms: C_3  and  C_4 
REMARK    4  A    between atoms: N_13  and  C_16 
ROOT
HETATM    1  C   UNL     1      40.071 -14.439   0.787  1.00  0.00     0.162 C 
HETATM    2  C   UNL     1      41.569 -14.044   0.888  1.00  0.00     0.061 C 
HETATM    3  C   UNL     1      42.134 -14.105   2.310  1.00  0.00     0.125 C 
HETATM    4  N   UNL     1      41.858 -15.428   2.877  1.00  0.00    -0.380 N 
HETATM    5  C   UNL     1      40.419 -15.733   2.976  1.00  0.00     0.125 C 
HETATM    6  C   UNL     1      39.822 -15.747   1.571  1.00  0.00     0.061 C 
ENDROOT
BRANCH   1   7
HETATM    7  N   UNL     1      39.239 -13.356   1.349  1.00  0.00     0.088 N 
HETATM    8  H   UNL     1      39.597 -13.070   2.260  1.00  0.00     0.313 HD
HETATM    9  H   UNL     1      38.276 -13.645   1.488  1.00  0.00     0.313 HD
ENDBRANCH   1   7
BRANCH   1  10
HETATM   10  C   UNL     1      39.731 -14.629  -0.730  1.00  0.00     0.079 C 
BRANCH  10  11
HETATM   11  C   UNL     1      39.390 -13.382  -1.518  1.00  0.00    -0.056 A 
HETATM   12  C   UNL     1      40.400 -12.532  -1.991  1.00  0.00     0.009 A 
HETATM   13  C   UNL     1      40.079 -11.389  -2.726  1.00  0.00     0.024 A 
HETATM   14  C   UNL     1      38.746 -11.087  -2.992  1.00  0.00     0.034 A 
HETATM   15 CL   UNL     1      38.350  -9.677  -3.895  1.00  0.00    -0.084 Cl
HETATM   16  C   UNL     1      37.731 -11.919  -2.529  1.00  0.00     0.024 A 
HETATM   17  C   UNL     1      38.051 -13.065  -1.796  1.00  0.00     0.009 A 
ENDBRANCH  10  11
ENDBRANCH   1  10
BRANCH   4  18
HETATM   18  C   UNL     1      42.665 -15.955   3.875  1.00  0.00     0.045 A 
HETATM   19  C   UNL     1      42.982 -15.247   5.052  1.00  0.00     0.047 A 
HETATM   20  C   UNL     1      43.825 -15.776   6.025  1.00  0.00     0.092 A 
HETATM   21  N   UNL     1      44.375 -16.984   5.878  1.00  0.00    -0.351 N 
HETATM   22  H   UNL     1      44.995 -17.362   6.592  1.00  0.00     0.166 HD
HETATM   23  C   UNL     1      44.102 -17.692   4.754  1.00  0.00     0.117 A 
HETATM   24  N   UNL     1      44.581 -18.931   4.417  1.00  0.00    -0.352 N 
HETATM   25  C   UNL     1      43.274 -17.231   3.741  1.00  0.00     0.036 A 
HETATM   26  H   UNL     1      45.205 -19.514   4.961  1.00  0.00     0.166 HD
HETATM   27  C   UNL     1      44.092 -19.276   3.182  1.00  0.00     0.090 A 
HETATM   28  C   UNL     1      43.294 -18.243   2.737  1.00  0.00     0.034 A 
ENDBRANCH   4  18
TORSDOF 4
ENDMDL
MODEL 4
REMARK VINA RESULT:      -8.2      2.334      4.523
REMARK  4 active torsions:
REMARK  status: ('A' for Active; 'I' for Inactive)
REMARK    1  A    between atoms: N_1  and  C_2 
REMARK    2  A    between atoms: C_2  and  C_3 
REMARK    3  A    between atoms: C_3  and  C_4 
REMARK    4  A    between atoms: N_13  and  C_16 
ROOT
HETATM    1  C   UNL     1      42.335 -15.281   1.865  1.00  0.00     0.162 C 
HETATM    2  C   UNL     1      43.218 -14.024   2.085  1.00  0.00     0.061 C 
HETATM    3  C   UNL     1      42.492 -12.863   2.769  1.00  0.00     0.125 C 
HETATM    4  N   UNL     1      41.880 -13.349   4.010  1.00  0.00    -0.380 N 
HETATM    5  C   UNL     1      40.879 -14.410   3.793  1.00  0.00     0.125 C 
HETATM    6  C   UNL     1      41.574 -15.618   3.168  1.00  0.00     0.061 C 
ENDROOT
BRANCH   1   7
HETATM    7  N   UNL     1      41.370 -15.019   0.780  1.00  0.00     0.088 N 
HETATM    8  H   UNL     1      40.482 -15.480   0.975  1.00  0.00     0.313 HD
HETATM    9  H   UNL     1      41.694 -15.371  -0.116  1.00  0.00     0.313 HD
ENDBRANCH   1   7
BRANCH   1  10
HETATM   10  C   UNL     1      43.279 -16.460   1.455  1.00  0.00     0.079 C 
BRANCH  10  11
HETATM   11  C   UNL     1      43.513 -17.543   2.487  1.00  0.00    -0.056 A 
HETATM   12  C   UNL     1      43.949 -17.221   3.780  1.00  0.00     0.009 A 
HETATM   13  C   UNL     1      44.153 -18.223   4.730  1.00  0.00     0.024 A 
HETATM   14  C   UNL     1      43.924 -19.555   4.394  1.00  0.00     0.034 A 
HETATM   15 CL   UNL     1      44.177 -20.790   5.564  1.00  0.00    -0.084 Cl
HETATM   16  C   UNL     1      43.491 -19.892   3.114  1.00  0.00     0.024 A 
HETATM   17  C   UNL     1      43.283 -18.890   2.164  1.00  0.00     0.009 A 
ENDBRANCH  10  11
ENDBRANCH   1  10
BRANCH   4  18
HETATM   18  C   UNL     1      41.632 -12.483   5.066  1.00  0.00     0.045 A 
HETATM   19  C   UNL     1      40.394 -11.835   5.247  1.00  0.00     0.047 A 
HETATM   20  C   UNL     1      40.177 -10.939   6.289  1.00  0.00     0.092 A 
HETATM   21  N   UNL     1      41.144 -10.652   7.164  1.00  0.00    -0.351 N 
HETATM   22  H   UNL     1      40.979  -9.991   7.921  1.00  0.00     0.166 HD
HETATM   23  C   UNL     1      42.354 -11.247   7.017  1.00  0.00     0.117 A 
HETATM   24  N   UNL     1      43.467 -11.070   7.797  1.00  0.00    -0.352 N 
HETATM   25  C   UNL     1      42.645 -12.149   6.003  1.00  0.00     0.036 A 
HETATM   26  H   UNL     1      43.554 -10.473   8.611  1.00  0.00     0.166 HD
HETATM   27  C   UNL     1      44.491 -11.829   7.290  1.00  0.00     0.090 A 
HETATM   28  C   UNL     1      44.017 -12.494   6.179  1.00  0.00     0.034 A 
ENDBRANCH   4  18
TORSDOF 4
ENDMDL
MODEL 5
REMARK VINA RESULT:      -8.1      1.325      1.996
REMARK  4 active torsions:
REMARK  status: ('A' for Active; 'I' for Inactive)
REMARK    1  A    between atoms: N_1  and  C_2 
REMARK    2  A    between atoms: C_2  and  C_3 
REMARK    3  A    between atoms: C_3  and  C_4 
REMARK    4  A    between atoms: N_13  and  C_16 
ROOT
HETATM    1  C   UNL     1      42.726 -14.481   5.559  1.00  0.00     0.162 C 
HETATM    2  C   UNL     1      41.384 -15.176   5.205  1.00  0.00     0.061 C 
HETATM    3  C   UNL     1      40.286 -14.213   4.747  1.00  0.00     0.125 C 
HETATM    4  N   UNL     1      40.802 -13.388   3.650  1.00  0.00    -0.380 N 
HETATM    5  C   UNL     1      41.960 -12.561   4.035  1.00  0.00     0.125 C 
HETATM    6  C   UNL     1      43.107 -13.483   4.441  1.00  0.00     0.061 C 
ENDROOT
BRANCH   1   7
HETATM    7  N   UNL     1      42.584 -13.761   6.839  1.00  0.00     0.088 N 
HETATM    8  H   UNL     1      43.489 -13.673   7.300  1.00  0.00     0.313 HD
HETATM    9  H   UNL     1      41.969 -14.245   7.486  1.00  0.00     0.313 HD
ENDBRANCH   1   7
BRANCH   1  10
HETATM   10  C   UNL     1      43.816 -15.596   5.701  1.00  0.00     0.079 C 
BRANCH  10  11
HETATM   11  C   UNL     1      43.741 -16.757   4.732  1.00  0.00    -0.056 A 
HETATM   12  C   UNL     1      43.396 -16.549   3.389  1.00  0.00     0.009 A 
HETATM   13  C   UNL     1      43.339 -17.621   2.497  1.00  0.00     0.024 A 
HETATM   14  C   UNL     1      43.624 -18.909   2.942  1.00  0.00     0.034 A 
HETATM   15 CL   UNL     1      43.552 -20.232   1.844  1.00  0.00    -0.084 Cl
HETATM   16  C   UNL     1      43.969 -19.133   4.272  1.00  0.00     0.024 A 
HETATM   17  C   UNL     1      44.030 -18.060   5.164  1.00  0.00     0.009 A 
ENDBRANCH  10  11
ENDBRANCH   1  10
BRANCH   4  18
HETATM   18  C   UNL     1      39.940 -12.835   2.713  1.00  0.00     0.045 A 
HETATM   19  C   UNL     1      39.072 -11.767   3.011  1.00  0.00     0.047 A 
HETATM   20  C   UNL     1      38.187 -11.251   2.069  1.00  0.00     0.092 A 
HETATM   21  N   UNL     1      38.123 -11.757   0.835  1.00  0.00    -0.351 N 
HETATM   22  H   UNL     1      37.469 -11.377   0.152  1.00  0.00     0.166 HD
HETATM   23  C   UNL     1      38.936 -12.794   0.512  1.00  0.00     0.117 A 
HETATM   24  N   UNL     1      39.004 -13.452  -0.688  1.00  0.00    -0.352 N 
HETATM   25  C   UNL     1      39.841 -13.361   1.397  1.00  0.00     0.036 A 
HETATM   26  H   UNL     1      38.464 -13.260  -1.522  1.00  0.00     0.166 HD
HETATM   27  C   UNL     1      39.929 -14.461  -0.589  1.00  0.00     0.090 A 
HETATM   28  C   UNL     1      40.451 -14.435   0.686  1.00  0.00     0.034 A 
ENDBRANCH   4  18
TORSDOF 4
ENDMDL
MODEL 6
REMARK VINA RESULT:      -7.9      2.969      4.773
REMARK  4 active torsions:
REMARK  status: ('A' for Active; 'I' for Inactive)
REMARK    1  A    between atoms: N_1  and  C_2 
REMARK    2  A    between atoms: C_2  and  C_3 
REMARK    3  A    between atoms: C_3  and  C_4 
REMARK    4  A    between atoms: N_13  and  C_16 
ROOT
HETATM    1  C   UNL     1      41.377 -14.675   2.562  1.00  0.00     0.162 C 
HETATM    2  C   UNL     1      41.447 -15.308   1.147  1.00  0.00     0.061 C 
HETATM    3  C   UNL     1      40.255 -14.963   0.251  1.00  0.00     0.125 C 
HETATM    4  N   UNL     1      40.094 -13.506   0.211  1.00  0.00    -0.380 N 
HETATM    5  C   UNL     1      39.819 -12.913   1.532  1.00  0.00     0.125 C 
HETATM    6  C   UNL     1      41.014 -13.177   2.446  1.00  0.00     0.061 C 
ENDROOT
BRANCH   1   7
HETATM    7  N   UNL     1      40.353 -15.373   3.363  1.00  0.00     0.088 N 
HETATM    8  H   UNL     1      40.569 -15.302   4.357  1.00  0.00     0.313 HD
HETATM    9  H   UNL     1      40.302 -16.364   3.142  1.00  0.00     0.313 HD
ENDBRANCH   1   7
BRANCH   1  10
HETATM   10  C   UNL     1      42.780 -14.854   3.233  1.00  0.00     0.079 C 
BRANCH  10  11
HETATM   11  C   UNL     1      43.163 -16.255   3.660  1.00  0.00    -0.056 A 
HETATM   12  C   UNL     1      43.413 -17.252   2.706  1.00  0.00     0.009 A 
HETATM   13  C   UNL     1      43.776 -18.540   3.104  1.00  0.00     0.024 A 
HETATM   14  C   UNL     1      43.889 -18.841   4.459  1.00  0.00     0.034 A 
HETATM   15 CL   UNL     1      44.334 -20.429   4.951  1.00  0.00    -0.084 Cl
HETATM   16  C   UNL     1      43.644 -17.863   5.419  1.00  0.00     0.024 A 
HETATM   17  C   UNL     1      43.285 -16.573   5.021  1.00  0.00     0.009 A 
ENDBRANCH  10  11
ENDBRANCH   1  10
BRANCH   4  18
HETATM   18  C   UNL     1      39.488 -12.889  -0.874  1.00  0.00     0.045 A 
HETATM   19  C   UNL     1      38.341 -13.410  -1.507  1.00  0.00     0.047 A 
HETATM   20  C   UNL     1      37.771 -12.798  -2.618  1.00  0.00     0.092 A 
HETATM   21  N   UNL     1      38.296 -11.685  -3.137  1.00  0.00    -0.351 N 
HETATM   22  H   UNL     1      37.875 -11.246  -3.954  1.00  0.00     0.166 HD
HETATM   23  C   UNL     1      39.406 -11.159  -2.563  1.00  0.00     0.117 A 
HETATM   24  N   UNL     1      40.094 -10.041  -2.958  1.00  0.00    -0.352 N 
HETATM   25  C   UNL     1      40.031 -11.712  -1.455  1.00  0.00     0.036 A 
HETATM   26  H   UNL     1      39.872  -9.430  -3.735  1.00  0.00     0.166 HD
HETATM   27  C   UNL     1      41.177  -9.871  -2.133  1.00  0.00     0.090 A 
HETATM   28  C   UNL     1      41.169 -10.892  -1.207  1.00  0.00     0.034 A 
ENDBRANCH   4  18
TORSDOF 4
ENDMDL
MODEL 7
REMARK VINA RESULT:      -7.9      3.395      7.336
REMARK  4 active torsions:
REMARK  status: ('A' for Active; 'I' for Inactive)
REMARK    1  A    between atoms: N_1  and  C_2 
REMARK    2  A    between atoms: C_2  and  C_3 
REMARK    3  A    between atoms: C_3  and  C_4 
REMARK    4  A    between atoms: N_13  and  C_16 
ROOT
HETATM    1  C   UNL     1      41.316 -13.748   2.162  1.00  0.00     0.162 C 
HETATM    2  C   UNL     1      42.723 -13.758   2.816  1.00  0.00     0.061 C 
HETATM    3  C   UNL     1      42.852 -14.713   4.005  1.00  0.00     0.125 C 
HETATM    4  N   UNL     1      42.411 -16.049   3.593  1.00  0.00    -0.380 N 
HETATM    5  C   UNL     1      41.002 -16.093   3.161  1.00  0.00     0.125 C 
HETATM    6  C   UNL     1      40.838 -15.200   1.934  1.00  0.00     0.061 C 
ENDROOT
BRANCH   1   7
HETATM    7  N   UNL     1      40.367 -13.047   3.050  1.00  0.00     0.088 N 
HETATM    8  H   UNL     1      40.080 -13.656   3.816  1.00  0.00     0.313 HD
HETATM    9  H   UNL     1      39.521 -12.767   2.563  1.00  0.00     0.313 HD
ENDBRANCH   1   7
BRANCH   1  10
HETATM   10  C   UNL     1      41.428 -12.981   0.802  1.00  0.00     0.079 C 
BRANCH  10  11
HETATM   11  C   UNL     1      40.235 -13.052  -0.127  1.00  0.00    -0.056 A 
HETATM   12  C   UNL     1      39.228 -12.078  -0.077  1.00  0.00     0.009 A 
HETATM   13  C   UNL     1      38.135 -12.144  -0.943  1.00  0.00     0.024 A 
HETATM   14  C   UNL     1      38.040 -13.184  -1.863  1.00  0.00     0.034 A 
HETATM   15 CL   UNL     1      36.692 -13.267  -2.929  1.00  0.00    -0.084 Cl
HETATM   16  C   UNL     1      39.031 -14.161  -1.925  1.00  0.00     0.024 A 
HETATM   17  C   UNL     1      40.127 -14.094  -1.061  1.00  0.00     0.009 A 
ENDBRANCH  10  11
ENDBRANCH   1  10
BRANCH   4  18
HETATM   18  C   UNL     1      42.889 -17.183   4.234  1.00  0.00     0.045 A 
HETATM   19  C   UNL     1      43.154 -17.223   5.618  1.00  0.00     0.047 A 
HETATM   20  C   UNL     1      43.671 -18.357   6.236  1.00  0.00     0.092 A 
HETATM   21  N   UNL     1      43.941 -19.461   5.536  1.00  0.00    -0.351 N 
HETATM   22  H   UNL     1      44.323 -20.286   5.996  1.00  0.00     0.166 HD
HETATM   23  C   UNL     1      43.709 -19.459   4.200  1.00  0.00     0.117 A 
HETATM   24  N   UNL     1      43.937 -20.482   3.317  1.00  0.00    -0.352 N 
HETATM   25  C   UNL     1      43.198 -18.367   3.514  1.00  0.00     0.036 A 
HETATM   26  H   UNL     1      44.305 -21.402   3.528  1.00  0.00     0.166 HD
HETATM   27  C   UNL     1      43.602 -20.062   2.055  1.00  0.00     0.090 A 
HETATM   28  C   UNL     1      43.155 -18.761   2.144  1.00  0.00     0.034 A 
ENDBRANCH   4  18
TORSDOF 4
ENDMDL
MODEL 8
REMARK VINA RESULT:      -7.7      3.731      7.980
REMARK  4 active torsions:
REMARK  status: ('A' for Active; 'I' for Inactive)
REMARK    1  A    between atoms: N_1  and  C_2 
REMARK    2  A    between atoms: C_2  and  C_3 
REMARK    3  A    between atoms: C_3  and  C_4 
REMARK    4  A    between atoms: N_13  and  C_16 
ROOT
HETATM    1  C   UNL     1      40.073 -14.462   0.739  1.00  0.00     0.162 C 
HETATM    2  C   UNL     1      41.605 -14.226   0.656  1.00  0.00     0.061 C 
HETATM    3  C   UNL     1      42.362 -14.583   1.938  1.00  0.00     0.125 C 
HETATM    4  N   UNL     1      42.021 -15.955   2.326  1.00  0.00    -0.380 N 
HETATM    5  C   UNL     1      40.587 -16.143   2.611  1.00  0.00     0.125 C 
HETATM    6  C   UNL     1      39.793 -15.859   1.338  1.00  0.00     0.061 C 
ENDROOT
BRANCH   1   7
HETATM    7  N   UNL     1      39.463 -13.425   1.594  1.00  0.00     0.088 N 
HETATM    8  H   UNL     1      39.557 -13.674   2.578  1.00  0.00     0.313 HD
HETATM    9  H   UNL     1      38.470 -13.312   1.412  1.00  0.00     0.313 HD
ENDBRANCH   1   7
BRANCH   1  10
HETATM   10  C   UNL     1      39.495 -14.355  -0.711  1.00  0.00     0.079 C 
BRANCH  10  11
HETATM   11  C   UNL     1      39.851 -13.113  -1.502  1.00  0.00    -0.056 A 
HETATM   12  C   UNL     1      39.275 -11.873  -1.187  1.00  0.00     0.009 A 
HETATM   13  C   UNL     1      39.615 -10.730  -1.913  1.00  0.00     0.024 A 
HETATM   14  C   UNL     1      40.530 -10.817  -2.958  1.00  0.00     0.034 A 
HETATM   15 CL   UNL     1      40.946  -9.409  -3.854  1.00  0.00    -0.084 Cl
HETATM   16  C   UNL     1      41.110 -12.041  -3.284  1.00  0.00     0.024 A 
HETATM   17  C   UNL     1      40.773 -13.185  -2.557  1.00  0.00     0.009 A 
ENDBRANCH  10  11
ENDBRANCH   1  10
BRANCH   4  18
HETATM   18  C   UNL     1      42.900 -16.716   3.084  1.00  0.00     0.045 A 
HETATM   19  C   UNL     1      43.391 -17.966   2.656  1.00  0.00     0.047 A 
HETATM   20  C   UNL     1      44.241 -18.733   3.447  1.00  0.00     0.092 A 
HETATM   21  N   UNL     1      44.625 -18.313   4.654  1.00  0.00    -0.351 N 
HETATM   22  H   UNL     1      45.244 -18.883   5.229  1.00  0.00     0.166 HD
HETATM   23  C   UNL     1      44.166 -17.120   5.106  1.00  0.00     0.117 A 
HETATM   24  N   UNL     1      44.432 -16.532   6.315  1.00  0.00    -0.352 N 
HETATM   25  C   UNL     1      43.315 -16.301   4.377  1.00  0.00     0.036 A 
HETATM   26  H   UNL     1      45.022 -16.894   7.054  1.00  0.00     0.166 HD
HETATM   27  C   UNL     1      43.745 -15.347   6.393  1.00  0.00     0.090 A 
HETATM   28  C   UNL     1      43.041 -15.185   5.219  1.00  0.00     0.034 A 
ENDBRANCH   4  18
TORSDOF 4
ENDMDL
MODEL 9
REMARK VINA RESULT:      -7.7      3.075      7.288
REMARK  4 active torsions:
REMARK  status: ('A' for Active; 'I' for Inactive)
REMARK    1  A    between atoms: N_1  and  C_2 
REMARK    2  A    between atoms: C_2  and  C_3 
REMARK    3  A    between atoms: C_3  and  C_4 
REMARK    4  A    between atoms: N_13  and  C_16 
ROOT
HETATM    1  C   UNL     1      40.482 -12.886   2.134  1.00  0.00     0.162 C 
HETATM    2  C   UNL     1      42.021 -12.893   2.333  1.00  0.00     0.061 C 
HETATM    3  C   UNL     1      42.518 -13.950   3.322  1.00  0.00     0.125 C 
HETATM    4  N   UNL     1      41.993 -15.260   2.923  1.00  0.00    -0.380 N 
HETATM    5  C   UNL     1      40.520 -15.327   2.930  1.00  0.00     0.125 C 
HETATM    6  C   UNL     1      39.979 -14.330   1.908  1.00  0.00     0.061 C 
ENDROOT
BRANCH   1   7
HETATM    7  N   UNL     1      39.835 -12.317   3.332  1.00  0.00     0.088 N 
HETATM    8  H   UNL     1      39.740 -13.029   4.057  1.00  0.00     0.313 HD
HETATM    9  H   UNL     1      38.901 -11.970   3.137  1.00  0.00     0.313 HD
ENDBRANCH   1   7
BRANCH   1  10
HETATM   10  C   UNL     1      40.167 -11.989   0.891  1.00  0.00     0.079 C 
BRANCH  10  11
HETATM   11  C   UNL     1      39.639 -12.688  -0.345  1.00  0.00    -0.056 A 
HETATM   12  C   UNL     1      40.454 -13.563  -1.077  1.00  0.00     0.009 A 
HETATM   13  C   UNL     1      39.959 -14.213  -2.209  1.00  0.00     0.024 A 
HETATM   14  C   UNL     1      38.647 -13.991  -2.618  1.00  0.00     0.034 A 
HETATM   15 CL   UNL     1      38.037 -14.790  -4.014  1.00  0.00    -0.084 Cl
HETATM   16  C   UNL     1      37.824 -13.125  -1.903  1.00  0.00     0.024 A 
HETATM   17  C   UNL     1      38.318 -12.477  -0.768  1.00  0.00     0.009 A 
ENDBRANCH  10  11
ENDBRANCH   1  10
BRANCH   4  18
HETATM   18  C   UNL     1      42.660 -16.427   3.270  1.00  0.00     0.045 A 
HETATM   19  C   UNL     1      43.123 -17.354   2.315  1.00  0.00     0.047 A 
HETATM   20  C   UNL     1      43.755 -18.537   2.684  1.00  0.00     0.092 A 
HETATM   21  N   UNL     1      43.946 -18.846   3.969  1.00  0.00    -0.351 N 
HETATM   22  H   UNL     1      44.405 -19.716   4.231  1.00  0.00     0.166 HD
HETATM   23  C   UNL     1      43.505 -17.983   4.919  1.00  0.00     0.117 A 
HETATM   24  N   UNL     1      43.593 -18.131   6.278  1.00  0.00    -0.352 N 
HETATM   25  C   UNL     1      42.865 -16.787   4.629  1.00  0.00     0.036 A 
HETATM   26  H   UNL     1      44.010 -18.902   6.784  1.00  0.00     0.166 HD
HETATM   27  C   UNL     1      42.996 -17.053   6.881  1.00  0.00     0.090 A 
HETATM   28  C   UNL     1      42.529 -16.215   5.890  1.00  0.00     0.034 A 
ENDBRANCH   4  18
TORSDOF 4
ENDMDL
MODEL 10
REMARK VINA RESULT:      -7.6      6.401      8.636
REMARK  4 active torsions:
REMARK  status: ('A' for Active; 'I' for Inactive)
REMARK    1  A    between atoms: N_1  and  C_2 
REMARK    2  A    between atoms: C_2  and  C_3 
REMARK    3  A    between atoms: C_3  and  C_4 
REMARK    4  A    between atoms: N_13  and  C_16 
ROOT
HETATM    1  C   UNL     1      45.014  -9.819   8.876  1.00  0.00     0.162 C 
HETATM    2  C   UNL     1      43.508 -10.085   8.617  1.00  0.00     0.061 C 
HETATM    3  C   UNL     1      43.145 -10.222   7.136  1.00  0.00     0.125 C 
HETATM    4  N   UNL     1      44.012 -11.234   6.525  1.00  0.00    -0.380 N 
HETATM    5  C   UNL     1      45.444 -10.890   6.583  1.00  0.00     0.125 C 
HETATM    6  C   UNL     1      45.868 -10.805   8.047  1.00  0.00     0.061 C 
ENDROOT
BRANCH   1   7
HETATM    7  N   UNL     1      45.341  -8.432   8.490  1.00  0.00     0.088 N 
HETATM    8  H   UNL     1      44.711  -7.776   8.951  1.00  0.00     0.313 HD
HETATM    9  H   UNL     1      45.246  -8.279   7.490  1.00  0.00     0.313 HD
ENDBRANCH   1   7
BRANCH   1  10
HETATM   10  C   UNL     1      45.275 -10.012  10.408  1.00  0.00     0.079 C 
BRANCH  10  11
HETATM   11  C   UNL     1      44.137  -9.667  11.346  1.00  0.00    -0.056 A 
HETATM   12  C   UNL     1      43.360 -10.675  11.934  1.00  0.00     0.009 A 
HETATM   13  C   UNL     1      42.320 -10.351  12.807  1.00  0.00     0.024 A 
HETATM   14  C   UNL     1      42.047  -9.017  13.096  1.00  0.00     0.034 A 
HETATM   15 CL   UNL     1      40.764  -8.617  14.169  1.00  0.00    -0.084 Cl
HETATM   16  C   UNL     1      42.809  -8.003  12.520  1.00  0.00     0.024 A 
HETATM   17  C   UNL     1      43.852  -8.327  11.650  1.00  0.00     0.009 A 
ENDBRANCH  10  11
ENDBRANCH   1  10
BRANCH   4  18
HETATM   18  C   UNL     1      43.598 -11.939   5.403  1.00  0.00     0.045 A 
HETATM   19  C   UNL     1      43.374 -11.324   4.155  1.00  0.00     0.047 A 
HETATM   20  C   UNL     1      42.921 -12.041   3.052  1.00  0.00     0.092 A 
HETATM   21  N   UNL     1      42.674 -13.351   3.134  1.00  0.00    -0.351 N 
HETATM   22  H   UNL     1      42.338 -13.867   2.323  1.00  0.00     0.166 HD
HETATM   23  C   UNL     1      42.867 -13.977   4.322  1.00  0.00     0.117 A 
HETATM   24  N   UNL     1      42.655 -15.301   4.606  1.00  0.00    -0.352 N 
HETATM   25  C   UNL     1      43.315 -13.330   5.465  1.00  0.00     0.036 A 
HETATM   26  H   UNL     1      42.330 -16.018   3.970  1.00  0.00     0.166 HD
HETATM   27  C   UNL     1      42.937 -15.521   5.931  1.00  0.00     0.090 A 
HETATM   28  C   UNL     1      43.334 -14.324   6.486  1.00  0.00     0.034 A 
ENDBRANCH   4  18
TORSDOF 4
ENDMDL
