MODEL 1
REMARK VINA RESULT:      -8.5      0.000      0.000
REMARK  4 active torsions:
REMARK  status: ('A' for Active; 'I' for Inactive)
REMARK    1  A    between atoms: C_4  and  N_5 
REMARK    2  A    between atoms: N_5  and  N_6 
REMARK       I    between atoms: N_6  and  C_7 
REMARK    3  A    between atoms: C_7  and  C_8 
REMARK    4  A    between atoms: C_9  and  C_10 
ROOT
HETATM    1  C   UNL     1      41.818 -14.471   5.618  1.00  0.00     0.081 A 
HETATM    2  C   UNL     1      41.578 -15.841   5.289  1.00  0.00     0.106 A 
HETATM    3  N   UNL     1      40.388 -16.252   5.756  1.00  0.00    -0.173 NA
HETATM    4  N   UNL     1      39.877 -15.178   6.370  1.00  0.00    -0.288 N 
HETATM    5  H   UNL     1      38.964 -15.263   6.807  1.00  0.00     0.188 HD
HETATM    6  C   UNL     1      40.677 -14.083   6.297  1.00  0.00     0.128 A 
ENDROOT
BRANCH   1   7
HETATM    7  C   UNL     1      42.931 -13.586   5.318  1.00  0.00     0.270 C 
HETATM    8  N   UNL     1      43.632 -13.128   6.420  1.00  0.00    -0.283 N 
HETATM    9  H   UNL     1      43.367 -13.334   7.376  1.00  0.00     0.184 HD
HETATM   10  O   UNL     1      43.205 -13.268   4.163  1.00  0.00    -0.266 OA
BRANCH   8  11
HETATM   11  N   UNL     1      44.662 -12.196   6.205  1.00  0.00    -0.203 NA
HETATM   12  H   UNL     1      45.491 -12.630   5.799  1.00  0.00     0.153 HD
BRANCH  11  13
HETATM   13  C   UNL     1      44.935 -11.334   7.288  1.00  0.00     0.028 A 
HETATM   14  C   UNL     1      44.080 -11.230   8.395  1.00  0.00     0.032 A 
HETATM   15  C   UNL     1      44.330 -10.313   9.428  1.00  0.00    -0.060 A 
HETATM   16  C   UNL     1      43.379 -10.181  10.580  1.00  0.00     0.048 C 
HETATM   17  C   UNL     1      45.437  -9.464   9.331  1.00  0.00     0.007 A 
HETATM   18  C   UNL     1      46.280  -9.534   8.224  1.00  0.00     0.002 A 
HETATM   19  C   UNL     1      46.023 -10.455   7.207  1.00  0.00     0.025 A 
ENDBRANCH  11  13
ENDBRANCH   8  11
ENDBRANCH   1   7
BRANCH   2  20
HETATM   20  C   UNL     1      42.389 -16.741   4.474  1.00  0.00     0.017 A 
HETATM   21  C   UNL     1      42.186 -16.905   3.096  1.00  0.00     0.046 A 
HETATM   22 CL   UNL     1      40.894 -16.131   2.245  1.00  0.00    -0.083 Cl
HETATM   23  C   UNL     1      43.013 -17.762   2.361  1.00  0.00     0.025 A 
HETATM   24  C   UNL     1      44.039 -18.466   2.995  1.00  0.00     0.002 A 
HETATM   25  C   UNL     1      44.242 -18.316   4.364  1.00  0.00     0.001 A 
HETATM   26  C   UNL     1      43.425 -17.457   5.101  1.00  0.00     0.016 A 
ENDBRANCH   2  20
TORSDOF 4
ENDMDL
MODEL 2
REMARK VINA RESULT:      -8.4      3.770      6.424
REMARK  4 active torsions:
REMARK  status: ('A' for Active; 'I' for Inactive)
REMARK    1  A    between atoms: C_4  and  N_5 
REMARK    2  A    between atoms: N_5  and  N_6 
REMARK       I    between atoms: N_6  and  C_7 
REMARK    3  A    between atoms: C_7  and  C_8 
REMARK    4  A    between atoms: C_9  and  C_10 
ROOT
HETATM    1  C   UNL     1      42.656 -16.187   5.494  1.00  0.00     0.081 A 
HETATM    2  C   UNL     1      43.743 -17.105   5.355  1.00  0.00     0.106 A 
HETATM    3  N   UNL     1      44.819 -16.691   6.043  1.00  0.00    -0.173 NA
HETATM    4  N   UNL     1      44.438 -15.539   6.607  1.00  0.00    -0.288 N 
HETATM    5  H   UNL     1      45.109 -15.040   7.183  1.00  0.00     0.188 HD
HETATM    6  C   UNL     1      43.151 -15.204   6.332  1.00  0.00     0.128 A 
ENDROOT
BRANCH   1   7
HETATM    7  C   UNL     1      41.300 -16.207   4.969  1.00  0.00     0.270 C 
HETATM    8  N   UNL     1      41.178 -15.840   3.640  1.00  0.00    -0.283 N 
HETATM    9  H   UNL     1      41.956 -15.518   3.076  1.00  0.00     0.184 HD
HETATM   10  O   UNL     1      40.344 -16.518   5.675  1.00  0.00    -0.266 OA
BRANCH   8  11
HETATM   11  N   UNL     1      39.885 -15.750   3.099  1.00  0.00    -0.203 NA
HETATM   12  H   UNL     1      39.529 -16.660   2.806  1.00  0.00     0.153 HD
BRANCH  11  13
HETATM   13  C   UNL     1      39.697 -14.726   2.146  1.00  0.00     0.028 A 
HETATM   14  C   UNL     1      39.945 -14.921   0.779  1.00  0.00     0.032 A 
HETATM   15  C   UNL     1      39.823 -13.869  -0.143  1.00  0.00    -0.060 A 
HETATM   16  C   UNL     1      40.140 -14.084  -1.593  1.00  0.00     0.048 C 
HETATM   17  C   UNL     1      39.482 -12.595   0.320  1.00  0.00     0.007 A 
HETATM   18  C   UNL     1      39.260 -12.378   1.678  1.00  0.00     0.002 A 
HETATM   19  C   UNL     1      39.378 -13.434   2.584  1.00  0.00     0.025 A 
ENDBRANCH  11  13
ENDBRANCH   8  11
ENDBRANCH   1   7
BRANCH   2  20
HETATM   20  C   UNL     1      43.767 -18.396   4.674  1.00  0.00     0.017 A 
HETATM   21  C   UNL     1      43.739 -18.515   3.276  1.00  0.00     0.046 A 
HETATM   22 CL   UNL     1      43.579 -17.149   2.227  1.00  0.00    -0.083 Cl
HETATM   23  C   UNL     1      43.791 -19.779   2.678  1.00  0.00     0.025 A 
HETATM   24  C   UNL     1      43.861 -20.929   3.466  1.00  0.00     0.002 A 
HETATM   25  C   UNL     1      43.879 -20.821   4.854  1.00  0.00     0.001 A 
HETATM   26  C   UNL     1      43.835 -19.561   5.456  1.00  0.00     0.016 A 
ENDBRANCH   2  20
TORSDOF 4
ENDMDL
MODEL 3
REMARK VINA RESULT:      -8.4      2.851      6.728
REMARK  4 active torsions:
REMARK  status: ('A' for Active; 'I' for Inactive)
REMARK    1  A    between atoms: C_4  and  N_5 
REMARK    2  A    between atoms: N_5  and  N_6 
REMARK       I    between atoms: N_6  and  C_7 
REMARK    3  A    between atoms: C_7  and  C_8 
REMARK    4  A    between atoms: C_9  and  C_10 
ROOT
HETATM    1  C   UNL     1      43.496 -13.841   6.085  1.00  0.00     0.081 A 
HETATM    2  C   UNL     1      43.072 -13.377   4.801  1.00  0.00     0.106 A 
HETATM    3  N   UNL     1      43.447 -12.103   4.597  1.00  0.00    -0.173 NA
HETATM    4  N   UNL     1      44.090 -11.756   5.718  1.00  0.00    -0.288 N 
HETATM    5  H   UNL     1      44.465 -10.815   5.786  1.00  0.00     0.188 HD
HETATM    6  C   UNL     1      44.170 -12.762   6.627  1.00  0.00     0.128 A 
ENDROOT
BRANCH   1   7
HETATM    7  C   UNL     1      43.353 -15.130   6.742  1.00  0.00     0.270 C 
HETATM    8  N   UNL     1      43.826 -16.213   6.021  1.00  0.00    -0.283 N 
HETATM    9  H   UNL     1      44.192 -16.140   5.078  1.00  0.00     0.184 HD
HETATM   10  O   UNL     1      42.836 -15.231   7.851  1.00  0.00    -0.266 OA
BRANCH   8  11
HETATM   11  N   UNL     1      43.635 -17.496   6.560  1.00  0.00    -0.203 NA
HETATM   12  H   UNL     1      44.160 -17.630   7.424  1.00  0.00     0.153 HD
BRANCH  11  13
HETATM   13  C   UNL     1      43.755 -18.563   5.643  1.00  0.00     0.028 A 
HETATM   14  C   UNL     1      43.689 -18.367   4.255  1.00  0.00     0.032 A 
HETATM   15  C   UNL     1      43.736 -19.448   3.362  1.00  0.00    -0.060 A 
HETATM   16  C   UNL     1      43.616 -19.224   1.884  1.00  0.00     0.048 C 
HETATM   17  C   UNL     1      43.815 -20.748   3.871  1.00  0.00     0.007 A 
HETATM   18  C   UNL     1      43.852 -20.962   5.247  1.00  0.00     0.002 A 
HETATM   19  C   UNL     1      43.811 -19.877   6.124  1.00  0.00     0.025 A 
ENDBRANCH  11  13
ENDBRANCH   8  11
ENDBRANCH   1   7
BRANCH   2  20
HETATM   20  C   UNL     1      42.412 -14.121   3.733  1.00  0.00     0.017 A 
HETATM   21  C   UNL     1      41.019 -14.131   3.566  1.00  0.00     0.046 A 
HETATM   22 CL   UNL     1      39.943 -13.340   4.666  1.00  0.00    -0.083 Cl
HETATM   23  C   UNL     1      40.443 -14.841   2.507  1.00  0.00     0.025 A 
HETATM   24  C   UNL     1      41.249 -15.552   1.615  1.00  0.00     0.002 A 
HETATM   25  C   UNL     1      42.631 -15.556   1.778  1.00  0.00     0.001 A 
HETATM   26  C   UNL     1      43.212 -14.842   2.829  1.00  0.00     0.016 A 
ENDBRANCH   2  20
TORSDOF 4
ENDMDL
MODEL 4
REMARK VINA RESULT:      -8.3      3.438      6.748
REMARK  4 active torsions:
REMARK  status: ('A' for Active; 'I' for Inactive)
REMARK    1  A    between atoms: C_4  and  N_5 
REMARK    2  A    between atoms: N_5  and  N_6 
REMARK       I    between atoms: N_6  and  C_7 
REMARK    3  A    between atoms: C_7  and  C_8 
REMARK    4  A    between atoms: C_9  and  C_10 
ROOT
HETATM    1  C   UNL     1      40.298 -13.139   3.598  1.00  0.00     0.081 A 
HETATM    2  C   UNL     1      40.559 -13.014   4.998  1.00  0.00     0.106 A 
HETATM    3  N   UNL     1      39.803 -12.050   5.548  1.00  0.00    -0.173 NA
HETATM    4  N   UNL     1      39.078 -11.567   4.532  1.00  0.00    -0.288 N 
HETATM    5  H   UNL     1      38.425 -10.813   4.722  1.00  0.00     0.188 HD
HETATM    6  C   UNL     1      39.316 -12.197   3.353  1.00  0.00     0.128 A 
ENDROOT
BRANCH   1   7
HETATM    7  C   UNL     1      40.837 -14.039   2.591  1.00  0.00     0.270 C 
HETATM    8  N   UNL     1      40.851 -15.377   2.945  1.00  0.00    -0.283 N 
HETATM    9  H   UNL     1      40.567 -15.717   3.857  1.00  0.00     0.184 HD
HETATM   10  O   UNL     1      41.258 -13.620   1.515  1.00  0.00    -0.266 OA
BRANCH   8  11
HETATM   11  N   UNL     1      41.444 -16.287   2.054  1.00  0.00    -0.203 NA
HETATM   12  H   UNL     1      40.749 -16.783   1.496  1.00  0.00     0.153 HD
BRANCH  11  13
HETATM   13  C   UNL     1      42.437 -17.122   2.611  1.00  0.00     0.028 A 
HETATM   14  C   UNL     1      42.732 -18.387   2.082  1.00  0.00     0.032 A 
HETATM   15  C   UNL     1      43.671 -19.233   2.694  1.00  0.00    -0.060 A 
HETATM   16  C   UNL     1      43.940 -20.601   2.142  1.00  0.00     0.048 C 
HETATM   17  C   UNL     1      44.295 -18.816   3.874  1.00  0.00     0.007 A 
HETATM   18  C   UNL     1      43.990 -17.575   4.428  1.00  0.00     0.002 A 
HETATM   19  C   UNL     1      43.060 -16.740   3.806  1.00  0.00     0.025 A 
ENDBRANCH  11  13
ENDBRANCH   8  11
ENDBRANCH   1   7
BRANCH   2  20
HETATM   20  C   UNL     1      41.425 -13.830   5.843  1.00  0.00     0.017 A 
HETATM   21  C   UNL     1      42.737 -13.455   6.168  1.00  0.00     0.046 A 
HETATM   22 CL   UNL     1      43.488 -12.036   5.525  1.00  0.00    -0.083 Cl
HETATM   23  C   UNL     1      43.512 -14.266   7.005  1.00  0.00     0.025 A 
HETATM   24  C   UNL     1      42.989 -15.457   7.514  1.00  0.00     0.002 A 
HETATM   25  C   UNL     1      41.692 -15.842   7.187  1.00  0.00     0.001 A 
HETATM   26  C   UNL     1      40.911 -15.033   6.359  1.00  0.00     0.016 A 
ENDBRANCH   2  20
TORSDOF 4
ENDMDL
MODEL 5
REMARK VINA RESULT:      -8.2      4.090      7.041
REMARK  4 active torsions:
REMARK  status: ('A' for Active; 'I' for Inactive)
REMARK    1  A    between atoms: C_4  and  N_5 
REMARK    2  A    between atoms: N_5  and  N_6 
REMARK       I    between atoms: N_6  and  C_7 
REMARK    3  A    between atoms: C_7  and  C_8 
REMARK    4  A    between atoms: C_9  and  C_10 
ROOT
HETATM    1  C   UNL     1      41.035 -13.745   3.803  1.00  0.00     0.081 A 
HETATM    2  C   UNL     1      40.097 -13.254   2.843  1.00  0.00     0.106 A 
HETATM    3  N   UNL     1      39.053 -12.659   3.443  1.00  0.00    -0.173 NA
HETATM    4  N   UNL     1      39.310 -12.766   4.752  1.00  0.00    -0.288 N 
HETATM    5  H   UNL     1      38.639 -12.379   5.408  1.00  0.00     0.188 HD
HETATM    6  C   UNL     1      40.490 -13.383   5.021  1.00  0.00     0.128 A 
ENDROOT
BRANCH   1   7
HETATM    7  C   UNL     1      42.309 -14.427   3.648  1.00  0.00     0.270 C 
HETATM    8  N   UNL     1      42.424 -15.623   4.336  1.00  0.00    -0.283 N 
HETATM    9  H   UNL     1      41.707 -15.982   4.956  1.00  0.00     0.184 HD
HETATM   10  O   UNL     1      43.212 -13.953   2.962  1.00  0.00    -0.266 OA
BRANCH   8  11
HETATM   11  N   UNL     1      43.663 -16.285   4.302  1.00  0.00    -0.203 NA
HETATM   12  H   UNL     1      44.375 -15.738   3.818  1.00  0.00     0.153 HD
BRANCH  11  13
HETATM   13  C   UNL     1      43.615 -17.641   3.913  1.00  0.00     0.028 A 
HETATM   14  C   UNL     1      44.003 -18.679   4.772  1.00  0.00     0.032 A 
HETATM   15  C   UNL     1      44.019 -20.016   4.342  1.00  0.00    -0.060 A 
HETATM   16  C   UNL     1      44.483 -21.108   5.259  1.00  0.00     0.048 C 
HETATM   17  C   UNL     1      43.674 -20.309   3.019  1.00  0.00     0.007 A 
HETATM   18  C   UNL     1      43.314 -19.286   2.144  1.00  0.00     0.002 A 
HETATM   19  C   UNL     1      43.296 -17.962   2.587  1.00  0.00     0.025 A 
ENDBRANCH  11  13
ENDBRANCH   8  11
ENDBRANCH   1   7
BRANCH   2  20
HETATM   20  C   UNL     1      40.199 -13.247   1.387  1.00  0.00     0.017 A 
HETATM   21  C   UNL     1      40.032 -14.404   0.611  1.00  0.00     0.046 A 
HETATM   22 CL   UNL     1      39.783 -15.967   1.308  1.00  0.00    -0.083 Cl
HETATM   23  C   UNL     1      40.115 -14.331  -0.784  1.00  0.00     0.025 A 
HETATM   24  C   UNL     1      40.373 -13.111  -1.413  1.00  0.00     0.002 A 
HETATM   25  C   UNL     1      40.551 -11.960  -0.650  1.00  0.00     0.001 A 
HETATM   26  C   UNL     1      40.461 -12.025   0.742  1.00  0.00     0.016 A 
ENDBRANCH   2  20
TORSDOF 4
ENDMDL
MODEL 6
REMARK VINA RESULT:      -8.1      1.780      2.161
REMARK  4 active torsions:
REMARK  status: ('A' for Active; 'I' for Inactive)
REMARK    1  A    between atoms: C_4  and  N_5 
REMARK    2  A    between atoms: N_5  and  N_6 
REMARK       I    between atoms: N_6  and  C_7 
REMARK    3  A    between atoms: C_7  and  C_8 
REMARK    4  A    between atoms: C_9  and  C_10 
ROOT
HETATM    1  C   UNL     1      43.403 -15.536   6.734  1.00  0.00     0.081 A 
HETATM    2  C   UNL     1      43.137 -16.689   5.933  1.00  0.00     0.106 A 
HETATM    3  N   UNL     1      43.266 -17.819   6.648  1.00  0.00    -0.173 NA
HETATM    4  N   UNL     1      43.607 -17.405   7.874  1.00  0.00    -0.288 N 
HETATM    5  H   UNL     1      43.762 -18.106   8.593  1.00  0.00     0.188 HD
HETATM    6  C   UNL     1      43.680 -16.053   7.987  1.00  0.00     0.128 A 
ENDROOT
BRANCH   1   7
HETATM    7  C   UNL     1      43.370 -14.116   6.425  1.00  0.00     0.270 C 
HETATM    8  N   UNL     1      43.259 -13.278   7.522  1.00  0.00    -0.283 N 
HETATM    9  H   UNL     1      43.146 -13.613   8.472  1.00  0.00     0.184 HD
HETATM   10  O   UNL     1      43.424 -13.710   5.267  1.00  0.00    -0.266 OA
BRANCH   8  11
HETATM   11  N   UNL     1      43.128 -11.899   7.286  1.00  0.00    -0.203 NA
HETATM   12  H   UNL     1      43.057 -11.687   6.291  1.00  0.00     0.153 HD
BRANCH  11  13
HETATM   13  C   UNL     1      44.036 -11.076   7.986  1.00  0.00     0.028 A 
HETATM   14  C   UNL     1      43.721 -10.504   9.228  1.00  0.00     0.032 A 
HETATM   15  C   UNL     1      44.608  -9.629   9.874  1.00  0.00    -0.060 A 
HETATM   16  C   UNL     1      44.235  -8.989  11.179  1.00  0.00     0.048 C 
HETATM   17  C   UNL     1      45.812  -9.294   9.247  1.00  0.00     0.007 A 
HETATM   18  C   UNL     1      46.127  -9.831   8.001  1.00  0.00     0.002 A 
HETATM   19  C   UNL     1      45.239 -10.706   7.372  1.00  0.00     0.025 A 
ENDBRANCH  11  13
ENDBRANCH   8  11
ENDBRANCH   1   7
BRANCH   2  20
HETATM   20  C   UNL     1      42.678 -16.754   4.548  1.00  0.00     0.017 A 
HETATM   21  C   UNL     1      41.402 -16.324   4.153  1.00  0.00     0.046 A 
HETATM   22 CL   UNL     1      40.216 -15.764   5.280  1.00  0.00    -0.083 Cl
HETATM   23  C   UNL     1      41.027 -16.384   2.806  1.00  0.00     0.025 A 
HETATM   24  C   UNL     1      41.914 -16.882   1.849  1.00  0.00     0.002 A 
HETATM   25  C   UNL     1      43.178 -17.320   2.234  1.00  0.00     0.001 A 
HETATM   26  C   UNL     1      43.561 -17.254   3.576  1.00  0.00     0.016 A 
ENDBRANCH   2  20
TORSDOF 4
ENDMDL
MODEL 7
REMARK VINA RESULT:      -8.0      2.023      2.362
REMARK  4 active torsions:
REMARK  status: ('A' for Active; 'I' for Inactive)
REMARK    1  A    between atoms: C_4  and  N_5 
REMARK    2  A    between atoms: N_5  and  N_6 
REMARK       I    between atoms: N_6  and  C_7 
REMARK    3  A    between atoms: C_7  and  C_8 
REMARK    4  A    between atoms: C_9  and  C_10 
ROOT
HETATM    1  C   UNL     1      41.515 -14.297   3.082  1.00  0.00     0.081 A 
HETATM    2  C   UNL     1      41.326 -15.703   3.254  1.00  0.00     0.106 A 
HETATM    3  N   UNL     1      40.052 -16.055   3.019  1.00  0.00    -0.173 NA
HETATM    4  N   UNL     1      39.437 -14.908   2.707  1.00  0.00    -0.288 N 
HETATM    5  H   UNL     1      38.445 -14.937   2.489  1.00  0.00     0.188 HD
HETATM    6  C   UNL     1      40.268 -13.834   2.705  1.00  0.00     0.128 A 
ENDROOT
BRANCH   1   7
HETATM    7  C   UNL     1      42.697 -13.459   3.197  1.00  0.00     0.270 C 
HETATM    8  N   UNL     1      42.729 -12.636   4.309  1.00  0.00    -0.283 N 
HETATM    9  H   UNL     1      41.966 -12.564   4.973  1.00  0.00     0.184 HD
HETATM   10  O   UNL     1      43.587 -13.486   2.350  1.00  0.00    -0.266 OA
BRANCH   8  11
HETATM   11  N   UNL     1      43.800 -11.736   4.431  1.00  0.00    -0.203 NA
HETATM   12  H   UNL     1      44.618 -12.041   3.904  1.00  0.00     0.153 HD
BRANCH  11  13
HETATM   13  C   UNL     1      44.089 -11.311   5.746  1.00  0.00     0.028 A 
HETATM   14  C   UNL     1      43.152 -10.628   6.534  1.00  0.00     0.032 A 
HETATM   15  C   UNL     1      43.482 -10.149   7.812  1.00  0.00    -0.060 A 
HETATM   16  C   UNL     1      42.481  -9.378   8.621  1.00  0.00     0.048 C 
HETATM   17  C   UNL     1      44.783 -10.328   8.290  1.00  0.00     0.007 A 
HETATM   18  C   UNL     1      45.735 -10.979   7.508  1.00  0.00     0.002 A 
HETATM   19  C   UNL     1      45.391 -11.456   6.242  1.00  0.00     0.025 A 
ENDBRANCH  11  13
ENDBRANCH   8  11
ENDBRANCH   1   7
BRANCH   2  20
HETATM   20  C   UNL     1      42.323 -16.731   3.542  1.00  0.00     0.017 A 
HETATM   21  C   UNL     1      42.852 -16.934   4.825  1.00  0.00     0.046 A 
HETATM   22 CL   UNL     1      42.445 -15.928   6.172  1.00  0.00    -0.083 Cl
HETATM   23  C   UNL     1      43.785 -17.953   5.046  1.00  0.00     0.025 A 
HETATM   24  C   UNL     1      44.204 -18.766   3.991  1.00  0.00     0.002 A 
HETATM   25  C   UNL     1      43.693 -18.564   2.712  1.00  0.00     0.001 A 
HETATM   26  C   UNL     1      42.754 -17.555   2.487  1.00  0.00     0.016 A 
ENDBRANCH   2  20
TORSDOF 4
ENDMDL
MODEL 8
REMARK VINA RESULT:      -7.8      3.524      6.884
REMARK  4 active torsions:
REMARK  status: ('A' for Active; 'I' for Inactive)
REMARK    1  A    between atoms: C_4  and  N_5 
REMARK    2  A    between atoms: N_5  and  N_6 
REMARK       I    between atoms: N_6  and  C_7 
REMARK    3  A    between atoms: C_7  and  C_8 
REMARK    4  A    between atoms: C_9  and  C_10 
ROOT
HETATM    1  C   UNL     1      39.360 -11.647   2.659  1.00  0.00     0.081 A 
HETATM    2  C   UNL     1      40.160 -10.930   3.601  1.00  0.00     0.106 A 
HETATM    3  N   UNL     1      39.632  -9.725   3.870  1.00  0.00    -0.173 NA
HETATM    4  N   UNL     1      38.525  -9.666   3.120  1.00  0.00    -0.288 N 
HETATM    5  H   UNL     1      37.958  -8.825   3.163  1.00  0.00     0.188 HD
HETATM    6  C   UNL     1      38.303 -10.795   2.398  1.00  0.00     0.128 A 
ENDROOT
BRANCH   1   7
HETATM    7  C   UNL     1      39.501 -12.976   2.085  1.00  0.00     0.270 C 
HETATM    8  N   UNL     1      39.101 -14.016   2.905  1.00  0.00    -0.283 N 
HETATM    9  H   UNL     1      38.788 -13.886   3.861  1.00  0.00     0.184 HD
HETATM   10  O   UNL     1      39.957 -13.142   0.956  1.00  0.00    -0.266 OA
BRANCH   8  11
HETATM   11  N   UNL     1      39.297 -15.329   2.446  1.00  0.00    -0.203 NA
HETATM   12  H   UNL     1      38.448 -15.890   2.519  1.00  0.00     0.153 HD
BRANCH  11  13
HETATM   13  C   UNL     1      40.456 -15.974   2.929  1.00  0.00     0.028 A 
HETATM   14  C   UNL     1      40.796 -15.979   4.289  1.00  0.00     0.032 A 
HETATM   15  C   UNL     1      41.991 -16.561   4.741  1.00  0.00    -0.060 A 
HETATM   16  C   UNL     1      42.362 -16.515   6.194  1.00  0.00     0.048 C 
HETATM   17  C   UNL     1      42.873 -17.115   3.808  1.00  0.00     0.007 A 
HETATM   18  C   UNL     1      42.563 -17.092   2.450  1.00  0.00     0.002 A 
HETATM   19  C   UNL     1      41.369 -16.516   2.015  1.00  0.00     0.025 A 
ENDBRANCH  11  13
ENDBRANCH   8  11
ENDBRANCH   1   7
BRANCH   2  20
HETATM   20  C   UNL     1      41.348 -11.380   4.321  1.00  0.00     0.017 A 
HETATM   21  C   UNL     1      41.284 -12.249   5.420  1.00  0.00     0.046 A 
HETATM   22 CL   UNL     1      39.786 -12.799   6.087  1.00  0.00    -0.083 Cl
HETATM   23  C   UNL     1      42.459 -12.668   6.053  1.00  0.00     0.025 A 
HETATM   24  C   UNL     1      43.702 -12.216   5.604  1.00  0.00     0.002 A 
HETATM   25  C   UNL     1      43.774 -11.344   4.521  1.00  0.00     0.001 A 
HETATM   26  C   UNL     1      42.605 -10.930   3.880  1.00  0.00     0.016 A 
ENDBRANCH   2  20
TORSDOF 4
ENDMDL
MODEL 9
REMARK VINA RESULT:      -7.7      2.524      7.988
REMARK  4 active torsions:
REMARK  status: ('A' for Active; 'I' for Inactive)
REMARK    1  A    between atoms: C_4  and  N_5 
REMARK    2  A    between atoms: N_5  and  N_6 
REMARK       I    between atoms: N_6  and  C_7 
REMARK    3  A    between atoms: C_7  and  C_8 
REMARK    4  A    between atoms: C_9  and  C_10 
ROOT
HETATM    1  C   UNL     1      44.448 -11.466   7.130  1.00  0.00     0.081 A 
HETATM    2  C   UNL     1      44.828 -10.597   8.200  1.00  0.00     0.106 A 
HETATM    3  N   UNL     1      46.094 -10.173   8.055  1.00  0.00    -0.173 NA
HETATM    4  N   UNL     1      46.518 -10.752   6.926  1.00  0.00    -0.288 N 
HETATM    5  H   UNL     1      47.468 -10.570   6.618  1.00  0.00     0.188 HD
HETATM    6  C   UNL     1      45.569 -11.514   6.321  1.00  0.00     0.128 A 
ENDROOT
BRANCH   1   7
HETATM    7  C   UNL     1      43.197 -12.146   6.835  1.00  0.00     0.270 C 
HETATM    8  N   UNL     1      43.148 -13.477   7.212  1.00  0.00    -0.283 N 
HETATM    9  H   UNL     1      43.937 -13.974   7.611  1.00  0.00     0.184 HD
HETATM   10  O   UNL     1      42.268 -11.567   6.277  1.00  0.00    -0.266 OA
BRANCH   8  11
HETATM   11  N   UNL     1      42.003 -14.215   6.873  1.00  0.00    -0.203 NA
HETATM   12  H   UNL     1      41.553 -14.621   7.693  1.00  0.00     0.153 HD
BRANCH  11  13
HETATM   13  C   UNL     1      42.159 -15.117   5.798  1.00  0.00     0.028 A 
HETATM   14  C   UNL     1      43.113 -16.145   5.818  1.00  0.00     0.032 A 
HETATM   15  C   UNL     1      43.304 -16.985   4.709  1.00  0.00    -0.060 A 
HETATM   16  C   UNL     1      44.362 -18.048   4.730  1.00  0.00     0.048 C 
HETATM   17  C   UNL     1      42.551 -16.766   3.552  1.00  0.00     0.007 A 
HETATM   18  C   UNL     1      41.620 -15.731   3.506  1.00  0.00     0.002 A 
HETATM   19  C   UNL     1      41.435 -14.907   4.617  1.00  0.00     0.025 A 
ENDBRANCH  11  13
ENDBRANCH   8  11
ENDBRANCH   1   7
BRANCH   2  20
HETATM   20  C   UNL     1      44.011 -10.087   9.296  1.00  0.00     0.017 A 
HETATM   21  C   UNL     1      43.016  -9.115   9.110  1.00  0.00     0.046 A 
HETATM   22 CL   UNL     1      42.726  -8.358   7.582  1.00  0.00    -0.083 Cl
HETATM   23  C   UNL     1      42.245  -8.683  10.195  1.00  0.00     0.025 A 
HETATM   24  C   UNL     1      42.466  -9.208  11.470  1.00  0.00     0.002 A 
HETATM   25  C   UNL     1      43.457 -10.165  11.666  1.00  0.00     0.001 A 
HETATM   26  C   UNL     1      44.225 -10.606  10.585  1.00  0.00     0.016 A 
ENDBRANCH   2  20
TORSDOF 4
ENDMDL
MODEL 10
REMARK VINA RESULT:      -7.7      4.256      7.000
REMARK  4 active torsions:
REMARK  status: ('A' for Active; 'I' for Inactive)
REMARK    1  A    between atoms: C_4  and  N_5 
REMARK    2  A    between atoms: N_5  and  N_6 
REMARK       I    between atoms: N_6  and  C_7 
REMARK    3  A    between atoms: C_7  and  C_8 
REMARK    4  A    between atoms: C_9  and  C_10 
ROOT
HETATM    1  C   UNL     1      40.998 -13.477   4.099  1.00  0.00     0.081 A 
HETATM    2  C   UNL     1      41.140 -14.820   4.568  1.00  0.00     0.106 A 
HETATM    3  N   UNL     1      40.338 -15.054   5.620  1.00  0.00    -0.173 NA
HETATM    4  N   UNL     1      39.701 -13.896   5.824  1.00  0.00    -0.288 N 
HETATM    5  H   UNL     1      39.033 -13.841   6.587  1.00  0.00     0.188 HD
HETATM    6  C   UNL     1      40.038 -12.930   4.930  1.00  0.00     0.128 A 
ENDROOT
BRANCH   1   7
HETATM    7  C   UNL     1      41.621 -12.769   2.993  1.00  0.00     0.270 C 
HETATM    8  N   UNL     1      40.910 -12.790   1.805  1.00  0.00    -0.283 N 
HETATM    9  H   UNL     1      40.047 -13.307   1.680  1.00  0.00     0.184 HD
HETATM   10  O   UNL     1      42.708 -12.210   3.120  1.00  0.00    -0.266 OA
BRANCH   8  11
HETATM   11  N   UNL     1      41.501 -12.203   0.674  1.00  0.00    -0.203 NA
HETATM   12  H   UNL     1      41.713 -11.217   0.822  1.00  0.00     0.153 HD
BRANCH  11  13
HETATM   13  C   UNL     1      40.862 -12.476  -0.555  1.00  0.00     0.028 A 
HETATM   14  C   UNL     1      40.150 -13.664  -0.779  1.00  0.00     0.032 A 
HETATM   15  C   UNL     1      39.583 -13.951  -2.031  1.00  0.00    -0.060 A 
HETATM   16  C   UNL     1      38.867 -15.247  -2.267  1.00  0.00     0.048 C 
HETATM   17  C   UNL     1      39.765 -13.048  -3.083  1.00  0.00     0.007 A 
HETATM   18  C   UNL     1      40.494 -11.877  -2.884  1.00  0.00     0.002 A 
HETATM   19  C   UNL     1      41.047 -11.601  -1.632  1.00  0.00     0.025 A 
ENDBRANCH  11  13
ENDBRANCH   8  11
ENDBRANCH   1   7
BRANCH   2  20
HETATM   20  C   UNL     1      41.933 -15.907   4.002  1.00  0.00     0.017 A 
HETATM   21  C   UNL     1      41.604 -16.533   2.790  1.00  0.00     0.046 A 
HETATM   22 CL   UNL     1      40.176 -16.142   1.897  1.00  0.00    -0.083 Cl
HETATM   23  C   UNL     1      42.418 -17.552   2.283  1.00  0.00     0.025 A 
HETATM   24  C   UNL     1      43.556 -17.959   2.982  1.00  0.00     0.002 A 
HETATM   25  C   UNL     1      43.884 -17.351   4.191  1.00  0.00     0.001 A 
HETATM   26  C   UNL     1      43.080 -16.328   4.698  1.00  0.00     0.016 A 
ENDBRANCH   2  20
TORSDOF 4
ENDMDL
