MODEL 1
REMARK VINA RESULT:      -7.9      0.000      0.000
REMARK  3 active torsions:
REMARK  status: ('A' for Active; 'I' for Inactive)
REMARK    1  A    between atoms: C_3  and  N_4 
REMARK    2  A    between atoms: C_3  and  C_17 
REMARK       I    between atoms: N_4  and  C_5 
REMARK    3  A    between atoms: C_5  and  C_6 
ROOT
HETATM    1  N   UNL     1      43.116 -13.752   6.066  1.00  0.00    -0.306 N 
HETATM    2  C   UNL     1      42.772 -14.313   4.849  1.00  0.00     0.275 C 
HETATM    3  O   UNL     1      42.183 -13.727   3.948  1.00  0.00    -0.266 OA
HETATM    4  H   UNL     1      43.604 -14.388   6.688  1.00  0.00     0.170 HD
ENDROOT
BRANCH   2   5
HETATM    5  C   UNL     1      43.189 -15.743   4.721  1.00  0.00     0.125 A 
HETATM    6  N   UNL     1      42.828 -16.354   3.555  1.00  0.00    -0.243 NA
HETATM    7  C   UNL     1      43.176 -17.643   3.403  1.00  0.00     0.068 A 
HETATM    8  C   UNL     1      43.887 -18.361   4.393  1.00  0.00    -0.007 A 
HETATM    9  C   UNL     1      42.829 -18.309   2.235  1.00  0.00     0.032 A 
HETATM   10  C   UNL     1      44.238 -17.693   5.574  1.00  0.00     0.016 A 
HETATM   11  C   UNL     1      44.224 -19.708   4.185  1.00  0.00     0.014 A 
HETATM   12  C   UNL     1      43.885 -16.360   5.746  1.00  0.00     0.038 A 
HETATM   13  C   UNL     1      43.862 -20.350   3.002  1.00  0.00     0.001 A 
HETATM   14  C   UNL     1      43.164 -19.650   2.025  1.00  0.00     0.002 A 
ENDBRANCH   2   5
BRANCH   1  15
HETATM   15  C   UNL     1      42.911 -12.457   6.465  1.00  0.00     0.133 C 
HETATM   16  N   UNL     1      41.770 -11.869   6.374  1.00  0.00    -0.283 NA
HETATM   17  H   UNL     1      41.093 -12.537   5.973  1.00  0.00     0.188 HD
BRANCH  15  18
HETATM   18  C   UNL     1      44.053 -11.726   7.009  1.00  0.00     0.016 A 
HETATM   19  C   UNL     1      43.961 -10.961   8.162  1.00  0.00     0.065 A 
HETATM   20  S   UNL     1      45.427 -10.197   8.592  1.00  0.00    -0.113 SA
HETATM   21  C   UNL     1      46.233 -10.878   7.252  1.00  0.00     0.050 A 
HETATM   22  C   UNL     1      45.396 -11.667   6.492  1.00  0.00     0.023 A 
ENDBRANCH  15  18
ENDBRANCH   1  15
TORSDOF 3
ENDMDL
MODEL 2
REMARK VINA RESULT:      -7.8      0.966      1.758
REMARK  3 active torsions:
REMARK  status: ('A' for Active; 'I' for Inactive)
REMARK    1  A    between atoms: C_3  and  N_4 
REMARK    2  A    between atoms: C_3  and  C_17 
REMARK       I    between atoms: N_4  and  C_5 
REMARK    3  A    between atoms: C_5  and  C_6 
ROOT
HETATM    1  N   UNL     1      42.823 -13.538   5.523  1.00  0.00    -0.306 N 
HETATM    2  C   UNL     1      42.637 -13.721   4.164  1.00  0.00     0.275 C 
HETATM    3  O   UNL     1      42.280 -12.848   3.381  1.00  0.00    -0.266 OA
HETATM    4  H   UNL     1      43.124 -14.374   6.012  1.00  0.00     0.170 HD
ENDROOT
BRANCH   2   5
HETATM    5  C   UNL     1      42.915 -15.119   3.715  1.00  0.00     0.125 A 
HETATM    6  N   UNL     1      43.207 -16.004   4.713  1.00  0.00    -0.243 NA
HETATM    7  C   UNL     1      43.472 -17.272   4.352  1.00  0.00     0.068 A 
HETATM    8  C   UNL     1      43.456 -17.699   3.004  1.00  0.00    -0.007 A 
HETATM    9  C   UNL     1      43.777 -18.209   5.332  1.00  0.00     0.032 A 
HETATM   10  C   UNL     1      43.150 -16.756   2.013  1.00  0.00     0.016 A 
HETATM   11  C   UNL     1      43.742 -19.035   2.681  1.00  0.00     0.014 A 
HETATM   12  C   UNL     1      42.874 -15.442   2.370  1.00  0.00     0.038 A 
HETATM   13  C   UNL     1      44.045 -19.953   3.686  1.00  0.00     0.001 A 
HETATM   14  C   UNL     1      44.062 -19.540   5.012  1.00  0.00     0.002 A 
ENDBRANCH   2   5
BRANCH   1  15
HETATM   15  C   UNL     1      42.691 -12.367   6.223  1.00  0.00     0.133 C 
HETATM   16  N   UNL     1      41.555 -11.799   6.430  1.00  0.00    -0.283 NA
HETATM   17  H   UNL     1      40.820 -12.377   5.993  1.00  0.00     0.188 HD
BRANCH  15  18
HETATM   18  C   UNL     1      43.907 -11.749   6.745  1.00  0.00     0.016 A 
HETATM   19  C   UNL     1      43.959 -11.161   8.000  1.00  0.00     0.065 A 
HETATM   20  S   UNL     1      45.487 -10.501   8.382  1.00  0.00    -0.113 SA
HETATM   21  C   UNL     1      46.130 -10.992   6.880  1.00  0.00     0.050 A 
HETATM   22  C   UNL     1      45.193 -11.643   6.105  1.00  0.00     0.023 A 
ENDBRANCH  15  18
ENDBRANCH   1  15
TORSDOF 3
ENDMDL
MODEL 3
REMARK VINA RESULT:      -7.6      4.433      5.874
REMARK  3 active torsions:
REMARK  status: ('A' for Active; 'I' for Inactive)
REMARK    1  A    between atoms: C_3  and  N_4 
REMARK    2  A    between atoms: C_3  and  C_17 
REMARK       I    between atoms: N_4  and  C_5 
REMARK    3  A    between atoms: C_5  and  C_6 
ROOT
HETATM    1  N   UNL     1      40.768 -14.649   1.793  1.00  0.00    -0.306 N 
HETATM    2  C   UNL     1      41.766 -14.363   2.708  1.00  0.00     0.275 C 
HETATM    3  O   UNL     1      42.085 -13.236   3.069  1.00  0.00    -0.266 OA
HETATM    4  H   UNL     1      40.642 -15.640   1.619  1.00  0.00     0.170 HD
ENDROOT
BRANCH   2   5
HETATM    5  C   UNL     1      42.448 -15.584   3.235  1.00  0.00     0.125 A 
HETATM    6  N   UNL     1      42.370 -16.687   2.435  1.00  0.00    -0.243 NA
HETATM    7  C   UNL     1      42.963 -17.810   2.875  1.00  0.00     0.068 A 
HETATM    8  C   UNL     1      43.645 -17.875   4.112  1.00  0.00    -0.007 A 
HETATM    9  C   UNL     1      42.910 -18.958   2.096  1.00  0.00     0.032 A 
HETATM   10  C   UNL     1      43.701 -16.718   4.902  1.00  0.00     0.016 A 
HETATM   11  C   UNL     1      44.246 -19.075   4.527  1.00  0.00     0.014 A 
HETATM   12  C   UNL     1      43.093 -15.549   4.459  1.00  0.00     0.038 A 
HETATM   13  C   UNL     1      44.176 -20.212   3.724  1.00  0.00     0.001 A 
HETATM   14  C   UNL     1      43.507 -20.154   2.507  1.00  0.00     0.002 A 
ENDBRANCH   2   5
BRANCH   1  15
HETATM   15  C   UNL     1      39.939 -13.753   1.170  1.00  0.00     0.133 C 
HETATM   16  N   UNL     1      39.110 -13.005   1.809  1.00  0.00    -0.283 NA
HETATM   17  H   UNL     1      39.204 -13.206   2.818  1.00  0.00     0.188 HD
BRANCH  15  18
HETATM   18  C   UNL     1      40.008 -13.663  -0.286  1.00  0.00     0.016 A 
HETATM   19  C   UNL     1      40.671 -12.631  -0.933  1.00  0.00     0.065 A 
HETATM   20  S   UNL     1      40.608 -12.741  -2.636  1.00  0.00    -0.113 SA
HETATM   21  C   UNL     1      39.699 -14.182  -2.559  1.00  0.00     0.050 A 
HETATM   22  C   UNL     1      39.448 -14.566  -1.259  1.00  0.00     0.023 A 
ENDBRANCH  15  18
ENDBRANCH   1  15
TORSDOF 3
ENDMDL
MODEL 4
REMARK VINA RESULT:      -7.5      2.248      2.956
REMARK  3 active torsions:
REMARK  status: ('A' for Active; 'I' for Inactive)
REMARK    1  A    between atoms: C_3  and  N_4 
REMARK    2  A    between atoms: C_3  and  C_17 
REMARK       I    between atoms: N_4  and  C_5 
REMARK    3  A    between atoms: C_5  and  C_6 
ROOT
HETATM    1  N   UNL     1      43.190 -14.023   5.613  1.00  0.00    -0.306 N 
HETATM    2  C   UNL     1      43.516 -15.295   6.049  1.00  0.00     0.275 C 
HETATM    3  O   UNL     1      43.819 -15.587   7.200  1.00  0.00    -0.266 OA
HETATM    4  H   UNL     1      42.963 -13.972   4.627  1.00  0.00     0.170 HD
ENDROOT
BRANCH   2   5
HETATM    5  C   UNL     1      43.469 -16.319   4.960  1.00  0.00     0.125 A 
HETATM    6  N   UNL     1      43.756 -17.596   5.348  1.00  0.00    -0.243 NA
HETATM    7  C   UNL     1      43.735 -18.547   4.398  1.00  0.00     0.068 A 
HETATM    8  C   UNL     1      43.430 -18.264   3.046  1.00  0.00    -0.007 A 
HETATM    9  C   UNL     1      44.021 -19.861   4.743  1.00  0.00     0.032 A 
HETATM   10  C   UNL     1      43.140 -16.939   2.694  1.00  0.00     0.016 A 
HETATM   11  C   UNL     1      43.422 -19.295   2.092  1.00  0.00     0.014 A 
HETATM   12  C   UNL     1      43.159 -15.945   3.665  1.00  0.00     0.038 A 
HETATM   13  C   UNL     1      43.715 -20.605   2.468  1.00  0.00     0.001 A 
HETATM   14  C   UNL     1      44.015 -20.888   3.795  1.00  0.00     0.002 A 
ENDBRANCH   2   5
BRANCH   1  15
HETATM   15  C   UNL     1      43.101 -12.888   6.376  1.00  0.00     0.133 C 
HETATM   16  N   UNL     1      43.640 -12.783   7.541  1.00  0.00    -0.283 NA
HETATM   17  H   UNL     1      44.123 -13.670   7.754  1.00  0.00     0.188 HD
BRANCH  15  18
HETATM   18  C   UNL     1      42.352 -11.759   5.830  1.00  0.00     0.016 A 
HETATM   19  C   UNL     1      42.836 -10.985   4.787  1.00  0.00     0.065 A 
HETATM   20  S   UNL     1      41.782  -9.722   4.328  1.00  0.00    -0.113 SA
HETATM   21  C   UNL     1      40.638 -10.182   5.507  1.00  0.00     0.050 A 
HETATM   22  C   UNL     1      41.058 -11.274   6.236  1.00  0.00     0.023 A 
ENDBRANCH  15  18
ENDBRANCH   1  15
TORSDOF 3
ENDMDL
MODEL 5
REMARK VINA RESULT:      -7.4      3.307      4.054
REMARK  3 active torsions:
REMARK  status: ('A' for Active; 'I' for Inactive)
REMARK    1  A    between atoms: C_3  and  N_4 
REMARK    2  A    between atoms: C_3  and  C_17 
REMARK       I    between atoms: N_4  and  C_5 
REMARK    3  A    between atoms: C_5  and  C_6 
ROOT
HETATM    1  N   UNL     1      40.866 -13.753   5.375  1.00  0.00    -0.306 N 
HETATM    2  C   UNL     1      42.192 -13.841   5.761  1.00  0.00     0.275 C 
HETATM    3  O   UNL     1      42.809 -12.964   6.356  1.00  0.00    -0.266 OA
HETATM    4  H   UNL     1      40.523 -14.578   4.895  1.00  0.00     0.170 HD
ENDROOT
BRANCH   2   5
HETATM    5  C   UNL     1      42.832 -15.135   5.376  1.00  0.00     0.125 A 
HETATM    6  N   UNL     1      42.390 -15.679   4.204  1.00  0.00    -0.243 NA
HETATM    7  C   UNL     1      42.933 -16.848   3.825  1.00  0.00     0.068 A 
HETATM    8  C   UNL     1      43.923 -17.510   4.587  1.00  0.00    -0.007 A 
HETATM    9  C   UNL     1      42.514 -17.441   2.641  1.00  0.00     0.032 A 
HETATM   10  C   UNL     1      44.349 -16.915   5.783  1.00  0.00     0.016 A 
HETATM   11  C   UNL     1      44.458 -18.732   4.146  1.00  0.00     0.014 A 
HETATM   12  C   UNL     1      43.796 -15.706   6.189  1.00  0.00     0.038 A 
HETATM   13  C   UNL     1      44.017 -19.304   2.954  1.00  0.00     0.001 A 
HETATM   14  C   UNL     1      43.044 -18.658   2.200  1.00  0.00     0.002 A 
ENDBRANCH   2   5
BRANCH   1  15
HETATM   15  C   UNL     1      40.002 -12.718   5.620  1.00  0.00     0.133 C 
HETATM   16  N   UNL     1      39.671 -12.349   6.808  1.00  0.00    -0.283 NA
HETATM   17  H   UNL     1      40.166 -12.953   7.484  1.00  0.00     0.188 HD
BRANCH  15  18
HETATM   18  C   UNL     1      39.438 -12.018   4.469  1.00  0.00     0.016 A 
HETATM   19  C   UNL     1      39.240 -12.643   3.247  1.00  0.00     0.065 A 
HETATM   20  S   UNL     1      38.574 -11.616   2.056  1.00  0.00    -0.113 SA
HETATM   21  C   UNL     1      38.520 -10.304   3.145  1.00  0.00     0.050 A 
HETATM   22  C   UNL     1      39.005 -10.646   4.390  1.00  0.00     0.023 A 
ENDBRANCH  15  18
ENDBRANCH   1  15
TORSDOF 3
ENDMDL
MODEL 6
REMARK VINA RESULT:      -7.4      3.389      4.312
REMARK  3 active torsions:
REMARK  status: ('A' for Active; 'I' for Inactive)
REMARK    1  A    between atoms: C_3  and  N_4 
REMARK    2  A    between atoms: C_3  and  C_17 
REMARK       I    between atoms: N_4  and  C_5 
REMARK    3  A    between atoms: C_5  and  C_6 
ROOT
HETATM    1  N   UNL     1      43.196 -13.673   2.891  1.00  0.00    -0.306 N 
HETATM    2  C   UNL     1      43.053 -14.528   3.970  1.00  0.00     0.275 C 
HETATM    3  O   UNL     1      42.830 -14.173   5.122  1.00  0.00    -0.266 OA
HETATM    4  H   UNL     1      43.374 -14.147   2.013  1.00  0.00     0.170 HD
ENDROOT
BRANCH   2   5
HETATM    5  C   UNL     1      43.202 -15.969   3.602  1.00  0.00     0.125 A 
HETATM    6  N   UNL     1      43.490 -16.809   4.638  1.00  0.00    -0.243 NA
HETATM    7  C   UNL     1      43.641 -18.113   4.349  1.00  0.00     0.068 A 
HETATM    8  C   UNL     1      43.513 -18.621   3.036  1.00  0.00    -0.007 A 
HETATM    9  C   UNL     1      43.935 -19.007   5.371  1.00  0.00     0.032 A 
HETATM   10  C   UNL     1      43.217 -17.722   2.002  1.00  0.00     0.016 A 
HETATM   11  C   UNL     1      43.683 -19.993   2.788  1.00  0.00     0.014 A 
HETATM   12  C   UNL     1      43.057 -16.371   2.285  1.00  0.00     0.038 A 
HETATM   13  C   UNL     1      43.979 -20.866   3.833  1.00  0.00     0.001 A 
HETATM   14  C   UNL     1      44.105 -20.373   5.126  1.00  0.00     0.002 A 
ENDBRANCH   2   5
BRANCH   1  15
HETATM   15  C   UNL     1      43.071 -12.308   2.898  1.00  0.00     0.133 C 
HETATM   16  N   UNL     1      43.931 -11.530   3.457  1.00  0.00    -0.283 NA
HETATM   17  H   UNL     1      44.681 -12.113   3.860  1.00  0.00     0.188 HD
BRANCH  15  18
HETATM   18  C   UNL     1      41.900 -11.730   2.244  1.00  0.00     0.016 A 
HETATM   19  C   UNL     1      41.785 -10.370   1.999  1.00  0.00     0.065 A 
HETATM   20  S   UNL     1      40.323  -9.937   1.229  1.00  0.00    -0.113 SA
HETATM   21  C   UNL     1      39.805 -11.562   1.190  1.00  0.00     0.050 A 
HETATM   22  C   UNL     1      40.729 -12.413   1.757  1.00  0.00     0.023 A 
ENDBRANCH  15  18
ENDBRANCH   1  15
TORSDOF 3
ENDMDL
MODEL 7
REMARK VINA RESULT:      -7.1      2.915      3.394
REMARK  3 active torsions:
REMARK  status: ('A' for Active; 'I' for Inactive)
REMARK    1  A    between atoms: C_3  and  N_4 
REMARK    2  A    between atoms: C_3  and  C_17 
REMARK       I    between atoms: N_4  and  C_5 
REMARK    3  A    between atoms: C_5  and  C_6 
ROOT
HETATM    1  N   UNL     1      43.034 -13.536   3.963  1.00  0.00    -0.306 N 
HETATM    2  C   UNL     1      42.930 -14.520   2.995  1.00  0.00     0.275 C 
HETATM    3  O   UNL     1      42.602 -14.326   1.830  1.00  0.00    -0.266 OA
HETATM    4  H   UNL     1      43.322 -13.883   4.872  1.00  0.00     0.170 HD
ENDROOT
BRANCH   2   5
HETATM    5  C   UNL     1      43.259 -15.885   3.507  1.00  0.00     0.125 A 
HETATM    6  N   UNL     1      43.140 -16.895   2.596  1.00  0.00    -0.243 NA
HETATM    7  C   UNL     1      43.418 -18.140   3.017  1.00  0.00     0.068 A 
HETATM    8  C   UNL     1      43.819 -18.423   4.344  1.00  0.00    -0.007 A 
HETATM    9  C   UNL     1      43.311 -19.200   2.126  1.00  0.00     0.032 A 
HETATM   10  C   UNL     1      43.928 -17.355   5.246  1.00  0.00     0.016 A 
HETATM   11  C   UNL     1      44.096 -19.743   4.733  1.00  0.00     0.014 A 
HETATM   12  C   UNL     1      43.644 -16.062   4.825  1.00  0.00     0.038 A 
HETATM   13  C   UNL     1      43.978 -20.787   3.817  1.00  0.00     0.001 A 
HETATM   14  C   UNL     1      43.586 -20.516   2.512  1.00  0.00     0.002 A 
ENDBRANCH   2   5
BRANCH   1  15
HETATM   15  C   UNL     1      42.841 -12.190   3.795  1.00  0.00     0.133 C 
HETATM   16  N   UNL     1      43.784 -11.386   3.448  1.00  0.00    -0.283 NA
HETATM   17  H   UNL     1      44.649 -11.936   3.326  1.00  0.00     0.188 HD
BRANCH  15  18
HETATM   18  C   UNL     1      41.500 -11.662   4.031  1.00  0.00     0.016 A 
HETATM   19  C   UNL     1      40.689 -11.213   2.999  1.00  0.00     0.065 A 
HETATM   20  S   UNL     1      39.170 -10.636   3.527  1.00  0.00    -0.113 SA
HETATM   21  C   UNL     1      39.549 -10.981   5.154  1.00  0.00     0.050 A 
HETATM   22  C   UNL     1      40.811 -11.521   5.288  1.00  0.00     0.023 A 
ENDBRANCH  15  18
ENDBRANCH   1  15
TORSDOF 3
ENDMDL
MODEL 8
REMARK VINA RESULT:      -6.9      2.655      7.758
REMARK  3 active torsions:
REMARK  status: ('A' for Active; 'I' for Inactive)
REMARK    1  A    between atoms: C_3  and  N_4 
REMARK    2  A    between atoms: C_3  and  C_17 
REMARK       I    between atoms: N_4  and  C_5 
REMARK    3  A    between atoms: C_5  and  C_6 
ROOT
HETATM    1  N   UNL     1      43.258 -13.087   4.877  1.00  0.00    -0.306 N 
HETATM    2  C   UNL     1      43.784 -11.810   4.791  1.00  0.00     0.275 C 
HETATM    3  O   UNL     1      43.854 -11.147   3.762  1.00  0.00    -0.266 OA
HETATM    4  H   UNL     1      43.280 -13.478   5.812  1.00  0.00     0.170 HD
ENDROOT
BRANCH   2   5
HETATM    5  C   UNL     1      44.281 -11.289   6.101  1.00  0.00     0.125 A 
HETATM    6  N   UNL     1      43.327 -10.744   6.912  1.00  0.00    -0.243 NA
HETATM    7  C   UNL     1      43.732 -10.256   8.096  1.00  0.00     0.068 A 
HETATM    8  C   UNL     1      45.083 -10.291   8.512  1.00  0.00    -0.007 A 
HETATM    9  C   UNL     1      42.798  -9.690   8.955  1.00  0.00     0.032 A 
HETATM   10  C   UNL     1      46.029 -10.861   7.648  1.00  0.00     0.016 A 
HETATM   11  C   UNL     1      45.454  -9.765   9.760  1.00  0.00     0.014 A 
HETATM   12  C   UNL     1      45.625 -11.370   6.419  1.00  0.00     0.038 A 
HETATM   13  C   UNL     1      44.495  -9.203  10.600  1.00  0.00     0.001 A 
HETATM   14  C   UNL     1      43.166  -9.166  10.198  1.00  0.00     0.002 A 
ENDBRANCH   2   5
BRANCH   1  15
HETATM   15  C   UNL     1      42.687 -13.814   3.865  1.00  0.00     0.133 C 
HETATM   16  N   UNL     1      41.886 -13.299   2.999  1.00  0.00    -0.283 NA
HETATM   17  H   UNL     1      41.782 -12.294   3.212  1.00  0.00     0.188 HD
BRANCH  15  18
HETATM   18  C   UNL     1      43.009 -15.236   3.786  1.00  0.00     0.016 A 
HETATM   19  C   UNL     1      43.384 -15.973   4.899  1.00  0.00     0.065 A 
HETATM   20  S   UNL     1      43.716 -17.612   4.553  1.00  0.00    -0.113 SA
HETATM   21  C   UNL     1      43.356 -17.387   2.900  1.00  0.00     0.050 A 
HETATM   22  C   UNL     1      42.995 -16.085   2.623  1.00  0.00     0.023 A 
ENDBRANCH  15  18
ENDBRANCH   1  15
TORSDOF 3
ENDMDL
MODEL 9
REMARK VINA RESULT:      -6.9      5.026      7.046
REMARK  3 active torsions:
REMARK  status: ('A' for Active; 'I' for Inactive)
REMARK    1  A    between atoms: C_3  and  N_4 
REMARK    2  A    between atoms: C_3  and  C_17 
REMARK       I    between atoms: N_4  and  C_5 
REMARK    3  A    between atoms: C_5  and  C_6 
ROOT
HETATM    1  N   UNL     1      42.317 -15.050   2.824  1.00  0.00    -0.306 N 
HETATM    2  C   UNL     1      41.217 -14.209   2.811  1.00  0.00     0.275 C 
HETATM    3  O   UNL     1      40.571 -13.884   3.801  1.00  0.00    -0.266 OA
HETATM    4  H   UNL     1      42.726 -15.203   1.909  1.00  0.00     0.170 HD
ENDROOT
BRANCH   2   5
HETATM    5  C   UNL     1      40.869 -13.717   1.443  1.00  0.00     0.125 A 
HETATM    6  N   UNL     1      40.227 -14.620   0.645  1.00  0.00    -0.243 NA
HETATM    7  C   UNL     1      39.904 -14.221  -0.597  1.00  0.00     0.068 A 
HETATM    8  C   UNL     1      40.203 -12.927  -1.083  1.00  0.00    -0.007 A 
HETATM    9  C   UNL     1      39.251 -15.104  -1.447  1.00  0.00     0.032 A 
HETATM   10  C   UNL     1      40.862 -12.033  -0.228  1.00  0.00     0.016 A 
HETATM   11  C   UNL     1      39.844 -12.561  -2.391  1.00  0.00     0.014 A 
HETATM   12  C   UNL     1      41.203 -12.430   1.059  1.00  0.00     0.038 A 
HETATM   13  C   UNL     1      39.190 -13.469  -3.222  1.00  0.00     0.001 A 
HETATM   14  C   UNL     1      38.893 -14.742  -2.750  1.00  0.00     0.002 A 
ENDBRANCH   2   5
BRANCH   1  15
HETATM   15  C   UNL     1      42.904 -15.624   3.921  1.00  0.00     0.133 C 
HETATM   16  N   UNL     1      43.081 -14.994   5.030  1.00  0.00    -0.283 NA
HETATM   17  H   UNL     1      42.706 -14.038   4.922  1.00  0.00     0.188 HD
BRANCH  15  18
HETATM   18  C   UNL     1      43.348 -17.010   3.806  1.00  0.00     0.016 A 
HETATM   19  C   UNL     1      43.797 -17.736   4.899  1.00  0.00     0.065 A 
HETATM   20  S   UNL     1      44.267 -19.332   4.511  1.00  0.00    -0.113 SA
HETATM   21  C   UNL     1      43.872 -19.102   2.868  1.00  0.00     0.050 A 
HETATM   22  C   UNL     1      43.396 -17.831   2.624  1.00  0.00     0.023 A 
ENDBRANCH  15  18
ENDBRANCH   1  15
TORSDOF 3
ENDMDL
MODEL 10
REMARK VINA RESULT:      -6.8     15.248     16.226
REMARK  3 active torsions:
REMARK  status: ('A' for Active; 'I' for Inactive)
REMARK    1  A    between atoms: C_3  and  N_4 
REMARK    2  A    between atoms: C_3  and  C_17 
REMARK       I    between atoms: N_4  and  C_5 
REMARK    3  A    between atoms: C_5  and  C_6 
ROOT
HETATM    1  N   UNL     1      47.069 -29.954   2.391  1.00  0.00    -0.306 N 
HETATM    2  C   UNL     1      47.253 -28.682   1.877  1.00  0.00     0.275 C 
HETATM    3  O   UNL     1      47.680 -27.724   2.510  1.00  0.00    -0.266 OA
HETATM    4  H   UNL     1      46.710 -30.621   1.718  1.00  0.00     0.170 HD
ENDROOT
BRANCH   2   5
HETATM    5  C   UNL     1      46.872 -28.571   0.435  1.00  0.00     0.125 A 
HETATM    6  N   UNL     1      45.681 -29.148   0.101  1.00  0.00    -0.243 NA
HETATM    7  C   UNL     1      45.304 -29.078  -1.187  1.00  0.00     0.068 A 
HETATM    8  C   UNL     1      46.088 -28.440  -2.176  1.00  0.00    -0.007 A 
HETATM    9  C   UNL     1      44.100 -29.652  -1.576  1.00  0.00     0.032 A 
HETATM   10  C   UNL     1      47.304 -27.860  -1.787  1.00  0.00     0.016 A 
HETATM   11  C   UNL     1      45.648 -28.397  -3.509  1.00  0.00     0.014 A 
HETATM   12  C   UNL     1      47.707 -27.924  -0.459  1.00  0.00     0.038 A 
HETATM   13  C   UNL     1      44.437 -28.982  -3.870  1.00  0.00     0.001 A 
HETATM   14  C   UNL     1      43.661 -29.610  -2.903  1.00  0.00     0.002 A 
ENDBRANCH   2   5
BRANCH   1  15
HETATM   15  C   UNL     1      47.365 -30.381   3.659  1.00  0.00     0.133 C 
HETATM   16  N   UNL     1      46.504 -30.387   4.615  1.00  0.00    -0.283 NA
HETATM   17  H   UNL     1      45.607 -30.033   4.245  1.00  0.00     0.188 HD
BRANCH  15  18
HETATM   18  C   UNL     1      48.727 -30.841   3.919  1.00  0.00     0.016 A 
HETATM   19  C   UNL     1      49.069 -32.185   3.911  1.00  0.00     0.065 A 
HETATM   20  S   UNL     1      50.718 -32.471   4.249  1.00  0.00    -0.113 SA
HETATM   21  C   UNL     1      51.028 -30.801   4.405  1.00  0.00     0.050 A 
HETATM   22  C   UNL     1      49.892 -30.044   4.207  1.00  0.00     0.023 A 
ENDBRANCH  15  18
ENDBRANCH   1  15
TORSDOF 3
ENDMDL
