MODEL 1
REMARK VINA RESULT:      -9.5      0.000      0.000
REMARK  6 active torsions:
REMARK  status: ('A' for Active; 'I' for Inactive)
REMARK    1  A    between atoms: C_6  and  C_7 
REMARK    2  A    between atoms: C_7  and  N_8 
REMARK    3  A    between atoms: C_12  and  C_13 
REMARK    4  A    between atoms: C_13  and  C_14 
REMARK    5  A    between atoms: N_23  and  C_24 
REMARK    6  A    between atoms: C_24  and  C_25 
ROOT
HETATM    1  C   UNL     1      41.889 -14.580   4.156  1.00  0.00     0.164 C 
HETATM    2  N   UNL     1      42.568 -13.747   3.172  1.00  0.00    -0.319 N 
HETATM    3  C   UNL     1      43.230 -12.684   3.734  1.00  0.00     0.326 C 
HETATM    4  O   UNL     1      44.006 -11.966   3.133  1.00  0.00    -0.247 OA
HETATM    5  N   UNL     1      42.867 -12.598   5.038  1.00  0.00    -0.265 N 
HETATM    6  C   UNL     1      42.106 -13.676   5.385  1.00  0.00     0.263 C 
HETATM    7  O   UNL     1      41.650 -13.901   6.503  1.00  0.00    -0.270 OA
HETATM    8  H   UNL     1      42.899 -14.122   2.288  1.00  0.00     0.166 HD
ENDROOT
BRANCH   1   9
HETATM    9  C   UNL     1      40.386 -14.757   3.727  1.00  0.00     0.033 C 
HETATM   10  C   UNL     1      40.127 -15.792   2.613  1.00  0.00     0.036 C 
HETATM   11  C   UNL     1      40.359 -15.293   1.191  1.00  0.00     0.235 C 
HETATM   12  N   UNL     1      39.658 -13.982   0.941  1.00  0.00    -0.067 N 
HETATM   13  H   UNL     1      38.652 -14.185   0.907  1.00  0.00     0.280 HD
HETATM   14  C   UNL     1      39.885 -12.928   1.991  1.00  0.00     0.235 C 
HETATM   15  C   UNL     1      39.611 -13.473   3.378  1.00  0.00     0.036 C 
BRANCH  12  16
HETATM   16  C   UNL     1      40.027 -13.414  -0.426  1.00  0.00     0.273 C 
BRANCH  16  17
HETATM   17  C   UNL     1      38.853 -12.907  -1.223  1.00  0.00    -0.027 A 
HETATM   18  C   UNL     1      38.258 -13.656  -2.261  1.00  0.00    -0.054 A 
HETATM   19  C   UNL     1      37.181 -13.101  -2.976  1.00  0.00     0.014 A 
HETATM   20  C   UNL     1      38.752 -15.019  -2.667  1.00  0.00     0.049 C 
HETATM   21  C   UNL     1      36.692 -11.823  -2.685  1.00  0.00    -0.061 A 
HETATM   22  C   UNL     1      35.557 -11.234  -3.471  1.00  0.00     0.048 C 
HETATM   23  C   UNL     1      37.280 -11.092  -1.653  1.00  0.00     0.007 A 
HETATM   24  C   UNL     1      38.348 -11.626  -0.930  1.00  0.00     0.010 A 
ENDBRANCH  16  17
ENDBRANCH  12  16
ENDBRANCH   1   9
BRANCH   1  25
HETATM   25  C   UNL     1      42.628 -15.916   4.238  1.00  0.00     0.072 A 
HETATM   26  N   UNL     1      42.612 -16.507   5.466  1.00  0.00    -0.262 NA
HETATM   27  C   UNL     1      43.235 -17.700   5.608  1.00  0.00     0.117 A 
HETATM   28  C   UNL     1      43.903 -18.340   4.582  1.00  0.00     0.019 A 
HETATM   29  C   UNL     1      43.931 -17.727   3.339  1.00  0.00     0.003 A 
HETATM   30  C   UNL     1      43.288 -16.503   3.158  1.00  0.00     0.030 A 
ENDBRANCH   1  25
BRANCH   5  31
HETATM   31  C   UNL     1      43.229 -11.514   5.935  1.00  0.00     0.168 C 
BRANCH  31  32
HETATM   32  C   UNL     1      44.414 -11.852   6.860  1.00  0.00     0.140 C 
HETATM   33  O   UNL     1      44.190 -11.358   8.204  1.00  0.00    -0.384 OA
HETATM   34  C   UNL     1      45.448 -10.854   8.683  1.00  0.00     0.168 C 
HETATM   35  C   UNL     1      46.159 -10.323   7.463  1.00  0.00     0.029 C 
HETATM   36  C   UNL     1      45.770 -11.322   6.401  1.00  0.00     0.036 C 
ENDBRANCH  31  32
ENDBRANCH   5  31
TORSDOF 6
ENDMDL
MODEL 2
REMARK VINA RESULT:      -9.2      2.548      7.007
REMARK  6 active torsions:
REMARK  status: ('A' for Active; 'I' for Inactive)
REMARK    1  A    between atoms: C_6  and  C_7 
REMARK    2  A    between atoms: C_7  and  N_8 
REMARK    3  A    between atoms: C_12  and  C_13 
REMARK    4  A    between atoms: C_13  and  C_14 
REMARK    5  A    between atoms: N_23  and  C_24 
REMARK    6  A    between atoms: C_24  and  C_25 
ROOT
HETATM    1  C   UNL     1      40.162 -13.077   3.050  1.00  0.00     0.164 C 
HETATM    2  N   UNL     1      39.309 -12.983   4.229  1.00  0.00    -0.319 N 
HETATM    3  C   UNL     1      40.017 -12.773   5.386  1.00  0.00     0.326 C 
HETATM    4  O   UNL     1      39.510 -12.485   6.455  1.00  0.00    -0.247 OA
HETATM    5  N   UNL     1      41.335 -12.936   5.116  1.00  0.00    -0.265 N 
HETATM    6  C   UNL     1      41.522 -13.092   3.773  1.00  0.00     0.263 C 
HETATM    7  O   UNL     1      42.606 -13.232   3.213  1.00  0.00    -0.270 OA
HETATM    8  H   UNL     1      38.348 -12.659   4.173  1.00  0.00     0.166 HD
ENDROOT
BRANCH   1   9
HETATM    9  C   UNL     1      39.815 -14.399   2.272  1.00  0.00     0.033 C 
HETATM   10  C   UNL     1      39.893 -15.700   3.097  1.00  0.00     0.036 C 
HETATM   11  C   UNL     1      41.290 -16.290   3.255  1.00  0.00     0.235 C 
HETATM   12  N   UNL     1      42.001 -16.399   1.930  1.00  0.00    -0.067 N 
HETATM   13  H   UNL     1      41.537 -17.150   1.406  1.00  0.00     0.280 HD
HETATM   14  C   UNL     1      41.968 -15.153   1.086  1.00  0.00     0.235 C 
HETATM   15  C   UNL     1      40.553 -14.631   0.940  1.00  0.00     0.036 C 
BRANCH  12  16
HETATM   16  C   UNL     1      43.450 -16.837   2.118  1.00  0.00     0.273 C 
BRANCH  16  17
HETATM   17  C   UNL     1      43.617 -18.081   2.952  1.00  0.00    -0.027 A 
HETATM   18  C   UNL     1      43.971 -18.040   4.318  1.00  0.00    -0.054 A 
HETATM   19  C   UNL     1      44.133 -19.247   5.021  1.00  0.00     0.014 A 
HETATM   20  C   UNL     1      44.223 -16.750   5.054  1.00  0.00     0.049 C 
HETATM   21  C   UNL     1      43.957 -20.486   4.396  1.00  0.00    -0.061 A 
HETATM   22  C   UNL     1      44.155 -21.767   5.152  1.00  0.00     0.048 C 
HETATM   23  C   UNL     1      43.598 -20.519   3.048  1.00  0.00     0.007 A 
HETATM   24  C   UNL     1      43.431 -19.332   2.333  1.00  0.00     0.010 A 
ENDBRANCH  16  17
ENDBRANCH  12  16
ENDBRANCH   1   9
BRANCH   1  25
HETATM   25  C   UNL     1      39.932 -11.828   2.199  1.00  0.00     0.072 A 
HETATM   26  N   UNL     1      38.642 -11.392   2.155  1.00  0.00    -0.262 NA
HETATM   27  C   UNL     1      38.367 -10.282   1.431  1.00  0.00     0.117 A 
HETATM   28  C   UNL     1      39.319  -9.581   0.717  1.00  0.00     0.019 A 
HETATM   29  C   UNL     1      40.628 -10.038   0.751  1.00  0.00     0.003 A 
HETATM   30  C   UNL     1      40.945 -11.172   1.498  1.00  0.00     0.030 A 
ENDBRANCH   1  25
BRANCH   5  31
HETATM   31  C   UNL     1      42.395 -12.950   6.109  1.00  0.00     0.168 C 
BRANCH  31  32
HETATM   32  C   UNL     1      43.252 -11.670   6.113  1.00  0.00     0.140 C 
HETATM   33  O   UNL     1      44.547 -11.901   5.505  1.00  0.00    -0.384 OA
HETATM   34  C   UNL     1      45.512 -11.172   6.281  1.00  0.00     0.168 C 
HETATM   35  C   UNL     1      44.987 -11.188   7.695  1.00  0.00     0.029 C 
HETATM   36  C   UNL     1      43.498 -11.055   7.488  1.00  0.00     0.036 C 
ENDBRANCH  31  32
ENDBRANCH   5  31
TORSDOF 6
ENDMDL
MODEL 3
REMARK VINA RESULT:      -9.0      3.111      8.169
REMARK  6 active torsions:
REMARK  status: ('A' for Active; 'I' for Inactive)
REMARK    1  A    between atoms: C_6  and  C_7 
REMARK    2  A    between atoms: C_7  and  N_8 
REMARK    3  A    between atoms: C_12  and  C_13 
REMARK    4  A    between atoms: C_13  and  C_14 
REMARK    5  A    between atoms: N_23  and  C_24 
REMARK    6  A    between atoms: C_24  and  C_25 
ROOT
HETATM    1  C   UNL     1      39.798 -11.271   3.101  1.00  0.00     0.164 C 
HETATM    2  N   UNL     1      41.083 -11.326   2.416  1.00  0.00    -0.319 N 
HETATM    3  C   UNL     1      41.035 -10.813   1.144  1.00  0.00     0.326 C 
HETATM    4  O   UNL     1      42.016 -10.592   0.458  1.00  0.00    -0.247 OA
HETATM    5  N   UNL     1      39.736 -10.604   0.817  1.00  0.00    -0.265 N 
HETATM    6  C   UNL     1      38.939 -10.818   1.904  1.00  0.00     0.263 C 
HETATM    7  O   UNL     1      37.719 -10.682   1.936  1.00  0.00    -0.270 OA
HETATM    8  H   UNL     1      41.963 -11.306   2.923  1.00  0.00     0.166 HD
ENDROOT
BRANCH   1   9
HETATM    9  C   UNL     1      39.451 -12.701   3.656  1.00  0.00     0.033 C 
HETATM   10  C   UNL     1      40.227 -13.133   4.918  1.00  0.00     0.036 C 
HETATM   11  C   UNL     1      41.624 -13.691   4.667  1.00  0.00     0.235 C 
HETATM   12  N   UNL     1      41.614 -14.753   3.597  1.00  0.00    -0.067 N 
HETATM   13  H   UNL     1      41.153 -15.577   4.001  1.00  0.00     0.280 HD
HETATM   14  C   UNL     1      40.882 -14.380   2.336  1.00  0.00     0.235 C 
HETATM   15  C   UNL     1      39.491 -13.863   2.647  1.00  0.00     0.036 C 
BRANCH  12  16
HETATM   16  C   UNL     1      43.033 -15.186   3.241  1.00  0.00     0.273 C 
BRANCH  16  17
HETATM   17  C   UNL     1      43.266 -16.673   3.329  1.00  0.00    -0.027 A 
HETATM   18  C   UNL     1      43.793 -17.293   4.484  1.00  0.00    -0.054 A 
HETATM   19  C   UNL     1      44.006 -18.683   4.478  1.00  0.00     0.014 A 
HETATM   20  C   UNL     1      44.176 -16.520   5.718  1.00  0.00     0.049 C 
HETATM   21  C   UNL     1      43.714 -19.462   3.354  1.00  0.00    -0.061 A 
HETATM   22  C   UNL     1      43.968 -20.941   3.353  1.00  0.00     0.048 C 
HETATM   23  C   UNL     1      43.186 -18.844   2.220  1.00  0.00     0.007 A 
HETATM   24  C   UNL     1      42.965 -17.466   2.206  1.00  0.00     0.010 A 
ENDBRANCH  16  17
ENDBRANCH  12  16
ENDBRANCH   1   9
BRANCH   1  25
HETATM   25  C   UNL     1      39.898 -10.227   4.214  1.00  0.00     0.072 A 
HETATM   26  N   UNL     1      41.157  -9.760   4.452  1.00  0.00    -0.262 NA
HETATM   27  C   UNL     1      41.319  -8.824   5.414  1.00  0.00     0.117 A 
HETATM   28  C   UNL     1      40.282  -8.331   6.183  1.00  0.00     0.019 A 
HETATM   29  C   UNL     1      39.006  -8.821   5.950  1.00  0.00     0.003 A 
HETATM   30  C   UNL     1      38.805  -9.779   4.956  1.00  0.00     0.030 A 
ENDBRANCH   1  25
BRANCH   5  31
HETATM   31  C   UNL     1      39.259 -10.215  -0.498  1.00  0.00     0.168 C 
BRANCH  31  32
HETATM   32  C   UNL     1      38.931 -11.411  -1.412  1.00  0.00     0.140 C 
HETATM   33  O   UNL     1      38.682 -12.611  -0.639  1.00  0.00    -0.384 OA
HETATM   34  C   UNL     1      39.282 -13.704  -1.354  1.00  0.00     0.168 C 
HETATM   35  C   UNL     1      40.489 -13.119  -2.044  1.00  0.00     0.029 C 
HETATM   36  C   UNL     1      39.999 -11.750  -2.448  1.00  0.00     0.036 C 
ENDBRANCH  31  32
ENDBRANCH   5  31
TORSDOF 6
ENDMDL
MODEL 4
REMARK VINA RESULT:      -9.0      1.958      7.423
REMARK  6 active torsions:
REMARK  status: ('A' for Active; 'I' for Inactive)
REMARK    1  A    between atoms: C_6  and  C_7 
REMARK    2  A    between atoms: C_7  and  N_8 
REMARK    3  A    between atoms: C_12  and  C_13 
REMARK    4  A    between atoms: C_13  and  C_14 
REMARK    5  A    between atoms: N_23  and  C_24 
REMARK    6  A    between atoms: C_24  and  C_25 
ROOT
HETATM    1  C   UNL     1      39.713 -12.526   2.035  1.00  0.00     0.164 C 
HETATM    2  N   UNL     1      39.096 -12.850   3.315  1.00  0.00    -0.319 N 
HETATM    3  C   UNL     1      39.572 -12.083   4.349  1.00  0.00     0.326 C 
HETATM    4  O   UNL     1      39.079 -12.053   5.462  1.00  0.00    -0.247 OA
HETATM    5  N   UNL     1      40.649 -11.390   3.905  1.00  0.00    -0.265 N 
HETATM    6  C   UNL     1      40.795 -11.563   2.559  1.00  0.00     0.263 C 
HETATM    7  O   UNL     1      41.660 -11.042   1.860  1.00  0.00    -0.270 OA
HETATM    8  H   UNL     1      38.158 -13.235   3.378  1.00  0.00     0.166 HD
ENDROOT
BRANCH   1   9
HETATM    9  C   UNL     1      40.266 -13.846   1.384  1.00  0.00     0.033 C 
HETATM   10  C   UNL     1      39.872 -15.157   2.095  1.00  0.00     0.036 C 
HETATM   11  C   UNL     1      40.726 -15.527   3.303  1.00  0.00     0.235 C 
HETATM   12  N   UNL     1      42.198 -15.457   2.986  1.00  0.00    -0.067 N 
HETATM   13  H   UNL     1      42.405 -16.246   2.361  1.00  0.00     0.280 HD
HETATM   14  C   UNL     1      42.643 -14.192   2.302  1.00  0.00     0.235 C 
HETATM   15  C   UNL     1      41.777 -13.894   1.094  1.00  0.00     0.036 C 
BRANCH  12  16
HETATM   16  C   UNL     1      43.041 -15.670   4.239  1.00  0.00     0.273 C 
BRANCH  16  17
HETATM   17  C   UNL     1      43.349 -17.115   4.540  1.00  0.00    -0.027 A 
HETATM   18  C   UNL     1      43.312 -17.644   5.849  1.00  0.00    -0.054 A 
HETATM   19  C   UNL     1      43.638 -18.997   6.050  1.00  0.00     0.014 A 
HETATM   20  C   UNL     1      42.975 -16.808   7.055  1.00  0.00     0.049 C 
HETATM   21  C   UNL     1      44.003 -19.827   4.985  1.00  0.00    -0.061 A 
HETATM   22  C   UNL     1      44.370 -21.263   5.216  1.00  0.00     0.048 C 
HETATM   23  C   UNL     1      44.028 -19.299   3.693  1.00  0.00     0.007 A 
HETATM   24  C   UNL     1      43.706 -17.959   3.472  1.00  0.00     0.010 A 
ENDBRANCH  16  17
ENDBRANCH  12  16
ENDBRANCH   1   9
BRANCH   1  25
HETATM   25  C   UNL     1      38.659 -11.848   1.160  1.00  0.00     0.072 A 
HETATM   26  N   UNL     1      38.816 -12.038  -0.181  1.00  0.00    -0.262 NA
HETATM   27  C   UNL     1      37.911 -11.478  -1.016  1.00  0.00     0.117 A 
HETATM   28  C   UNL     1      36.849 -10.707  -0.585  1.00  0.00     0.019 A 
HETATM   29  C   UNL     1      36.702 -10.501   0.779  1.00  0.00     0.003 A 
HETATM   30  C   UNL     1      37.612 -11.076   1.665  1.00  0.00     0.030 A 
ENDBRANCH   1  25
BRANCH   5  31
HETATM   31  C   UNL     1      41.525 -10.585   4.738  1.00  0.00     0.168 C 
BRANCH  31  32
HETATM   32  C   UNL     1      42.348 -11.412   5.744  1.00  0.00     0.140 C 
HETATM   33  O   UNL     1      42.758 -10.607   6.877  1.00  0.00    -0.384 OA
HETATM   34  C   UNL     1      44.100 -10.999   7.209  1.00  0.00     0.168 C 
HETATM   35  C   UNL     1      44.740 -11.390   5.900  1.00  0.00     0.029 C 
HETATM   36  C   UNL     1      43.604 -12.067   5.174  1.00  0.00     0.036 C 
ENDBRANCH  31  32
ENDBRANCH   5  31
TORSDOF 6
ENDMDL
MODEL 5
REMARK VINA RESULT:      -8.7      2.692      7.489
REMARK  6 active torsions:
REMARK  status: ('A' for Active; 'I' for Inactive)
REMARK    1  A    between atoms: C_6  and  C_7 
REMARK    2  A    between atoms: C_7  and  N_8 
REMARK    3  A    between atoms: C_12  and  C_13 
REMARK    4  A    between atoms: C_13  and  C_14 
REMARK    5  A    between atoms: N_23  and  C_24 
REMARK    6  A    between atoms: C_24  and  C_25 
ROOT
HETATM    1  C   UNL     1      39.885 -12.278   1.248  1.00  0.00     0.164 C 
HETATM    2  N   UNL     1      38.816 -11.425   1.752  1.00  0.00    -0.319 N 
HETATM    3  C   UNL     1      39.272 -10.412   2.558  1.00  0.00     0.326 C 
HETATM    4  O   UNL     1      38.588  -9.482   2.940  1.00  0.00    -0.247 OA
HETATM    5  N   UNL     1      40.581 -10.640   2.828  1.00  0.00    -0.265 N 
HETATM    6  C   UNL     1      41.036 -11.692   2.089  1.00  0.00     0.263 C 
HETATM    7  O   UNL     1      42.186 -12.123   2.089  1.00  0.00    -0.270 OA
HETATM    8  H   UNL     1      37.946 -11.296   1.242  1.00  0.00     0.166 HD
ENDROOT
BRANCH   1   9
HETATM    9  C   UNL     1      39.536 -13.778   1.565  1.00  0.00     0.033 C 
HETATM   10  C   UNL     1      39.643 -14.190   3.048  1.00  0.00     0.036 C 
HETATM   11  C   UNL     1      41.048 -14.531   3.532  1.00  0.00     0.235 C 
HETATM   12  N   UNL     1      41.734 -15.505   2.606  1.00  0.00    -0.067 N 
HETATM   13  H   UNL     1      41.267 -16.411   2.731  1.00  0.00     0.280 HD
HETATM   14  C   UNL     1      41.672 -15.146   1.146  1.00  0.00     0.235 C 
HETATM   15  C   UNL     1      40.249 -14.848   0.718  1.00  0.00     0.036 C 
BRANCH  12  16
HETATM   16  C   UNL     1      43.190 -15.713   3.009  1.00  0.00     0.273 C 
BRANCH  16  17
HETATM   17  C   UNL     1      43.472 -17.050   3.645  1.00  0.00    -0.027 A 
HETATM   18  C   UNL     1      43.664 -17.206   5.035  1.00  0.00    -0.054 A 
HETATM   19  C   UNL     1      43.948 -18.484   5.548  1.00  0.00     0.014 A 
HETATM   20  C   UNL     1      43.614 -16.049   5.998  1.00  0.00     0.049 C 
HETATM   21  C   UNL     1      44.051 -19.601   4.712  1.00  0.00    -0.061 A 
HETATM   22  C   UNL     1      44.378 -20.955   5.270  1.00  0.00     0.048 C 
HETATM   23  C   UNL     1      43.852 -19.440   3.341  1.00  0.00     0.007 A 
HETATM   24  C   UNL     1      43.567 -18.181   2.812  1.00  0.00     0.010 A 
ENDBRANCH  16  17
ENDBRANCH  12  16
ENDBRANCH   1   9
BRANCH   1  25
HETATM   25  C   UNL     1      40.029 -12.023  -0.252  1.00  0.00     0.072 A 
HETATM   26  N   UNL     1      38.877 -12.154  -0.970  1.00  0.00    -0.262 NA
HETATM   27  C   UNL     1      38.926 -11.928  -2.303  1.00  0.00     0.117 A 
HETATM   28  C   UNL     1      40.084 -11.594  -2.979  1.00  0.00     0.019 A 
HETATM   29  C   UNL     1      41.257 -11.478  -2.247  1.00  0.00     0.003 A 
HETATM   30  C   UNL     1      41.235 -11.693  -0.870  1.00  0.00     0.030 A 
ENDBRANCH   1  25
BRANCH   5  31
HETATM   31  C   UNL     1      41.382  -9.879   3.771  1.00  0.00     0.168 C 
BRANCH  31  32
HETATM   32  C   UNL     1      41.166 -10.296   5.238  1.00  0.00     0.140 C 
HETATM   33  O   UNL     1      40.580 -11.619   5.329  1.00  0.00    -0.384 OA
HETATM   34  C   UNL     1      39.622 -11.582   6.400  1.00  0.00     0.168 C 
HETATM   35  C   UNL     1      39.074 -10.177   6.402  1.00  0.00     0.029 C 
HETATM   36  C   UNL     1      40.292  -9.354   6.061  1.00  0.00     0.036 C 
ENDBRANCH  31  32
ENDBRANCH   5  31
TORSDOF 6
ENDMDL
MODEL 6
REMARK VINA RESULT:      -8.6      1.843      5.129
REMARK  6 active torsions:
REMARK  status: ('A' for Active; 'I' for Inactive)
REMARK    1  A    between atoms: C_6  and  C_7 
REMARK    2  A    between atoms: C_7  and  N_8 
REMARK    3  A    between atoms: C_12  and  C_13 
REMARK    4  A    between atoms: C_13  and  C_14 
REMARK    5  A    between atoms: N_23  and  C_24 
REMARK    6  A    between atoms: C_24  and  C_25 
ROOT
HETATM    1  C   UNL     1      42.751 -12.622   5.615  1.00  0.00     0.164 C 
HETATM    2  N   UNL     1      41.312 -12.854   5.641  1.00  0.00    -0.319 N 
HETATM    3  C   UNL     1      40.963 -13.978   6.348  1.00  0.00     0.326 C 
HETATM    4  O   UNL     1      39.821 -14.267   6.653  1.00  0.00    -0.247 OA
HETATM    5  N   UNL     1      42.093 -14.671   6.632  1.00  0.00    -0.265 N 
HETATM    6  C   UNL     1      43.191 -13.948   6.267  1.00  0.00     0.263 C 
HETATM    7  O   UNL     1      44.360 -14.292   6.421  1.00  0.00    -0.270 OA
HETATM    8  H   UNL     1      40.644 -12.093   5.563  1.00  0.00     0.166 HD
ENDROOT
BRANCH   1   9
HETATM    9  C   UNL     1      43.213 -12.437   4.124  1.00  0.00     0.033 C 
HETATM   10  C   UNL     1      42.876 -11.074   3.485  1.00  0.00     0.036 C 
HETATM   11  C   UNL     1      41.456 -10.938   2.945  1.00  0.00     0.235 C 
HETATM   12  N   UNL     1      41.083 -12.103   2.062  1.00  0.00    -0.067 N 
HETATM   13  H   UNL     1      41.624 -12.002   1.196  1.00  0.00     0.280 HD
HETATM   14  C   UNL     1      41.378 -13.460   2.641  1.00  0.00     0.235 C 
HETATM   15  C   UNL     1      42.810 -13.544   3.132  1.00  0.00     0.036 C 
BRANCH  12  16
HETATM   16  C   UNL     1      39.613 -12.039   1.662  1.00  0.00     0.273 C 
BRANCH  16  17
HETATM   17  C   UNL     1      39.305 -12.682   0.334  1.00  0.00    -0.027 A 
HETATM   18  C   UNL     1      38.475 -12.073  -0.632  1.00  0.00    -0.054 A 
HETATM   19  C   UNL     1      38.215 -12.750  -1.838  1.00  0.00     0.014 A 
HETATM   20  C   UNL     1      37.819 -10.736  -0.414  1.00  0.00     0.049 C 
HETATM   21  C   UNL     1      38.755 -14.014  -2.096  1.00  0.00    -0.061 A 
HETATM   22  C   UNL     1      38.452 -14.736  -3.376  1.00  0.00     0.048 C 
HETATM   23  C   UNL     1      39.581 -14.607  -1.140  1.00  0.00     0.007 A 
HETATM   24  C   UNL     1      39.853 -13.950   0.061  1.00  0.00     0.010 A 
ENDBRANCH  16  17
ENDBRANCH  12  16
ENDBRANCH   1   9
BRANCH   1  25
HETATM   25  C   UNL     1      43.048 -11.390   6.470  1.00  0.00     0.072 A 
HETATM   26  N   UNL     1      44.341 -11.277   6.886  1.00  0.00    -0.262 NA
HETATM   27  C   UNL     1      44.680 -10.202   7.634  1.00  0.00     0.117 A 
HETATM   28  C   UNL     1      43.782  -9.225   8.018  1.00  0.00     0.019 A 
HETATM   29  C   UNL     1      42.463  -9.352   7.606  1.00  0.00     0.003 A 
HETATM   30  C   UNL     1      42.086 -10.443   6.824  1.00  0.00     0.030 A 
ENDBRANCH   1  25
BRANCH   5  31
HETATM   31  C   UNL     1      42.132 -15.994   7.231  1.00  0.00     0.168 C 
BRANCH  31  32
HETATM   32  C   UNL     1      42.359 -17.125   6.210  1.00  0.00     0.140 C 
HETATM   33  O   UNL     1      43.693 -17.679   6.326  1.00  0.00    -0.384 OA
HETATM   34  C   UNL     1      44.157 -17.941   4.991  1.00  0.00     0.168 C 
HETATM   35  C   UNL     1      43.520 -16.879   4.128  1.00  0.00     0.029 C 
HETATM   36  C   UNL     1      42.153 -16.735   4.749  1.00  0.00     0.036 C 
ENDBRANCH  31  32
ENDBRANCH   5  31
TORSDOF 6
ENDMDL
MODEL 7
REMARK VINA RESULT:      -8.6      2.942      8.021
REMARK  6 active torsions:
REMARK  status: ('A' for Active; 'I' for Inactive)
REMARK    1  A    between atoms: C_6  and  C_7 
REMARK    2  A    between atoms: C_7  and  N_8 
REMARK    3  A    between atoms: C_12  and  C_13 
REMARK    4  A    between atoms: C_13  and  C_14 
REMARK    5  A    between atoms: N_23  and  C_24 
REMARK    6  A    between atoms: C_24  and  C_25 
ROOT
HETATM    1  C   UNL     1      41.446 -10.335   3.270  1.00  0.00     0.164 C 
HETATM    2  N   UNL     1      41.753  -9.671   2.010  1.00  0.00    -0.319 N 
HETATM    3  C   UNL     1      40.975 -10.110   0.968  1.00  0.00     0.326 C 
HETATM    4  O   UNL     1      40.931  -9.578  -0.125  1.00  0.00    -0.247 OA
HETATM    5  N   UNL     1      40.290 -11.205   1.380  1.00  0.00    -0.265 N 
HETATM    6  C   UNL     1      40.479 -11.401   2.718  1.00  0.00     0.263 C 
HETATM    7  O   UNL     1      39.968 -12.292   3.390  1.00  0.00    -0.270 OA
HETATM    8  H   UNL     1      42.135  -8.730   1.977  1.00  0.00     0.166 HD
ENDROOT
BRANCH   1   9
HETATM    9  C   UNL     1      42.775 -10.908   3.885  1.00  0.00     0.033 C 
HETATM   10  C   UNL     1      43.415 -12.082   3.116  1.00  0.00     0.036 C 
HETATM   11  C   UNL     1      42.820 -13.455   3.405  1.00  0.00     0.235 C 
HETATM   12  N   UNL     1      42.720 -13.717   4.887  1.00  0.00    -0.067 N 
HETATM   13  H   UNL     1      43.679 -13.851   5.230  1.00  0.00     0.280 HD
HETATM   14  C   UNL     1      42.090 -12.609   5.688  1.00  0.00     0.235 C 
HETATM   15  C   UNL     1      42.743 -11.275   5.380  1.00  0.00     0.036 C 
BRANCH  12  16
HETATM   16  C   UNL     1      41.978 -15.019   5.167  1.00  0.00     0.273 C 
BRANCH  16  17
HETATM   17  C   UNL     1      42.436 -16.185   4.329  1.00  0.00    -0.027 A 
HETATM   18  C   UNL     1      41.724 -16.636   3.196  1.00  0.00    -0.054 A 
HETATM   19  C   UNL     1      42.204 -17.748   2.481  1.00  0.00     0.014 A 
HETATM   20  C   UNL     1      40.440 -15.997   2.737  1.00  0.00     0.049 C 
HETATM   21  C   UNL     1      43.367 -18.419   2.872  1.00  0.00    -0.061 A 
HETATM   22  C   UNL     1      43.857 -19.619   2.114  1.00  0.00     0.048 C 
HETATM   23  C   UNL     1      44.071 -17.963   3.987  1.00  0.00     0.007 A 
HETATM   24  C   UNL     1      43.612 -16.860   4.708  1.00  0.00     0.010 A 
ENDBRANCH  16  17
ENDBRANCH  12  16
ENDBRANCH   1   9
BRANCH   1  25
HETATM   25  C   UNL     1      40.775  -9.316   4.191  1.00  0.00     0.072 A 
HETATM   26  N   UNL     1      39.561  -9.696   4.682  1.00  0.00    -0.262 NA
HETATM   27  C   UNL     1      38.916  -8.849   5.516  1.00  0.00     0.117 A 
HETATM   28  C   UNL     1      39.410  -7.611   5.880  1.00  0.00     0.019 A 
HETATM   29  C   UNL     1      40.638  -7.221   5.365  1.00  0.00     0.003 A 
HETATM   30  C   UNL     1      41.332  -8.078   4.512  1.00  0.00     0.030 A 
ENDBRANCH   1  25
BRANCH   5  31
HETATM   31  C   UNL     1      39.477 -12.052   0.525  1.00  0.00     0.168 C 
BRANCH  31  32
HETATM   32  C   UNL     1      40.302 -12.922  -0.443  1.00  0.00     0.140 C 
HETATM   33  O   UNL     1      40.160 -12.467  -1.811  1.00  0.00    -0.384 OA
HETATM   34  C   UNL     1      40.091 -13.640  -2.639  1.00  0.00     0.168 C 
HETATM   35  C   UNL     1      39.411 -14.689  -1.795  1.00  0.00     0.029 C 
HETATM   36  C   UNL     1      39.972 -14.412  -0.421  1.00  0.00     0.036 C 
ENDBRANCH  31  32
ENDBRANCH   5  31
TORSDOF 6
ENDMDL
MODEL 8
REMARK VINA RESULT:      -8.6      1.752      4.698
REMARK  6 active torsions:
REMARK  status: ('A' for Active; 'I' for Inactive)
REMARK    1  A    between atoms: C_6  and  C_7 
REMARK    2  A    between atoms: C_7  and  N_8 
REMARK    3  A    between atoms: C_12  and  C_13 
REMARK    4  A    between atoms: C_13  and  C_14 
REMARK    5  A    between atoms: N_23  and  C_24 
REMARK    6  A    between atoms: C_24  and  C_25 
ROOT
HETATM    1  C   UNL     1      41.635 -12.793   5.446  1.00  0.00     0.164 C 
HETATM    2  N   UNL     1      40.926 -13.600   6.432  1.00  0.00    -0.319 N 
HETATM    3  C   UNL     1      41.061 -14.949   6.218  1.00  0.00     0.326 C 
HETATM    4  O   UNL     1      40.710 -15.805   7.008  1.00  0.00    -0.247 OA
HETATM    5  N   UNL     1      41.642 -15.132   5.006  1.00  0.00    -0.265 N 
HETATM    6  C   UNL     1      42.037 -13.933   4.489  1.00  0.00     0.263 C 
HETATM    7  O   UNL     1      42.619 -13.770   3.420  1.00  0.00    -0.270 OA
HETATM    8  H   UNL     1      40.753 -13.265   7.375  1.00  0.00     0.166 HD
ENDROOT
BRANCH   1   9
HETATM    9  C   UNL     1      40.640 -11.740   4.835  1.00  0.00     0.033 C 
HETATM   10  C   UNL     1      39.259 -12.288   4.421  1.00  0.00     0.036 C 
HETATM   11  C   UNL     1      39.207 -12.965   3.056  1.00  0.00     0.235 C 
HETATM   12  N   UNL     1      39.837 -12.109   1.986  1.00  0.00    -0.067 N 
HETATM   13  H   UNL     1      39.202 -11.318   1.828  1.00  0.00     0.280 HD
HETATM   14  C   UNL     1      41.194 -11.557   2.330  1.00  0.00     0.235 C 
HETATM   15  C   UNL     1      41.176 -10.871   3.682  1.00  0.00     0.036 C 
BRANCH  12  16
HETATM   16  C   UNL     1      39.925 -12.861   0.662  1.00  0.00     0.273 C 
BRANCH  16  17
HETATM   17  C   UNL     1      38.909 -12.428  -0.364  1.00  0.00    -0.027 A 
HETATM   18  C   UNL     1      38.688 -13.140  -1.563  1.00  0.00    -0.054 A 
HETATM   19  C   UNL     1      37.739 -12.656  -2.482  1.00  0.00     0.014 A 
HETATM   20  C   UNL     1      39.456 -14.384  -1.924  1.00  0.00     0.049 C 
HETATM   21  C   UNL     1      37.016 -11.484  -2.237  1.00  0.00    -0.061 A 
HETATM   22  C   UNL     1      36.024 -10.967  -3.237  1.00  0.00     0.048 C 
HETATM   23  C   UNL     1      37.234 -10.791  -1.046  1.00  0.00     0.007 A 
HETATM   24  C   UNL     1      38.169 -11.256  -0.120  1.00  0.00     0.010 A 
ENDBRANCH  16  17
ENDBRANCH  12  16
ENDBRANCH   1   9
BRANCH   1  25
HETATM   25  C   UNL     1      42.823 -12.129   6.143  1.00  0.00     0.072 A 
HETATM   26  N   UNL     1      42.525 -10.984   6.819  1.00  0.00    -0.262 NA
HETATM   27  C   UNL     1      43.525 -10.349   7.473  1.00  0.00     0.117 A 
HETATM   28  C   UNL     1      44.836 -10.788   7.474  1.00  0.00     0.019 A 
HETATM   29  C   UNL     1      45.138 -11.944   6.770  1.00  0.00     0.003 A 
HETATM   30  C   UNL     1      44.126 -12.627   6.097  1.00  0.00     0.030 A 
ENDBRANCH   1  25
BRANCH   5  31
HETATM   31  C   UNL     1      41.814 -16.416   4.349  1.00  0.00     0.168 C 
BRANCH  31  32
HETATM   32  C   UNL     1      43.267 -16.927   4.367  1.00  0.00     0.140 C 
HETATM   33  O   UNL     1      43.514 -17.850   3.278  1.00  0.00    -0.384 OA
HETATM   34  C   UNL     1      44.354 -18.896   3.795  1.00  0.00     0.168 C 
HETATM   35  C   UNL     1      43.964 -19.045   5.245  1.00  0.00     0.029 C 
HETATM   36  C   UNL     1      43.698 -17.619   5.657  1.00  0.00     0.036 C 
ENDBRANCH  31  32
ENDBRANCH   5  31
TORSDOF 6
ENDMDL
MODEL 9
REMARK VINA RESULT:      -8.5     16.540     19.201
REMARK  6 active torsions:
REMARK  status: ('A' for Active; 'I' for Inactive)
REMARK    1  A    between atoms: C_6  and  C_7 
REMARK    2  A    between atoms: C_7  and  N_8 
REMARK    3  A    between atoms: C_12  and  C_13 
REMARK    4  A    between atoms: C_13  and  C_14 
REMARK    5  A    between atoms: N_23  and  C_24 
REMARK    6  A    between atoms: C_24  and  C_25 
ROOT
HETATM    1  C   UNL     1      48.699 -30.164   0.675  1.00  0.00     0.164 C 
HETATM    2  N   UNL     1      47.674 -31.107   0.247  1.00  0.00    -0.319 N 
HETATM    3  C   UNL     1      48.086 -31.916  -0.782  1.00  0.00     0.326 C 
HETATM    4  O   UNL     1      47.470 -32.888  -1.177  1.00  0.00    -0.247 OA
HETATM    5  N   UNL     1      49.268 -31.442  -1.249  1.00  0.00    -0.265 N 
HETATM    6  C   UNL     1      49.719 -30.436  -0.446  1.00  0.00     0.263 C 
HETATM    7  O   UNL     1      50.775 -29.825  -0.589  1.00  0.00    -0.270 OA
HETATM    8  H   UNL     1      46.954 -31.444   0.881  1.00  0.00     0.166 HD
ENDROOT
BRANCH   1   9
HETATM    9  C   UNL     1      48.091 -28.713   0.675  1.00  0.00     0.033 C 
HETATM   10  C   UNL     1      46.959 -28.462   1.692  1.00  0.00     0.036 C 
HETATM   11  C   UNL     1      45.573 -28.923   1.254  1.00  0.00     0.235 C 
HETATM   12  N   UNL     1      45.234 -28.425  -0.129  1.00  0.00    -0.067 N 
HETATM   13  H   UNL     1      45.079 -27.414  -0.050  1.00  0.00     0.280 HD
HETATM   14  C   UNL     1      46.298 -28.655  -1.167  1.00  0.00     0.235 C 
HETATM   15  C   UNL     1      47.645 -28.151  -0.687  1.00  0.00     0.036 C 
BRANCH  12  16
HETATM   16  C   UNL     1      43.919 -29.024  -0.620  1.00  0.00     0.273 C 
BRANCH  16  17
HETATM   17  C   UNL     1      44.036 -29.803  -1.904  1.00  0.00    -0.027 A 
HETATM   18  C   UNL     1      44.149 -31.210  -1.933  1.00  0.00    -0.054 A 
HETATM   19  C   UNL     1      44.280 -31.863  -3.172  1.00  0.00     0.014 A 
HETATM   20  C   UNL     1      44.173 -32.049  -0.683  1.00  0.00     0.049 C 
HETATM   21  C   UNL     1      44.307 -31.148  -4.374  1.00  0.00    -0.061 A 
HETATM   22  C   UNL     1      44.471 -31.854  -5.688  1.00  0.00     0.048 C 
HETATM   23  C   UNL     1      44.187 -29.758  -4.339  1.00  0.00     0.007 A 
HETATM   24  C   UNL     1      44.053 -29.093  -3.119  1.00  0.00     0.010 A 
ENDBRANCH  16  17
ENDBRANCH  12  16
ENDBRANCH   1   9
BRANCH   1  25
HETATM   25  C   UNL     1      49.183 -30.587   2.063  1.00  0.00     0.072 A 
HETATM   26  N   UNL     1      48.467 -31.594   2.638  1.00  0.00    -0.262 NA
HETATM   27  C   UNL     1      48.848 -32.030   3.861  1.00  0.00     0.117 A 
HETATM   28  C   UNL     1      49.909 -31.496   4.566  1.00  0.00     0.019 A 
HETATM   29  C   UNL     1      50.624 -30.460   3.984  1.00  0.00     0.003 A 
HETATM   30  C   UNL     1      50.263 -29.997   2.719  1.00  0.00     0.030 A 
ENDBRANCH   1  25
BRANCH   5  31
HETATM   31  C   UNL     1      49.952 -31.929  -2.434  1.00  0.00     0.168 C 
BRANCH  31  32
HETATM   32  C   UNL     1      51.026 -32.991  -2.132  1.00  0.00     0.140 C 
HETATM   33  O   UNL     1      50.873 -33.529  -0.795  1.00  0.00    -0.384 OA
HETATM   34  C   UNL     1      52.195 -33.699  -0.256  1.00  0.00     0.168 C 
HETATM   35  C   UNL     1      53.024 -32.597  -0.867  1.00  0.00     0.029 C 
HETATM   36  C   UNL     1      52.470 -32.515  -2.269  1.00  0.00     0.036 C 
ENDBRANCH  31  32
ENDBRANCH   5  31
TORSDOF 6
ENDMDL
MODEL 10
REMARK VINA RESULT:      -8.3     16.830     19.631
REMARK  6 active torsions:
REMARK  status: ('A' for Active; 'I' for Inactive)
REMARK    1  A    between atoms: C_6  and  C_7 
REMARK    2  A    between atoms: C_7  and  N_8 
REMARK    3  A    between atoms: C_12  and  C_13 
REMARK    4  A    between atoms: C_13  and  C_14 
REMARK    5  A    between atoms: N_23  and  C_24 
REMARK    6  A    between atoms: C_24  and  C_25 
ROOT
HETATM    1  C   UNL     1      45.667 -29.974  -0.811  1.00  0.00     0.164 C 
HETATM    2  N   UNL     1      46.383 -31.210  -0.520  1.00  0.00    -0.319 N 
HETATM    3  C   UNL     1      45.744 -31.995   0.406  1.00  0.00     0.326 C 
HETATM    4  O   UNL     1      46.060 -33.141   0.667  1.00  0.00    -0.247 OA
HETATM    5  N   UNL     1      44.730 -31.276   0.948  1.00  0.00    -0.265 N 
HETATM    6  C   UNL     1      44.589 -30.092   0.284  1.00  0.00     0.263 C 
HETATM    7  O   UNL     1      43.740 -29.236   0.519  1.00  0.00    -0.270 OA
HETATM    8  H   UNL     1      46.994 -31.650  -1.202  1.00  0.00     0.166 HD
ENDROOT
BRANCH   1   9
HETATM    9  C   UNL     1      46.650 -28.759  -0.638  1.00  0.00     0.033 C 
HETATM   10  C   UNL     1      47.781 -28.662  -1.683  1.00  0.00     0.036 C 
HETATM   11  C   UNL     1      48.997 -29.541  -1.413  1.00  0.00     0.235 C 
HETATM   12  N   UNL     1      49.496 -29.381   0.001  1.00  0.00    -0.067 N 
HETATM   13  H   UNL     1      49.921 -28.449   0.062  1.00  0.00     0.280 HD
HETATM   14  C   UNL     1      48.436 -29.481   1.065  1.00  0.00     0.235 C 
HETATM   15  C   UNL     1      47.269 -28.563   0.758  1.00  0.00     0.036 C 
BRANCH  12  16
HETATM   16  C   UNL     1      50.607 -30.381   0.308  1.00  0.00     0.273 C 
BRANCH  16  17
HETATM   17  C   UNL     1      50.597 -30.902   1.722  1.00  0.00    -0.027 A 
HETATM   18  C   UNL     1      50.169 -32.207   2.049  1.00  0.00    -0.054 A 
HETATM   19  C   UNL     1      50.166 -32.609   3.397  1.00  0.00     0.014 A 
HETATM   20  C   UNL     1      49.675 -33.184   1.015  1.00  0.00     0.049 C 
HETATM   21  C   UNL     1      50.571 -31.744   4.419  1.00  0.00    -0.061 A 
HETATM   22  C   UNL     1      50.541 -32.178   5.855  1.00  0.00     0.048 C 
HETATM   23  C   UNL     1      51.001 -30.459   4.087  1.00  0.00     0.007 A 
HETATM   24  C   UNL     1      51.014 -30.041   2.755  1.00  0.00     0.010 A 
ENDBRANCH  16  17
ENDBRANCH  12  16
ENDBRANCH   1   9
BRANCH   1  25
HETATM   25  C   UNL     1      45.112 -30.071  -2.232  1.00  0.00     0.072 A 
HETATM   26  N   UNL     1      45.586 -31.120  -2.964  1.00  0.00    -0.262 NA
HETATM   27  C   UNL     1      45.128 -31.276  -4.226  1.00  0.00     0.117 A 
HETATM   28  C   UNL     1      44.222 -30.420  -4.822  1.00  0.00     0.019 A 
HETATM   29  C   UNL     1      43.755 -29.344  -4.080  1.00  0.00     0.003 A 
HETATM   30  C   UNL     1      44.200 -29.164  -2.771  1.00  0.00     0.030 A 
ENDBRANCH   1  25
BRANCH   5  31
HETATM   31  C   UNL     1      43.915 -31.699   2.073  1.00  0.00     0.168 C 
BRANCH  31  32
HETATM   32  C   UNL     1      44.561 -31.415   3.442  1.00  0.00     0.140 C 
HETATM   33  O   UNL     1      45.527 -30.337   3.355  1.00  0.00    -0.384 OA
HETATM   34  C   UNL     1      46.637 -30.698   4.193  1.00  0.00     0.168 C 
HETATM   35  C   UNL     1      46.718 -32.203   4.128  1.00  0.00     0.029 C 
HETATM   36  C   UNL     1      45.264 -32.604   4.090  1.00  0.00     0.036 C 
ENDBRANCH  31  32
ENDBRANCH   5  31
TORSDOF 6
ENDMDL
