MODEL 1
REMARK VINA RESULT:      -8.4      0.000      0.000
REMARK  4 active torsions:
REMARK  status: ('A' for Active; 'I' for Inactive)
REMARK    1  A    between atoms: C_2  and  O_3 
REMARK    2  A    between atoms: O_3  and  C_4 
REMARK    3  A    between atoms: C_11  and  C_12 
REMARK    4  A    between atoms: C_16  and  N_17 
ROOT
HETATM    1  C   UNL     1      39.884 -11.663  -0.136  1.00  0.00     0.108 C 
HETATM    2  C   UNL     1      40.656 -10.364   0.100  1.00  0.00     0.067 C 
HETATM    3  C   UNL     1      40.076  -9.396   1.119  1.00  0.00     0.020 C 
HETATM    4  N   UNL     1      39.596  -8.594   1.964  1.00  0.00    -0.096 N 
HETATM    5  C   UNL     1      41.708  -9.966  -0.668  1.00  0.00     0.139 C 
HETATM    6  O   UNL     1      42.164 -10.734  -1.756  1.00  0.00    -0.279 OA
HETATM    7  C   UNL     1      41.403 -11.768  -2.097  1.00  0.00     0.175 A 
HETATM    8  C   UNL     1      40.318 -12.274  -1.427  1.00  0.00     0.034 A 
HETATM    9  N   UNL     1      41.560 -12.516  -3.218  1.00  0.00    -0.256 N 
HETATM   10  H   UNL     1      42.258 -12.422  -3.947  1.00  0.00     0.191 HD
HETATM   11  N   UNL     1      40.623 -13.480  -3.333  1.00  0.00    -0.177 NA
HETATM   12  C   UNL     1      39.850 -13.328  -2.246  1.00  0.00     0.062 A 
HETATM   13  C   UNL     1      38.681 -14.216  -2.028  1.00  0.00     0.073 C 
ENDROOT
BRANCH   1  14
HETATM   14  C   UNL     1      40.164 -12.722   0.914  1.00  0.00    -0.003 A 
HETATM   15  C   UNL     1      39.373 -12.891   2.046  1.00  0.00     0.134 A 
HETATM   16  N   UNL     1      39.551 -13.855   2.978  1.00  0.00    -0.235 NA
HETATM   17 CL   UNL     1      38.021 -11.890   2.407  1.00  0.00    -0.062 Cl
HETATM   18  C   UNL     1      40.559 -14.725   2.810  1.00  0.00     0.069 A 
HETATM   19  C   UNL     1      41.438 -14.647   1.717  1.00  0.00    -0.004 A 
HETATM   20  C   UNL     1      40.751 -15.746   3.729  1.00  0.00     0.035 A 
HETATM   21  C   UNL     1      42.471 -15.589   1.570  1.00  0.00     0.050 A 
HETATM   22  C   UNL     1      41.235 -13.625   0.782  1.00  0.00     0.025 A 
HETATM   23  C   UNL     1      42.639 -16.619   2.496  1.00  0.00     0.069 A 
HETATM   24  C   UNL     1      41.776 -16.691   3.584  1.00  0.00     0.039 A 
BRANCH  23  25
HETATM   25  O   UNL     1      43.668 -17.472   2.219  1.00  0.00    -0.351 OA
BRANCH  25  26
HETATM   26  C   UNL     1      43.743 -18.672   2.987  1.00  0.00     0.171 C 
HETATM   27  C   UNL     1      43.279 -19.819   2.108  1.00  0.00     0.034 C 
ENDBRANCH  25  26
ENDBRANCH  23  25
ENDBRANCH   1  14
BRANCH   5  28
HETATM   28  N   UNL     1      42.412  -8.795  -0.512  1.00  0.00    -0.282 NA
HETATM   29  H   UNL     1      41.897  -7.935  -0.689  1.00  0.00     0.126 HD
HETATM   30  H   UNL     1      42.946  -8.773   0.353  1.00  0.00     0.126 HD
ENDBRANCH   5  28
TORSDOF 4
ENDMDL
MODEL 2
REMARK VINA RESULT:      -7.7      5.004      7.300
REMARK  4 active torsions:
REMARK  status: ('A' for Active; 'I' for Inactive)
REMARK    1  A    between atoms: C_2  and  O_3 
REMARK    2  A    between atoms: O_3  and  C_4 
REMARK    3  A    between atoms: C_11  and  C_12 
REMARK    4  A    between atoms: C_16  and  N_17 
ROOT
HETATM    1  C   UNL     1      41.291 -14.461   3.812  1.00  0.00     0.108 C 
HETATM    2  C   UNL     1      42.080 -14.431   2.502  1.00  0.00     0.067 C 
HETATM    3  C   UNL     1      41.477 -13.634   1.356  1.00  0.00     0.020 C 
HETATM    4  N   UNL     1      40.978 -12.972   0.406  1.00  0.00    -0.096 N 
HETATM    5  C   UNL     1      43.172 -15.209   2.265  1.00  0.00     0.139 C 
HETATM    6  O   UNL     1      43.658 -16.117   3.226  1.00  0.00    -0.279 OA
HETATM    7  C   UNL     1      42.890 -16.297   4.295  1.00  0.00     0.175 A 
HETATM    8  C   UNL     1      41.768 -15.597   4.655  1.00  0.00     0.034 A 
HETATM    9  N   UNL     1      43.080 -17.254   5.238  1.00  0.00    -0.256 N 
HETATM   10  H   UNL     1      43.810 -17.956   5.288  1.00  0.00     0.191 HD
HETATM   11  N   UNL     1      42.128 -17.235   6.194  1.00  0.00    -0.177 NA
HETATM   12  C   UNL     1      41.313 -16.230   5.836  1.00  0.00     0.062 A 
HETATM   13  C   UNL     1      40.117 -15.907   6.653  1.00  0.00     0.073 C 
ENDROOT
BRANCH   1  14
HETATM   14  C   UNL     1      41.504 -13.223   4.664  1.00  0.00    -0.003 A 
HETATM   15  C   UNL     1      40.615 -12.153   4.677  1.00  0.00     0.134 A 
HETATM   16  N   UNL     1      40.734 -11.057   5.459  1.00  0.00    -0.235 NA
HETATM   17 CL   UNL     1      39.204 -12.091   3.694  1.00  0.00    -0.062 Cl
HETATM   18  C   UNL     1      41.780 -10.983   6.296  1.00  0.00     0.069 A 
HETATM   19  C   UNL     1      42.756 -11.991   6.364  1.00  0.00    -0.004 A 
HETATM   20  C   UNL     1      41.916  -9.887   7.138  1.00  0.00     0.035 A 
HETATM   21  C   UNL     1      43.827 -11.881   7.267  1.00  0.00     0.050 A 
HETATM   22  C   UNL     1      42.610 -13.103   5.525  1.00  0.00     0.025 A 
HETATM   23  C   UNL     1      43.938 -10.781   8.117  1.00  0.00     0.069 A 
HETATM   24  C   UNL     1      42.979  -9.777   8.044  1.00  0.00     0.039 A 
BRANCH  23  25
HETATM   25  O   UNL     1      45.015 -10.814   8.955  1.00  0.00    -0.351 OA
BRANCH  25  26
HETATM   26  C   UNL     1      45.682  -9.578   9.207  1.00  0.00     0.171 C 
HETATM   27  C   UNL     1      46.507  -9.233   7.981  1.00  0.00     0.034 C 
ENDBRANCH  25  26
ENDBRANCH  23  25
ENDBRANCH   1  14
BRANCH   5  28
HETATM   28  N   UNL     1      43.893 -15.238   1.095  1.00  0.00    -0.282 NA
HETATM   29  H   UNL     1      43.464 -15.732   0.316  1.00  0.00     0.126 HD
HETATM   30  H   UNL     1      44.259 -14.324   0.839  1.00  0.00     0.126 HD
ENDBRANCH   5  28
TORSDOF 4
ENDMDL
MODEL 3
REMARK VINA RESULT:      -7.7      6.758      8.852
REMARK  4 active torsions:
REMARK  status: ('A' for Active; 'I' for Inactive)
REMARK    1  A    between atoms: C_2  and  O_3 
REMARK    2  A    between atoms: O_3  and  C_4 
REMARK    3  A    between atoms: C_11  and  C_12 
REMARK    4  A    between atoms: C_16  and  N_17 
ROOT
HETATM    1  C   UNL     1      41.746 -12.190   4.999  1.00  0.00     0.108 C 
HETATM    2  C   UNL     1      41.331 -13.597   5.431  1.00  0.00     0.067 C 
HETATM    3  C   UNL     1      42.127 -14.756   4.851  1.00  0.00     0.020 C 
HETATM    4  N   UNL     1      42.787 -15.717   4.371  1.00  0.00    -0.096 N 
HETATM    5  C   UNL     1      40.203 -13.861   6.147  1.00  0.00     0.139 C 
HETATM    6  O   UNL     1      39.320 -12.838   6.542  1.00  0.00    -0.279 OA
HETATM    7  C   UNL     1      39.556 -11.637   6.027  1.00  0.00     0.175 A 
HETATM    8  C   UNL     1      40.638 -11.232   5.288  1.00  0.00     0.034 A 
HETATM    9  N   UNL     1      38.725 -10.568   6.129  1.00  0.00    -0.256 N 
HETATM   10  H   UNL     1      37.830 -10.507   6.601  1.00  0.00     0.191 HD
HETATM   11  N   UNL     1      39.195  -9.483   5.479  1.00  0.00    -0.177 NA
HETATM   12  C   UNL     1      40.361  -9.887   4.950  1.00  0.00     0.062 A 
HETATM   13  C   UNL     1      41.177  -8.954   4.135  1.00  0.00     0.073 C 
ENDROOT
BRANCH   1  14
HETATM   14  C   UNL     1      42.938 -11.657   5.772  1.00  0.00    -0.003 A 
HETATM   15  C   UNL     1      44.187 -11.457   5.191  1.00  0.00     0.134 A 
HETATM   16  N   UNL     1      45.260 -10.933   5.825  1.00  0.00    -0.235 NA
HETATM   17 CL   UNL     1      44.533 -11.839   3.550  1.00  0.00    -0.062 Cl
HETATM   18  C   UNL     1      45.126 -10.567   7.109  1.00  0.00     0.069 A 
HETATM   19  C   UNL     1      43.921 -10.734   7.811  1.00  0.00    -0.004 A 
HETATM   20  C   UNL     1      46.197  -9.995   7.781  1.00  0.00     0.035 A 
HETATM   21  C   UNL     1      43.818 -10.322   9.151  1.00  0.00     0.050 A 
HETATM   22  C   UNL     1      42.835 -11.297   7.129  1.00  0.00     0.025 A 
HETATM   23  C   UNL     1      44.900  -9.733   9.805  1.00  0.00     0.069 A 
HETATM   24  C   UNL     1      46.098  -9.577   9.115  1.00  0.00     0.039 A 
BRANCH  23  25
HETATM   25  O   UNL     1      44.654  -9.364  11.095  1.00  0.00    -0.351 OA
BRANCH  25  26
HETATM   26  C   UNL     1      43.292  -9.345  11.519  1.00  0.00     0.171 C 
HETATM   27  C   UNL     1      43.151  -8.284  12.595  1.00  0.00     0.034 C 
ENDBRANCH  25  26
ENDBRANCH  23  25
ENDBRANCH   1  14
BRANCH   5  28
HETATM   28  N   UNL     1      39.775 -15.110   6.531  1.00  0.00    -0.282 NA
HETATM   29  H   UNL     1      40.465 -15.698   6.994  1.00  0.00     0.126 HD
HETATM   30  H   UNL     1      38.880 -15.085   7.013  1.00  0.00     0.126 HD
ENDBRANCH   5  28
TORSDOF 4
ENDMDL
MODEL 4
REMARK VINA RESULT:      -7.6      3.773      5.706
REMARK  4 active torsions:
REMARK  status: ('A' for Active; 'I' for Inactive)
REMARK    1  A    between atoms: C_2  and  O_3 
REMARK    2  A    between atoms: O_3  and  C_4 
REMARK    3  A    between atoms: C_11  and  C_12 
REMARK    4  A    between atoms: C_16  and  N_17 
ROOT
HETATM    1  C   UNL     1      41.657 -12.059   3.798  1.00  0.00     0.108 C 
HETATM    2  C   UNL     1      40.200 -11.932   4.249  1.00  0.00     0.067 C 
HETATM    3  C   UNL     1      39.154 -11.781   3.157  1.00  0.00     0.020 C 
HETATM    4  N   UNL     1      38.286 -11.655   2.252  1.00  0.00    -0.096 N 
HETATM    5  C   UNL     1      39.829 -11.773   5.550  1.00  0.00     0.139 C 
HETATM    6  O   UNL     1      40.777 -11.707   6.589  1.00  0.00    -0.279 OA
HETATM    7  C   UNL     1      42.048 -11.629   6.211  1.00  0.00     0.175 A 
HETATM    8  C   UNL     1      42.563 -11.764   4.947  1.00  0.00     0.034 A 
HETATM    9  N   UNL     1      43.093 -11.372   7.038  1.00  0.00    -0.256 N 
HETATM   10  H   UNL     1      43.081 -11.212   8.039  1.00  0.00     0.191 HD
HETATM   11  N   UNL     1      44.270 -11.311   6.382  1.00  0.00    -0.177 NA
HETATM   12  C   UNL     1      43.950 -11.537   5.098  1.00  0.00     0.062 A 
HETATM   13  C   UNL     1      45.003 -11.533   4.052  1.00  0.00     0.073 C 
ENDROOT
BRANCH   1  14
HETATM   14  C   UNL     1      42.024 -13.463   3.358  1.00  0.00    -0.003 A 
HETATM   15  C   UNL     1      41.939 -13.888   2.036  1.00  0.00     0.134 A 
HETATM   16  N   UNL     1      42.307 -15.110   1.589  1.00  0.00    -0.235 NA
HETATM   17 CL   UNL     1      41.361 -12.885   0.762  1.00  0.00    -0.062 Cl
HETATM   18  C   UNL     1      42.800 -15.989   2.474  1.00  0.00     0.069 A 
HETATM   19  C   UNL     1      42.919 -15.687   3.841  1.00  0.00    -0.004 A 
HETATM   20  C   UNL     1      43.219 -17.241   2.046  1.00  0.00     0.035 A 
HETATM   21  C   UNL     1      43.455 -16.631   4.732  1.00  0.00     0.050 A 
HETATM   22  C   UNL     1      42.510 -14.418   4.271  1.00  0.00     0.025 A 
HETATM   23  C   UNL     1      43.887 -17.879   4.280  1.00  0.00     0.069 A 
HETATM   24  C   UNL     1      43.760 -18.184   2.930  1.00  0.00     0.039 A 
BRANCH  23  25
HETATM   25  O   UNL     1      44.404 -18.688   5.250  1.00  0.00    -0.351 OA
BRANCH  25  26
HETATM   26  C   UNL     1      43.525 -19.648   5.834  1.00  0.00     0.171 C 
HETATM   27  C   UNL     1      43.877 -21.011   5.266  1.00  0.00     0.034 C 
ENDBRANCH  25  26
ENDBRANCH  23  25
ENDBRANCH   1  14
BRANCH   5  28
HETATM   28  N   UNL     1      38.538 -11.626   5.999  1.00  0.00    -0.282 NA
HETATM   29  H   UNL     1      38.278 -12.184   6.809  1.00  0.00     0.126 HD
HETATM   30  H   UNL     1      38.260 -10.650   6.077  1.00  0.00     0.126 HD
ENDBRANCH   5  28
TORSDOF 4
ENDMDL
MODEL 5
REMARK VINA RESULT:      -7.0      9.704     12.149
REMARK  4 active torsions:
REMARK  status: ('A' for Active; 'I' for Inactive)
REMARK    1  A    between atoms: C_2  and  O_3 
REMARK    2  A    between atoms: O_3  and  C_4 
REMARK    3  A    between atoms: C_11  and  C_12 
REMARK    4  A    between atoms: C_16  and  N_17 
ROOT
HETATM    1  C   UNL     1      42.910  -7.811  11.691  1.00  0.00     0.108 C 
HETATM    2  C   UNL     1      42.109  -7.607  12.979  1.00  0.00     0.067 C 
HETATM    3  C   UNL     1      41.918  -6.174  13.448  1.00  0.00     0.020 C 
HETATM    4  N   UNL     1      41.759  -4.985  13.838  1.00  0.00    -0.096 N 
HETATM    5  C   UNL     1      41.725  -8.628  13.794  1.00  0.00     0.139 C 
HETATM    6  O   UNL     1      42.050  -9.968  13.507  1.00  0.00    -0.279 OA
HETATM    7  C   UNL     1      42.896 -10.158  12.501  1.00  0.00     0.175 A 
HETATM    8  C   UNL     1      43.369  -9.229  11.609  1.00  0.00     0.034 A 
HETATM    9  N   UNL     1      43.477 -11.343  12.184  1.00  0.00    -0.256 N 
HETATM   10  H   UNL     1      43.362 -12.243  12.636  1.00  0.00     0.191 HD
HETATM   11  N   UNL     1      44.325 -11.241  11.140  1.00  0.00    -0.177 NA
HETATM   12  C   UNL     1      44.274  -9.945  10.791  1.00  0.00     0.062 A 
HETATM   13  C   UNL     1      45.100  -9.438   9.668  1.00  0.00     0.073 C 
ENDROOT
BRANCH   1  14
HETATM   14  C   UNL     1      42.087  -7.591  10.436  1.00  0.00    -0.003 A 
HETATM   15  C   UNL     1      42.108  -6.400   9.718  1.00  0.00     0.134 A 
HETATM   16  N   UNL     1      41.436  -6.178   8.566  1.00  0.00    -0.235 NA
HETATM   17 CL   UNL     1      43.029  -5.028  10.199  1.00  0.00    -0.062 Cl
HETATM   18  C   UNL     1      40.692  -7.174   8.061  1.00  0.00     0.069 A 
HETATM   19  C   UNL     1      40.576  -8.419   8.702  1.00  0.00    -0.004 A 
HETATM   20  C   UNL     1      40.015  -6.993   6.863  1.00  0.00     0.035 A 
HETATM   21  C   UNL     1      39.799  -9.441   8.130  1.00  0.00     0.050 A 
HETATM   22  C   UNL     1      41.271  -8.606   9.903  1.00  0.00     0.025 A 
HETATM   23  C   UNL     1      39.139  -9.246   6.916  1.00  0.00     0.069 A 
HETATM   24  C   UNL     1      39.245  -8.012   6.285  1.00  0.00     0.039 A 
BRANCH  23  25
HETATM   25  O   UNL     1      38.439 -10.328   6.468  1.00  0.00    -0.351 OA
BRANCH  25  26
HETATM   26  C   UNL     1      39.184 -11.511   6.177  1.00  0.00     0.171 C 
HETATM   27  C   UNL     1      39.685 -11.407   4.749  1.00  0.00     0.034 C 
ENDBRANCH  25  26
ENDBRANCH  23  25
ENDBRANCH   1  14
BRANCH   5  28
HETATM   28  N   UNL     1      41.031  -8.491  14.973  1.00  0.00    -0.282 NA
HETATM   29  H   UNL     1      40.741  -9.355  15.426  1.00  0.00     0.126 HD
HETATM   30  H   UNL     1      41.471  -7.831  15.610  1.00  0.00     0.126 HD
ENDBRANCH   5  28
TORSDOF 4
ENDMDL
MODEL 6
REMARK VINA RESULT:      -6.8      7.170      9.210
REMARK  4 active torsions:
REMARK  status: ('A' for Active; 'I' for Inactive)
REMARK    1  A    between atoms: C_2  and  O_3 
REMARK    2  A    between atoms: O_3  and  C_4 
REMARK    3  A    between atoms: C_11  and  C_12 
REMARK    4  A    between atoms: C_16  and  N_17 
ROOT
HETATM    1  C   UNL     1      41.441  -8.159   8.755  1.00  0.00     0.108 C 
HETATM    2  C   UNL     1      40.384  -7.356   7.994  1.00  0.00     0.067 C 
HETATM    3  C   UNL     1      40.888  -6.252   7.079  1.00  0.00     0.020 C 
HETATM    4  N   UNL     1      41.306  -5.336   6.319  1.00  0.00    -0.096 N 
HETATM    5  C   UNL     1      39.047  -7.463   8.229  1.00  0.00     0.139 C 
HETATM    6  O   UNL     1      38.534  -8.332   9.211  1.00  0.00    -0.279 OA
HETATM    7  C   UNL     1      39.431  -8.901  10.008  1.00  0.00     0.175 A 
HETATM    8  C   UNL     1      40.798  -8.874   9.896  1.00  0.00     0.034 A 
HETATM    9  N   UNL     1      39.140  -9.616  11.124  1.00  0.00    -0.256 N 
HETATM   10  H   UNL     1      38.230  -9.833  11.515  1.00  0.00     0.191 HD
HETATM   11  N   UNL     1      40.245 -10.047  11.767  1.00  0.00    -0.177 NA
HETATM   12  C   UNL     1      41.265  -9.583  11.027  1.00  0.00     0.062 A 
HETATM   13  C   UNL     1      42.667  -9.849  11.434  1.00  0.00     0.073 C 
ENDROOT
BRANCH   1  14
HETATM   14  C   UNL     1      42.078  -9.251   7.916  1.00  0.00    -0.003 A 
HETATM   15  C   UNL     1      43.454  -9.440   7.842  1.00  0.00     0.134 A 
HETATM   16  N   UNL     1      44.064 -10.432   7.154  1.00  0.00    -0.235 NA
HETATM   17 CL   UNL     1      44.588  -8.429   8.650  1.00  0.00    -0.062 Cl
HETATM   18  C   UNL     1      43.297 -11.312   6.492  1.00  0.00     0.069 A 
HETATM   19  C   UNL     1      41.895 -11.217   6.475  1.00  0.00    -0.004 A 
HETATM   20  C   UNL     1      43.886 -12.362   5.802  1.00  0.00     0.035 A 
HETATM   21  C   UNL     1      41.128 -12.170   5.783  1.00  0.00     0.050 A 
HETATM   22  C   UNL     1      41.299 -10.166   7.184  1.00  0.00     0.025 A 
HETATM   23  C   UNL     1      41.738 -13.228   5.109  1.00  0.00     0.069 A 
HETATM   24  C   UNL     1      43.125 -13.318   5.115  1.00  0.00     0.039 A 
BRANCH  23  25
HETATM   25  O   UNL     1      40.872 -14.088   4.497  1.00  0.00    -0.351 OA
BRANCH  25  26
HETATM   26  C   UNL     1      41.232 -15.469   4.478  1.00  0.00     0.171 C 
HETATM   27  C   UNL     1      40.580 -16.138   5.674  1.00  0.00     0.034 C 
ENDBRANCH  25  26
ENDBRANCH  23  25
ENDBRANCH   1  14
BRANCH   5  28
HETATM   28  N   UNL     1      38.065  -6.742   7.592  1.00  0.00    -0.282 NA
HETATM   29  H   UNL     1      37.684  -7.155   6.743  1.00  0.00     0.126 HD
HETATM   30  H   UNL     1      37.348  -6.408   8.232  1.00  0.00     0.126 HD
ENDBRANCH   5  28
TORSDOF 4
ENDMDL
MODEL 7
REMARK VINA RESULT:      -6.7      3.777      7.726
REMARK  4 active torsions:
REMARK  status: ('A' for Active; 'I' for Inactive)
REMARK    1  A    between atoms: C_2  and  O_3 
REMARK    2  A    between atoms: O_3  and  C_4 
REMARK    3  A    between atoms: C_11  and  C_12 
REMARK    4  A    between atoms: C_16  and  N_17 
ROOT
HETATM    1  C   UNL     1      37.933 -12.344  -1.325  1.00  0.00     0.108 C 
HETATM    2  C   UNL     1      37.616 -13.062  -2.638  1.00  0.00     0.067 C 
HETATM    3  C   UNL     1      36.257 -12.785  -3.261  1.00  0.00     0.020 C 
HETATM    4  N   UNL     1      35.131 -12.555  -3.779  1.00  0.00    -0.096 N 
HETATM    5  C   UNL     1      38.398 -14.046  -3.164  1.00  0.00     0.139 C 
HETATM    6  O   UNL     1      39.572 -14.483  -2.521  1.00  0.00    -0.279 OA
HETATM    7  C   UNL     1      39.773 -14.010  -1.296  1.00  0.00     0.175 A 
HETATM    8  C   UNL     1      39.068 -13.032  -0.642  1.00  0.00     0.034 A 
HETATM    9  N   UNL     1      40.733 -14.445  -0.441  1.00  0.00    -0.256 N 
HETATM   10  H   UNL     1      41.432 -15.164  -0.589  1.00  0.00     0.191 HD
HETATM   11  N   UNL     1      40.687 -13.817   0.752  1.00  0.00    -0.177 NA
HETATM   12  C   UNL     1      39.659 -12.960   0.641  1.00  0.00     0.062 A 
HETATM   13  C   UNL     1      39.284 -12.088   1.781  1.00  0.00     0.073 C 
ENDROOT
BRANCH   1  14
HETATM   14  C   UNL     1      38.402 -10.916  -1.526  1.00  0.00    -0.003 A 
HETATM   15  C   UNL     1      37.886  -9.843  -0.806  1.00  0.00     0.134 A 
HETATM   16  N   UNL     1      38.312  -8.564  -0.910  1.00  0.00    -0.235 NA
HETATM   17 CL   UNL     1      36.626 -10.008   0.354  1.00  0.00    -0.062 Cl
HETATM   18  C   UNL     1      39.311  -8.293  -1.763  1.00  0.00     0.069 A 
HETATM   19  C   UNL     1      39.903  -9.287  -2.560  1.00  0.00    -0.004 A 
HETATM   20  C   UNL     1      39.796  -6.997  -1.873  1.00  0.00     0.035 A 
HETATM   21  C   UNL     1      40.959  -8.963  -3.430  1.00  0.00     0.050 A 
HETATM   22  C   UNL     1      39.424 -10.597  -2.439  1.00  0.00     0.025 A 
HETATM   23  C   UNL     1      41.444  -7.658  -3.514  1.00  0.00     0.069 A 
HETATM   24  C   UNL     1      40.852  -6.670  -2.734  1.00  0.00     0.039 A 
BRANCH  23  25
HETATM   25  O   UNL     1      42.483  -7.491  -4.383  1.00  0.00    -0.351 OA
BRANCH  25  26
HETATM   26  C   UNL     1      42.604  -6.217  -5.015  1.00  0.00     0.171 C 
HETATM   27  C   UNL     1      43.429  -6.399  -6.276  1.00  0.00     0.034 C 
ENDBRANCH  25  26
ENDBRANCH  23  25
ENDBRANCH   1  14
BRANCH   5  28
HETATM   28  N   UNL     1      38.138 -14.738  -4.323  1.00  0.00    -0.282 NA
HETATM   29  H   UNL     1      37.673 -15.637  -4.214  1.00  0.00     0.126 HD
HETATM   30  H   UNL     1      37.719 -14.153  -5.042  1.00  0.00     0.126 HD
ENDBRANCH   5  28
TORSDOF 4
ENDMDL
MODEL 8
REMARK VINA RESULT:      -6.7     16.494     18.334
REMARK  4 active torsions:
REMARK  status: ('A' for Active; 'I' for Inactive)
REMARK    1  A    between atoms: C_2  and  O_3 
REMARK    2  A    between atoms: O_3  and  C_4 
REMARK    3  A    between atoms: C_11  and  C_12 
REMARK    4  A    between atoms: C_16  and  N_17 
ROOT
HETATM    1  C   UNL     1      45.982 -30.680  -2.112  1.00  0.00     0.108 C 
HETATM    2  C   UNL     1      45.519 -29.645  -3.140  1.00  0.00     0.067 C 
HETATM    3  C   UNL     1      44.972 -30.181  -4.453  1.00  0.00     0.020 C 
HETATM    4  N   UNL     1      44.517 -30.624  -5.542  1.00  0.00    -0.096 N 
HETATM    5  C   UNL     1      45.735 -28.307  -3.008  1.00  0.00     0.139 C 
HETATM    6  O   UNL     1      46.418 -27.772  -1.899  1.00  0.00    -0.279 OA
HETATM    7  C   UNL     1      46.989 -28.655  -1.088  1.00  0.00     0.175 A 
HETATM    8  C   UNL     1      46.866 -30.021  -1.105  1.00  0.00     0.034 A 
HETATM    9  N   UNL     1      47.842 -28.348  -0.077  1.00  0.00    -0.256 N 
HETATM   10  H   UNL     1      48.165 -27.434   0.220  1.00  0.00     0.191 HD
HETATM   11  N   UNL     1      48.303 -29.442   0.562  1.00  0.00    -0.177 NA
HETATM   12  C   UNL     1      47.720 -30.472  -0.072  1.00  0.00     0.062 A 
HETATM   13  C   UNL     1      48.002 -31.867   0.348  1.00  0.00     0.073 C 
ENDROOT
BRANCH   1  14
HETATM   14  C   UNL     1      44.841 -31.271  -1.306  1.00  0.00    -0.003 A 
HETATM   15  C   UNL     1      44.328 -32.543  -1.543  1.00  0.00     0.134 A 
HETATM   16  N   UNL     1      43.352 -33.132  -0.817  1.00  0.00    -0.235 NA
HETATM   17 CL   UNL     1      44.896 -33.565  -2.805  1.00  0.00    -0.062 Cl
HETATM   18  C   UNL     1      42.831 -32.455   0.218  1.00  0.00     0.069 A 
HETATM   19  C   UNL     1      43.252 -31.155   0.548  1.00  0.00    -0.004 A 
HETATM   20  C   UNL     1      41.851 -33.041   1.006  1.00  0.00     0.035 A 
HETATM   21  C   UNL     1      42.692 -30.487   1.650  1.00  0.00     0.050 A 
HETATM   22  C   UNL     1      44.252 -30.569  -0.238  1.00  0.00     0.025 A 
HETATM   23  C   UNL     1      41.719 -31.099   2.441  1.00  0.00     0.069 A 
HETATM   24  C   UNL     1      41.294 -32.381   2.110  1.00  0.00     0.039 A 
BRANCH  23  25
HETATM   25  O   UNL     1      41.278 -30.344   3.489  1.00  0.00    -0.351 OA
BRANCH  25  26
HETATM   26  C   UNL     1      40.546 -31.016   4.513  1.00  0.00     0.171 C 
HETATM   27  C   UNL     1      41.504 -31.315   5.652  1.00  0.00     0.034 C 
ENDBRANCH  25  26
ENDBRANCH  23  25
ENDBRANCH   1  14
BRANCH   5  28
HETATM   28  N   UNL     1      45.364 -27.346  -3.918  1.00  0.00    -0.282 NA
HETATM   29  H   UNL     1      45.646 -27.508  -4.882  1.00  0.00     0.126 HD
HETATM   30  H   UNL     1      44.388 -27.075  -3.825  1.00  0.00     0.126 HD
ENDBRANCH   5  28
TORSDOF 4
ENDMDL
MODEL 9
REMARK VINA RESULT:      -6.7      3.885      6.928
REMARK  4 active torsions:
REMARK  status: ('A' for Active; 'I' for Inactive)
REMARK    1  A    between atoms: C_2  and  O_3 
REMARK    2  A    between atoms: O_3  and  C_4 
REMARK    3  A    between atoms: C_11  and  C_12 
REMARK    4  A    between atoms: C_16  and  N_17 
ROOT
HETATM    1  C   UNL     1      41.688 -13.121   5.834  1.00  0.00     0.108 C 
HETATM    2  C   UNL     1      43.188 -13.209   6.122  1.00  0.00     0.067 C 
HETATM    3  C   UNL     1      43.723 -14.560   6.566  1.00  0.00     0.020 C 
HETATM    4  N   UNL     1      44.168 -15.682   6.935  1.00  0.00    -0.096 N 
HETATM    5  C   UNL     1      44.008 -12.123   6.171  1.00  0.00     0.139 C 
HETATM    6  O   UNL     1      43.522 -10.817   5.962  1.00  0.00    -0.279 OA
HETATM    7  C   UNL     1      42.202 -10.693   5.893  1.00  0.00     0.175 A 
HETATM    8  C   UNL     1      41.262 -11.691   5.841  1.00  0.00     0.034 A 
HETATM    9  N   UNL     1      41.529  -9.515   5.883  1.00  0.00    -0.256 N 
HETATM   10  H   UNL     1      41.905  -8.573   5.916  1.00  0.00     0.191 HD
HETATM   11  N   UNL     1      40.191  -9.682   5.846  1.00  0.00    -0.177 NA
HETATM   12  C   UNL     1      40.020 -11.014   5.834  1.00  0.00     0.062 A 
HETATM   13  C   UNL     1      38.654 -11.593   5.809  1.00  0.00     0.073 C 
ENDROOT
BRANCH   1  14
HETATM   14  C   UNL     1      41.315 -13.635   4.456  1.00  0.00    -0.003 A 
HETATM   15  C   UNL     1      40.796 -14.908   4.239  1.00  0.00     0.134 A 
HETATM   16  N   UNL     1      40.399 -15.388   3.039  1.00  0.00    -0.235 NA
HETATM   17 CL   UNL     1      40.566 -16.057   5.499  1.00  0.00    -0.062 Cl
HETATM   18  C   UNL     1      40.500 -14.587   1.968  1.00  0.00     0.069 A 
HETATM   19  C   UNL     1      41.025 -13.287   2.053  1.00  0.00    -0.004 A 
HETATM   20  C   UNL     1      40.071 -15.035   0.726  1.00  0.00     0.035 A 
HETATM   21  C   UNL     1      41.099 -12.475   0.909  1.00  0.00     0.050 A 
HETATM   22  C   UNL     1      41.444 -12.829   3.309  1.00  0.00     0.025 A 
HETATM   23  C   UNL     1      40.647 -12.936  -0.328  1.00  0.00     0.069 A 
HETATM   24  C   UNL     1      40.137 -14.227  -0.417  1.00  0.00     0.039 A 
BRANCH  23  25
HETATM   25  O   UNL     1      40.759 -12.036  -1.348  1.00  0.00    -0.351 OA
BRANCH  25  26
HETATM   26  C   UNL     1      41.282 -10.748  -1.025  1.00  0.00     0.171 C 
HETATM   27  C   UNL     1      41.136  -9.865  -2.250  1.00  0.00     0.034 C 
ENDBRANCH  25  26
ENDBRANCH  23  25
ENDBRANCH   1  14
BRANCH   5  28
HETATM   28  N   UNL     1      45.353 -12.150   6.455  1.00  0.00    -0.282 NA
HETATM   29  H   UNL     1      45.685 -11.456   7.122  1.00  0.00     0.126 HD
HETATM   30  H   UNL     1      45.692 -13.089   6.651  1.00  0.00     0.126 HD
ENDBRANCH   5  28
TORSDOF 4
ENDMDL
MODEL 10
REMARK VINA RESULT:      -6.6     16.413     18.441
REMARK  4 active torsions:
REMARK  status: ('A' for Active; 'I' for Inactive)
REMARK    1  A    between atoms: C_2  and  O_3 
REMARK    2  A    between atoms: O_3  and  C_4 
REMARK    3  A    between atoms: C_11  and  C_12 
REMARK    4  A    between atoms: C_16  and  N_17 
ROOT
HETATM    1  C   UNL     1      47.313 -29.893  -2.069  1.00  0.00     0.108 C 
HETATM    2  C   UNL     1      48.278 -31.080  -2.040  1.00  0.00     0.067 C 
HETATM    3  C   UNL     1      49.535 -30.922  -1.201  1.00  0.00     0.020 C 
HETATM    4  N   UNL     1      50.578 -30.791  -0.504  1.00  0.00    -0.096 N 
HETATM    5  C   UNL     1      48.155 -32.168  -2.850  1.00  0.00     0.139 C 
HETATM    6  O   UNL     1      47.114 -32.276  -3.793  1.00  0.00    -0.279 OA
HETATM    7  C   UNL     1      46.374 -31.188  -3.968  1.00  0.00     0.175 A 
HETATM    8  C   UNL     1      46.393 -30.027  -3.237  1.00  0.00     0.034 A 
HETATM    9  N   UNL     1      45.451 -31.022  -4.949  1.00  0.00    -0.256 N 
HETATM   10  H   UNL     1      45.178 -31.675  -5.676  1.00  0.00     0.191 HD
HETATM   11  N   UNL     1      44.873 -29.804  -4.917  1.00  0.00    -0.177 NA
HETATM   12  C   UNL     1      45.456 -29.183  -3.878  1.00  0.00     0.062 A 
HETATM   13  C   UNL     1      45.082 -27.790  -3.532  1.00  0.00     0.073 C 
ENDROOT
BRANCH   1  14
HETATM   14  C   UNL     1      46.403 -29.836  -0.857  1.00  0.00    -0.003 A 
HETATM   15  C   UNL     1      46.544 -28.885   0.149  1.00  0.00     0.134 A 
HETATM   16  N   UNL     1      45.724 -28.760   1.217  1.00  0.00    -0.235 NA
HETATM   17 CL   UNL     1      47.793 -27.702   0.156  1.00  0.00    -0.062 Cl
HETATM   18  C   UNL     1      44.689 -29.606   1.327  1.00  0.00     0.069 A 
HETATM   19  C   UNL     1      44.450 -30.622   0.386  1.00  0.00    -0.004 A 
HETATM   20  C   UNL     1      43.808 -29.487   2.393  1.00  0.00     0.035 A 
HETATM   21  C   UNL     1      43.344 -31.477   0.530  1.00  0.00     0.050 A 
HETATM   22  C   UNL     1      45.330 -30.733  -0.698  1.00  0.00     0.025 A 
HETATM   23  C   UNL     1      42.460 -31.330   1.599  1.00  0.00     0.069 A 
HETATM   24  C   UNL     1      42.700 -30.333   2.538  1.00  0.00     0.039 A 
BRANCH  23  25
HETATM   25  O   UNL     1      41.420 -32.215   1.604  1.00  0.00    -0.351 OA
BRANCH  25  26
HETATM   26  C   UNL     1      40.161 -31.736   2.075  1.00  0.00     0.171 C 
HETATM   27  C   UNL     1      39.777 -32.553   3.295  1.00  0.00     0.034 C 
ENDBRANCH  25  26
ENDBRANCH  23  25
ENDBRANCH   1  14
BRANCH   5  28
HETATM   28  N   UNL     1      49.012 -33.242  -2.880  1.00  0.00    -0.282 NA
HETATM   29  H   UNL     1      48.687 -34.062  -3.388  1.00  0.00     0.126 HD
HETATM   30  H   UNL     1      49.965 -32.975  -3.116  1.00  0.00     0.126 HD
ENDBRANCH   5  28
TORSDOF 4
ENDMDL
