MODEL 1
REMARK VINA RESULT:      -8.2      0.000      0.000
REMARK  5 active torsions:
REMARK  status: ('A' for Active; 'I' for Inactive)
REMARK    1  A    between atoms: C_2  and  O_3 
REMARK    2  A    between atoms: O_3  and  C_4 
REMARK    3  A    between atoms: C_5  and  C_6 
REMARK       I    between atoms: C_6  and  N_7 
REMARK    4  A    between atoms: N_7  and  N_8 
REMARK    5  A    between atoms: C_9  and  C_10 
ROOT
HETATM    1  C   UNL     1      40.662 -14.044   0.976  1.00  0.00     0.274 C 
HETATM    2  N   UNL     1      42.016 -14.125   1.252  1.00  0.00    -0.243 N 
HETATM    3  O   UNL     1      39.775 -14.497   1.696  1.00  0.00    -0.266 OA
HETATM    4  H   UNL     1      42.687 -13.708   0.612  1.00  0.00     0.192 HD
ENDROOT
BRANCH   2   5
HETATM    5  N   UNL     1      42.441 -14.870   2.312  1.00  0.00    -0.183 NA
HETATM    6  C   UNL     1      42.988 -16.008   2.032  1.00  0.00     0.152 C 
BRANCH   6   7
HETATM    7  C   UNL     1      43.402 -16.873   3.118  1.00  0.00     0.011 A 
HETATM    8  C   UNL     1      43.539 -18.299   3.106  1.00  0.00     0.004 A 
HETATM    9  C   UNL     1      43.927 -18.691   4.389  1.00  0.00     0.043 A 
HETATM   10  C   UNL     1      43.358 -19.301   2.128  1.00  0.00     0.014 A 
HETATM   11  C   UNL     1      44.141 -20.029   4.744  1.00  0.00     0.030 A 
HETATM   12  N   UNL     1      44.035 -17.551   5.149  1.00  0.00    -0.364 N 
HETATM   13  C   UNL     1      43.953 -20.999   3.757  1.00  0.00     0.002 A 
HETATM   14  C   UNL     1      43.570 -20.643   2.467  1.00  0.00     0.001 A 
HETATM   15  H   UNL     1      44.299 -17.529   6.124  1.00  0.00     0.165 HD
HETATM   16  C   UNL     1      43.723 -16.454   4.396  1.00  0.00     0.102 A 
ENDBRANCH   6   7
ENDBRANCH   2   5
BRANCH   1  17
HETATM   17  C   UNL     1      40.282 -13.412  -0.326  1.00  0.00     0.068 A 
HETATM   18  C   UNL     1      40.635 -12.104  -0.712  1.00  0.00     0.084 A 
HETATM   19  C   UNL     1      40.276 -11.645  -1.988  1.00  0.00     0.039 A 
HETATM   20  C   UNL     1      39.540 -12.455  -2.857  1.00  0.00     0.022 A 
HETATM   21  C   UNL     1      39.162 -13.732  -2.458  1.00  0.00     0.012 A 
HETATM   22  C   UNL     1      39.528 -14.212  -1.205  1.00  0.00     0.039 A 
HETATM   23 BR   UNL     1      38.167 -14.826  -3.634  1.00  0.00    -0.051 Br
BRANCH  18  24
HETATM   24  O   UNL     1      41.356 -11.334   0.168  1.00  0.00    -0.350 OA
BRANCH  24  25
HETATM   25  C   UNL     1      41.589  -9.980  -0.240  1.00  0.00     0.171 C 
HETATM   26  C   UNL     1      40.878  -9.063   0.739  1.00  0.00     0.034 C 
ENDBRANCH  24  25
ENDBRANCH  18  24
ENDBRANCH   1  17
TORSDOF 5
ENDMDL
MODEL 2
REMARK VINA RESULT:      -8.0      5.537      8.410
REMARK  5 active torsions:
REMARK  status: ('A' for Active; 'I' for Inactive)
REMARK    1  A    between atoms: C_2  and  O_3 
REMARK    2  A    between atoms: O_3  and  C_4 
REMARK    3  A    between atoms: C_5  and  C_6 
REMARK       I    between atoms: C_6  and  N_7 
REMARK    4  A    between atoms: N_7  and  N_8 
REMARK    5  A    between atoms: C_9  and  C_10 
ROOT
HETATM    1  C   UNL     1      43.515 -15.660   5.722  1.00  0.00     0.274 C 
HETATM    2  N   UNL     1      42.494 -14.730   5.616  1.00  0.00    -0.243 N 
HETATM    3  O   UNL     1      44.422 -15.608   6.550  1.00  0.00    -0.266 OA
HETATM    4  H   UNL     1      41.770 -14.854   4.914  1.00  0.00     0.192 HD
ENDROOT
BRANCH   2   5
HETATM    5  N   UNL     1      42.541 -13.594   6.370  1.00  0.00    -0.183 NA
HETATM    6  C   UNL     1      42.752 -12.489   5.733  1.00  0.00     0.152 C 
BRANCH   6   7
HETATM    7  C   UNL     1      42.875 -11.258   6.485  1.00  0.00     0.011 A 
HETATM    8  C   UNL     1      44.056 -10.698   7.073  1.00  0.00     0.004 A 
HETATM    9  C   UNL     1      43.678  -9.522   7.727  1.00  0.00     0.043 A 
HETATM   10  C   UNL     1      45.413 -11.083   7.123  1.00  0.00     0.014 A 
HETATM   11  C   UNL     1      44.584  -8.717   8.428  1.00  0.00     0.030 A 
HETATM   12  N   UNL     1      42.326  -9.365   7.536  1.00  0.00    -0.364 N 
HETATM   13  C   UNL     1      45.921  -9.124   8.463  1.00  0.00     0.002 A 
HETATM   14  C   UNL     1      46.332 -10.287   7.819  1.00  0.00     0.001 A 
HETATM   15  H   UNL     1      41.776  -8.600   7.901  1.00  0.00     0.165 HD
HETATM   16  C   UNL     1      41.834 -10.401   6.792  1.00  0.00     0.102 A 
ENDBRANCH   6   7
ENDBRANCH   2   5
BRANCH   1  17
HETATM   17  C   UNL     1      43.527 -16.758   4.706  1.00  0.00     0.068 A 
HETATM   18  C   UNL     1      43.264 -16.579   3.334  1.00  0.00     0.084 A 
HETATM   19  C   UNL     1      43.369 -17.676   2.467  1.00  0.00     0.039 A 
HETATM   20  C   UNL     1      43.691 -18.945   2.956  1.00  0.00     0.022 A 
HETATM   21  C   UNL     1      43.915 -19.124   4.316  1.00  0.00     0.012 A 
HETATM   22  C   UNL     1      43.836 -18.043   5.188  1.00  0.00     0.039 A 
HETATM   23 BR   UNL     1      44.351 -20.840   4.977  1.00  0.00    -0.051 Br
BRANCH  18  24
HETATM   24  O   UNL     1      42.947 -15.319   2.888  1.00  0.00    -0.350 OA
BRANCH  24  25
HETATM   25  C   UNL     1      41.923 -15.255   1.887  1.00  0.00     0.171 C 
HETATM   26  C   UNL     1      40.578 -15.387   2.578  1.00  0.00     0.034 C 
ENDBRANCH  24  25
ENDBRANCH  18  24
ENDBRANCH   1  17
TORSDOF 5
ENDMDL
MODEL 3
REMARK VINA RESULT:      -7.7      3.062      8.419
REMARK  5 active torsions:
REMARK  status: ('A' for Active; 'I' for Inactive)
REMARK    1  A    between atoms: C_2  and  O_3 
REMARK    2  A    between atoms: O_3  and  C_4 
REMARK    3  A    between atoms: C_5  and  C_6 
REMARK       I    between atoms: C_6  and  N_7 
REMARK    4  A    between atoms: N_7  and  N_8 
REMARK    5  A    between atoms: C_9  and  C_10 
ROOT
HETATM    1  C   UNL     1      42.439 -15.138   1.999  1.00  0.00     0.274 C 
HETATM    2  N   UNL     1      41.155 -15.285   1.501  1.00  0.00    -0.243 N 
HETATM    3  O   UNL     1      43.178 -14.187   1.752  1.00  0.00    -0.266 OA
HETATM    4  H   UNL     1      40.601 -16.094   1.768  1.00  0.00     0.192 HD
ENDROOT
BRANCH   2   5
HETATM    5  N   UNL     1      40.696 -14.409   0.562  1.00  0.00    -0.183 NA
HETATM    6  C   UNL     1      39.804 -14.861  -0.258  1.00  0.00     0.152 C 
BRANCH   6   7
HETATM    7  C   UNL     1      39.324 -13.998  -1.317  1.00  0.00     0.011 A 
HETATM    8  C   UNL     1      38.668 -12.730  -1.193  1.00  0.00     0.004 A 
HETATM    9  C   UNL     1      38.361 -12.292  -2.484  1.00  0.00     0.043 A 
HETATM   10  C   UNL     1      38.293 -11.914  -0.105  1.00  0.00     0.014 A 
HETATM   11  C   UNL     1      37.698 -11.086  -2.740  1.00  0.00     0.030 A 
HETATM   12  N   UNL     1      38.821 -13.246  -3.360  1.00  0.00    -0.364 N 
HETATM   13  C   UNL     1      37.337 -10.299  -1.642  1.00  0.00     0.002 A 
HETATM   14  C   UNL     1      37.631 -10.704  -0.343  1.00  0.00     0.001 A 
HETATM   15  H   UNL     1      38.735 -13.197  -4.365  1.00  0.00     0.165 HD
HETATM   16  C   UNL     1      39.402 -14.274  -2.671  1.00  0.00     0.102 A 
ENDBRANCH   6   7
ENDBRANCH   2   5
BRANCH   1  17
HETATM   17  C   UNL     1      42.962 -16.259   2.841  1.00  0.00     0.068 A 
HETATM   18  C   UNL     1      43.297 -16.143   4.204  1.00  0.00     0.084 A 
HETATM   19  C   UNL     1      43.716 -17.283   4.907  1.00  0.00     0.039 A 
HETATM   20  C   UNL     1      43.840 -18.515   4.259  1.00  0.00     0.022 A 
HETATM   21  C   UNL     1      43.543 -18.617   2.904  1.00  0.00     0.012 A 
HETATM   22  C   UNL     1      43.106 -17.502   2.197  1.00  0.00     0.039 A 
HETATM   23 BR   UNL     1      43.711 -20.283   2.029  1.00  0.00    -0.051 Br
BRANCH  18  24
HETATM   24  O   UNL     1      43.166 -14.917   4.809  1.00  0.00    -0.350 OA
BRANCH  24  25
HETATM   25  C   UNL     1      43.492 -14.875   6.204  1.00  0.00     0.171 C 
HETATM   26  C   UNL     1      43.854 -13.446   6.562  1.00  0.00     0.034 C 
ENDBRANCH  24  25
ENDBRANCH  18  24
ENDBRANCH   1  17
TORSDOF 5
ENDMDL
MODEL 4
REMARK VINA RESULT:      -7.7      2.938      8.138
REMARK  5 active torsions:
REMARK  status: ('A' for Active; 'I' for Inactive)
REMARK    1  A    between atoms: C_2  and  O_3 
REMARK    2  A    between atoms: O_3  and  C_4 
REMARK    3  A    between atoms: C_5  and  C_6 
REMARK       I    between atoms: C_6  and  N_7 
REMARK    4  A    between atoms: N_7  and  N_8 
REMARK    5  A    between atoms: C_9  and  C_10 
ROOT
HETATM    1  C   UNL     1      42.881 -15.539   2.800  1.00  0.00     0.274 C 
HETATM    2  N   UNL     1      41.636 -15.065   3.177  1.00  0.00    -0.243 N 
HETATM    3  O   UNL     1      43.576 -15.046   1.914  1.00  0.00    -0.266 OA
HETATM    4  H   UNL     1      41.131 -15.519   3.933  1.00  0.00     0.192 HD
ENDROOT
BRANCH   2   5
HETATM    5  N   UNL     1      41.047 -14.075   2.447  1.00  0.00    -0.183 NA
HETATM    6  C   UNL     1      40.352 -14.451   1.423  1.00  0.00     0.152 C 
BRANCH   6   7
HETATM    7  C   UNL     1      39.754 -13.442   0.572  1.00  0.00     0.011 A 
HETATM    8  C   UNL     1      39.247 -13.599  -0.759  1.00  0.00     0.004 A 
HETATM    9  C   UNL     1      38.803 -12.344  -1.185  1.00  0.00     0.043 A 
HETATM   10  C   UNL     1      39.132 -14.686  -1.650  1.00  0.00     0.014 A 
HETATM   11  C   UNL     1      38.256 -12.123  -2.455  1.00  0.00     0.030 A 
HETATM   12  N   UNL     1      39.020 -11.462  -0.154  1.00  0.00    -0.364 N 
HETATM   13  C   UNL     1      38.155 -13.218  -3.317  1.00  0.00     0.002 A 
HETATM   14  C   UNL     1      38.584 -14.482  -2.923  1.00  0.00     0.001 A 
HETATM   15  H   UNL     1      38.797 -10.477  -0.180  1.00  0.00     0.165 HD
HETATM   16  C   UNL     1      39.589 -12.110   0.906  1.00  0.00     0.102 A 
ENDBRANCH   6   7
ENDBRANCH   2   5
BRANCH   1  17
HETATM   17  C   UNL     1      43.363 -16.775   3.492  1.00  0.00     0.068 A 
HETATM   18  C   UNL     1      43.708 -16.843   4.855  1.00  0.00     0.084 A 
HETATM   19  C   UNL     1      44.085 -18.077   5.407  1.00  0.00     0.039 A 
HETATM   20  C   UNL     1      44.159 -19.223   4.609  1.00  0.00     0.022 A 
HETATM   21  C   UNL     1      43.852 -19.143   3.256  1.00  0.00     0.012 A 
HETATM   22  C   UNL     1      43.456 -17.932   2.697  1.00  0.00     0.039 A 
HETATM   23 BR   UNL     1      43.952 -20.692   2.178  1.00  0.00    -0.051 Br
BRANCH  18  24
HETATM   24  O   UNL     1      43.627 -15.698   5.609  1.00  0.00    -0.350 OA
BRANCH  24  25
HETATM   25  C   UNL     1      43.061 -15.854   6.916  1.00  0.00     0.171 C 
HETATM   26  C   UNL     1      41.551 -15.755   6.791  1.00  0.00     0.034 C 
ENDBRANCH  24  25
ENDBRANCH  18  24
ENDBRANCH   1  17
TORSDOF 5
ENDMDL
MODEL 5
REMARK VINA RESULT:      -7.6      3.392      8.489
REMARK  5 active torsions:
REMARK  status: ('A' for Active; 'I' for Inactive)
REMARK    1  A    between atoms: C_2  and  O_3 
REMARK    2  A    between atoms: O_3  and  C_4 
REMARK    3  A    between atoms: C_5  and  C_6 
REMARK       I    between atoms: C_6  and  N_7 
REMARK    4  A    between atoms: N_7  and  N_8 
REMARK    5  A    between atoms: C_9  and  C_10 
ROOT
HETATM    1  C   UNL     1      41.255 -16.222   2.930  1.00  0.00     0.274 C 
HETATM    2  N   UNL     1      41.697 -15.708   1.722  1.00  0.00    -0.243 N 
HETATM    3  O   UNL     1      40.075 -16.307   3.261  1.00  0.00    -0.266 OA
HETATM    4  H   UNL     1      42.692 -15.689   1.516  1.00  0.00     0.192 HD
ENDROOT
BRANCH   2   5
HETATM    5  N   UNL     1      40.803 -15.120   0.877  1.00  0.00    -0.183 NA
HETATM    6  C   UNL     1      40.696 -13.834   0.957  1.00  0.00     0.152 C 
BRANCH   6   7
HETATM    7  C   UNL     1      39.718 -13.158   0.129  1.00  0.00     0.011 A 
HETATM    8  C   UNL     1      39.113 -13.627  -1.082  1.00  0.00     0.004 A 
HETATM    9  C   UNL     1      38.261 -12.618  -1.540  1.00  0.00     0.043 A 
HETATM   10  C   UNL     1      39.215 -14.811  -1.843  1.00  0.00     0.014 A 
HETATM   11  C   UNL     1      37.512 -12.731  -2.717  1.00  0.00     0.030 A 
HETATM   12  N   UNL     1      38.335 -11.582  -0.639  1.00  0.00    -0.364 N 
HETATM   13  C   UNL     1      37.634 -13.914  -3.452  1.00  0.00     0.002 A 
HETATM   14  C   UNL     1      38.470 -14.941  -3.023  1.00  0.00     0.001 A 
HETATM   15  H   UNL     1      37.825 -10.713  -0.716  1.00  0.00     0.165 HD
HETATM   16  C   UNL     1      39.205 -11.896   0.367  1.00  0.00     0.102 A 
ENDBRANCH   6   7
ENDBRANCH   2   5
BRANCH   1  17
HETATM   17  C   UNL     1      42.311 -16.636   3.906  1.00  0.00     0.068 A 
HETATM   18  C   UNL     1      43.357 -17.533   3.617  1.00  0.00     0.084 A 
HETATM   19  C   UNL     1      44.327 -17.794   4.597  1.00  0.00     0.039 A 
HETATM   20  C   UNL     1      44.241 -17.206   5.861  1.00  0.00     0.022 A 
HETATM   21  C   UNL     1      43.186 -16.348   6.154  1.00  0.00     0.012 A 
HETATM   22  C   UNL     1      42.228 -16.061   5.188  1.00  0.00     0.039 A 
HETATM   23 BR   UNL     1      43.071 -15.552   7.864  1.00  0.00    -0.051 Br
BRANCH  18  24
HETATM   24  O   UNL     1      43.410 -18.096   2.365  1.00  0.00    -0.350 OA
BRANCH  24  25
HETATM   25  C   UNL     1      42.772 -19.373   2.232  1.00  0.00     0.171 C 
HETATM   26  C   UNL     1      43.836 -20.396   1.875  1.00  0.00     0.034 C 
ENDBRANCH  24  25
ENDBRANCH  18  24
ENDBRANCH   1  17
TORSDOF 5
ENDMDL
MODEL 6
REMARK VINA RESULT:      -7.5      6.642      8.492
REMARK  5 active torsions:
REMARK  status: ('A' for Active; 'I' for Inactive)
REMARK    1  A    between atoms: C_2  and  O_3 
REMARK    2  A    between atoms: O_3  and  C_4 
REMARK    3  A    between atoms: C_5  and  C_6 
REMARK       I    between atoms: C_6  and  N_7 
REMARK    4  A    between atoms: N_7  and  N_8 
REMARK    5  A    between atoms: C_9  and  C_10 
ROOT
HETATM    1  C   UNL     1      42.423 -10.381   6.905  1.00  0.00     0.274 C 
HETATM    2  N   UNL     1      42.304 -11.759   6.841  1.00  0.00    -0.243 N 
HETATM    3  O   UNL     1      42.258  -9.621   5.953  1.00  0.00    -0.266 OA
HETATM    4  H   UNL     1      42.439 -12.316   7.680  1.00  0.00     0.192 HD
ENDROOT
BRANCH   2   5
HETATM    5  N   UNL     1      42.131 -12.360   5.629  1.00  0.00    -0.183 NA
HETATM    6  C   UNL     1      43.090 -13.130   5.228  1.00  0.00     0.152 C 
BRANCH   6   7
HETATM    7  C   UNL     1      42.993 -13.747   3.921  1.00  0.00     0.011 A 
HETATM    8  C   UNL     1      43.101 -15.138   3.592  1.00  0.00     0.004 A 
HETATM    9  C   UNL     1      42.977 -15.249   2.204  1.00  0.00     0.043 A 
HETATM   10  C   UNL     1      43.303 -16.317   4.340  1.00  0.00     0.014 A 
HETATM   11  C   UNL     1      43.048 -16.473   1.530  1.00  0.00     0.030 A 
HETATM   12  N   UNL     1      42.790 -13.980   1.709  1.00  0.00    -0.364 N 
HETATM   13  C   UNL     1      43.251 -17.624   2.296  1.00  0.00     0.002 A 
HETATM   14  C   UNL     1      43.374 -17.551   3.680  1.00  0.00     0.001 A 
HETATM   15  H   UNL     1      42.673 -13.753   0.731  1.00  0.00     0.165 HD
HETATM   16  C   UNL     1      42.797 -13.071   2.730  1.00  0.00     0.102 A 
ENDBRANCH   6   7
ENDBRANCH   2   5
BRANCH   1  17
HETATM   17  C   UNL     1      42.844  -9.807   8.222  1.00  0.00     0.068 A 
HETATM   18  C   UNL     1      43.983 -10.216   8.942  1.00  0.00     0.084 A 
HETATM   19  C   UNL     1      44.313  -9.557  10.136  1.00  0.00     0.039 A 
HETATM   20  C   UNL     1      43.502  -8.532  10.633  1.00  0.00     0.022 A 
HETATM   21  C   UNL     1      42.359  -8.157   9.937  1.00  0.00     0.012 A 
HETATM   22  C   UNL     1      42.028  -8.785   8.741  1.00  0.00     0.039 A 
HETATM   23 BR   UNL     1      41.263  -6.772  10.609  1.00  0.00    -0.051 Br
BRANCH  18  24
HETATM   24  O   UNL     1      44.756 -11.228   8.426  1.00  0.00    -0.350 OA
BRANCH  24  25
HETATM   25  C   UNL     1      45.985 -10.818   7.814  1.00  0.00     0.171 C 
HETATM   26  C   UNL     1      45.972 -11.287   6.370  1.00  0.00     0.034 C 
ENDBRANCH  24  25
ENDBRANCH  18  24
ENDBRANCH   1  17
TORSDOF 5
ENDMDL
MODEL 7
REMARK VINA RESULT:      -7.4      1.993      3.004
REMARK  5 active torsions:
REMARK  status: ('A' for Active; 'I' for Inactive)
REMARK    1  A    between atoms: C_2  and  O_3 
REMARK    2  A    between atoms: O_3  and  C_4 
REMARK    3  A    between atoms: C_5  and  C_6 
REMARK       I    between atoms: C_6  and  N_7 
REMARK    4  A    between atoms: N_7  and  N_8 
REMARK    5  A    between atoms: C_9  and  C_10 
ROOT
HETATM    1  C   UNL     1      41.072 -13.161   0.863  1.00  0.00     0.274 C 
HETATM    2  N   UNL     1      42.081 -14.109   0.843  1.00  0.00    -0.243 N 
HETATM    3  O   UNL     1      40.277 -13.008   1.788  1.00  0.00    -0.266 OA
HETATM    4  H   UNL     1      42.710 -14.160   0.046  1.00  0.00     0.192 HD
ENDROOT
BRANCH   2   5
HETATM    5  N   UNL     1      42.143 -15.044   1.835  1.00  0.00    -0.183 NA
HETATM    6  C   UNL     1      43.128 -14.937   2.665  1.00  0.00     0.152 C 
BRANCH   6   7
HETATM    7  C   UNL     1      43.283 -15.936   3.702  1.00  0.00     0.011 A 
HETATM    8  C   UNL     1      43.512 -17.342   3.545  1.00  0.00     0.004 A 
HETATM    9  C   UNL     1      43.557 -17.902   4.825  1.00  0.00     0.043 A 
HETATM   10  C   UNL     1      43.676 -18.199   2.436  1.00  0.00     0.014 A 
HETATM   11  C   UNL     1      43.753 -19.270   5.050  1.00  0.00     0.030 A 
HETATM   12  N   UNL     1      43.375 -16.879   5.725  1.00  0.00    -0.364 N 
HETATM   13  C   UNL     1      43.910 -20.095   3.932  1.00  0.00     0.002 A 
HETATM   14  C   UNL     1      43.875 -19.569   2.644  1.00  0.00     0.001 A 
HETATM   15  H   UNL     1      43.357 -16.990   6.729  1.00  0.00     0.165 HD
HETATM   16  C   UNL     1      43.210 -15.695   5.063  1.00  0.00     0.102 A 
ENDBRANCH   6   7
ENDBRANCH   2   5
BRANCH   1  17
HETATM   17  C   UNL     1      40.920 -12.321  -0.365  1.00  0.00     0.068 A 
HETATM   18  C   UNL     1      40.519 -12.812  -1.623  1.00  0.00     0.084 A 
HETATM   19  C   UNL     1      40.349 -11.914  -2.687  1.00  0.00     0.039 A 
HETATM   20  C   UNL     1      40.612 -10.552  -2.521  1.00  0.00     0.022 A 
HETATM   21  C   UNL     1      41.042 -10.077  -1.287  1.00  0.00     0.012 A 
HETATM   22  C   UNL     1      41.196 -10.950  -0.215  1.00  0.00     0.039 A 
HETATM   23 BR   UNL     1      41.397  -8.235  -1.063  1.00  0.00    -0.051 Br
BRANCH  18  24
HETATM   24  O   UNL     1      40.272 -14.157  -1.752  1.00  0.00    -0.350 OA
BRANCH  24  25
HETATM   25  C   UNL     1      38.890 -14.536  -1.763  1.00  0.00     0.171 C 
HETATM   26  C   UNL     1      38.544 -15.019  -3.160  1.00  0.00     0.034 C 
ENDBRANCH  24  25
ENDBRANCH  18  24
ENDBRANCH   1  17
TORSDOF 5
ENDMDL
MODEL 8
REMARK VINA RESULT:      -7.1      5.596      7.282
REMARK  5 active torsions:
REMARK  status: ('A' for Active; 'I' for Inactive)
REMARK    1  A    between atoms: C_2  and  O_3 
REMARK    2  A    between atoms: O_3  and  C_4 
REMARK    3  A    between atoms: C_5  and  C_6 
REMARK       I    between atoms: C_6  and  N_7 
REMARK    4  A    between atoms: N_7  and  N_8 
REMARK    5  A    between atoms: C_9  and  C_10 
ROOT
HETATM    1  C   UNL     1      42.585 -11.424   5.983  1.00  0.00     0.274 C 
HETATM    2  N   UNL     1      42.124 -12.532   6.674  1.00  0.00    -0.243 N 
HETATM    3  O   UNL     1      43.008 -11.447   4.829  1.00  0.00    -0.266 OA
HETATM    4  H   UNL     1      41.773 -12.425   7.622  1.00  0.00     0.192 HD
ENDROOT
BRANCH   2   5
HETATM    5  N   UNL     1      42.261 -13.771   6.121  1.00  0.00    -0.183 NA
HETATM    6  C   UNL     1      43.213 -14.508   6.593  1.00  0.00     0.152 C 
BRANCH   6   7
HETATM    7  C   UNL     1      43.449 -15.810   6.004  1.00  0.00     0.011 A 
HETATM    8  C   UNL     1      43.351 -16.185   4.625  1.00  0.00     0.004 A 
HETATM    9  C   UNL     1      43.635 -17.551   4.542  1.00  0.00     0.043 A 
HETATM   10  C   UNL     1      43.036 -15.496   3.434  1.00  0.00     0.014 A 
HETATM   11  C   UNL     1      43.616 -18.260   3.336  1.00  0.00     0.030 A 
HETATM   12  N   UNL     1      43.906 -17.988   5.817  1.00  0.00    -0.364 N 
HETATM   13  C   UNL     1      43.299 -17.553   2.173  1.00  0.00     0.002 A 
HETATM   14  C   UNL     1      43.015 -16.191   2.218  1.00  0.00     0.001 A 
HETATM   15  H   UNL     1      44.143 -18.939   6.063  1.00  0.00     0.165 HD
HETATM   16  C   UNL     1      43.799 -16.952   6.702  1.00  0.00     0.102 A 
ENDBRANCH   6   7
ENDBRANCH   2   5
BRANCH   1  17
HETATM   17  C   UNL     1      42.620 -10.132   6.738  1.00  0.00     0.068 A 
HETATM   18  C   UNL     1      43.396  -9.903   7.891  1.00  0.00     0.084 A 
HETATM   19  C   UNL     1      43.397  -8.627   8.475  1.00  0.00     0.039 A 
HETATM   20  C   UNL     1      42.606  -7.601   7.949  1.00  0.00     0.022 A 
HETATM   21  C   UNL     1      41.814  -7.843   6.832  1.00  0.00     0.012 A 
HETATM   22  C   UNL     1      41.818  -9.095   6.227  1.00  0.00     0.039 A 
HETATM   23 BR   UNL     1      40.747  -6.455   6.122  1.00  0.00    -0.051 Br
BRANCH  18  24
HETATM   24  O   UNL     1      44.158 -10.934   8.383  1.00  0.00    -0.350 OA
BRANCH  24  25
HETATM   25  C   UNL     1      45.567 -10.682   8.460  1.00  0.00     0.171 C 
HETATM   26  C   UNL     1      46.157 -10.874   7.074  1.00  0.00     0.034 C 
ENDBRANCH  24  25
ENDBRANCH  18  24
ENDBRANCH   1  17
TORSDOF 5
ENDMDL
MODEL 9
REMARK VINA RESULT:      -7.0      6.715      8.844
REMARK  5 active torsions:
REMARK  status: ('A' for Active; 'I' for Inactive)
REMARK    1  A    between atoms: C_2  and  O_3 
REMARK    2  A    between atoms: O_3  and  C_4 
REMARK    3  A    between atoms: C_5  and  C_6 
REMARK       I    between atoms: C_6  and  N_7 
REMARK    4  A    between atoms: N_7  and  N_8 
REMARK    5  A    between atoms: C_9  and  C_10 
ROOT
HETATM    1  C   UNL     1      43.132 -14.096   6.118  1.00  0.00     0.274 C 
HETATM    2  N   UNL     1      43.805 -12.887   6.160  1.00  0.00    -0.243 N 
HETATM    3  O   UNL     1      42.679 -14.678   7.102  1.00  0.00    -0.266 OA
HETATM    4  H   UNL     1      44.133 -12.462   5.298  1.00  0.00     0.192 HD
ENDROOT
BRANCH   2   5
HETATM    5  N   UNL     1      44.129 -12.343   7.369  1.00  0.00    -0.183 NA
HETATM    6  C   UNL     1      43.775 -11.113   7.558  1.00  0.00     0.152 C 
BRANCH   6   7
HETATM    7  C   UNL     1      44.147 -10.460   8.797  1.00  0.00     0.011 A 
HETATM    8  C   UNL     1      43.302  -9.737   9.700  1.00  0.00     0.004 A 
HETATM    9  C   UNL     1      44.111  -9.258  10.734  1.00  0.00     0.043 A 
HETATM   10  C   UNL     1      41.925  -9.431   9.735  1.00  0.00     0.014 A 
HETATM   11  C   UNL     1      43.615  -8.490  11.794  1.00  0.00     0.030 A 
HETATM   12  N   UNL     1      45.394  -9.682  10.479  1.00  0.00    -0.364 N 
HETATM   13  C   UNL     1      42.248  -8.201  11.802  1.00  0.00     0.002 A 
HETATM   14  C   UNL     1      41.412  -8.665  10.789  1.00  0.00     0.001 A 
HETATM   15  H   UNL     1      46.195  -9.481  11.060  1.00  0.00     0.165 HD
HETATM   16  C   UNL     1      45.427 -10.405   9.319  1.00  0.00     0.102 A 
ENDBRANCH   6   7
ENDBRANCH   2   5
BRANCH   1  17
HETATM   17  C   UNL     1      43.017 -14.750   4.777  1.00  0.00     0.068 A 
HETATM   18  C   UNL     1      42.568 -14.102   3.609  1.00  0.00     0.084 A 
HETATM   19  C   UNL     1      42.567 -14.802   2.394  1.00  0.00     0.039 A 
HETATM   20  C   UNL     1      42.965 -16.141   2.340  1.00  0.00     0.022 A 
HETATM   21  C   UNL     1      43.373 -16.787   3.502  1.00  0.00     0.012 A 
HETATM   22  C   UNL     1      43.401 -16.102   4.712  1.00  0.00     0.039 A 
HETATM   23 BR   UNL     1      43.911 -18.597   3.430  1.00  0.00    -0.051 Br
BRANCH  18  24
HETATM   24  O   UNL     1      42.181 -12.787   3.698  1.00  0.00    -0.350 OA
BRANCH  24  25
HETATM   25  C   UNL     1      40.880 -12.487   3.177  1.00  0.00     0.171 C 
HETATM   26  C   UNL     1      39.853 -12.855   4.233  1.00  0.00     0.034 C 
ENDBRANCH  24  25
ENDBRANCH  18  24
ENDBRANCH   1  17
TORSDOF 5
ENDMDL
MODEL 10
REMARK VINA RESULT:      -6.9     14.389     15.824
REMARK  5 active torsions:
REMARK  status: ('A' for Active; 'I' for Inactive)
REMARK    1  A    between atoms: C_2  and  O_3 
REMARK    2  A    between atoms: O_3  and  C_4 
REMARK    3  A    between atoms: C_5  and  C_6 
REMARK       I    between atoms: C_6  and  N_7 
REMARK    4  A    between atoms: N_7  and  N_8 
REMARK    5  A    between atoms: C_9  and  C_10 
ROOT
HETATM    1  C   UNL     1      43.961 -30.268  -0.519  1.00  0.00     0.274 C 
HETATM    2  N   UNL     1      43.208 -29.480   0.335  1.00  0.00    -0.243 N 
HETATM    3  O   UNL     1      44.342 -31.408  -0.261  1.00  0.00    -0.266 OA
HETATM    4  H   UNL     1      42.917 -28.552   0.039  1.00  0.00     0.192 HD
ENDROOT
BRANCH   2   5
HETATM    5  N   UNL     1      42.972 -29.907   1.608  1.00  0.00    -0.183 NA
HETATM    6  C   UNL     1      41.778 -30.338   1.858  1.00  0.00     0.152 C 
BRANCH   6   7
HETATM    7  C   UNL     1      41.448 -30.747   3.208  1.00  0.00     0.011 A 
HETATM    8  C   UNL     1      40.443 -31.678   3.627  1.00  0.00     0.004 A 
HETATM    9  C   UNL     1      40.472 -31.722   5.023  1.00  0.00     0.043 A 
HETATM   10  C   UNL     1      39.501 -32.484   2.953  1.00  0.00     0.014 A 
HETATM   11  C   UNL     1      39.606 -32.524   5.777  1.00  0.00     0.030 A 
HETATM   12  N   UNL     1      41.461 -30.861   5.438  1.00  0.00    -0.364 N 
HETATM   13  C   UNL     1      38.682 -33.310   5.083  1.00  0.00     0.002 A 
HETATM   14  C   UNL     1      38.629 -33.294   3.692  1.00  0.00     0.001 A 
HETATM   15  H   UNL     1      41.706 -30.686   6.402  1.00  0.00     0.165 HD
HETATM   16  C   UNL     1      42.054 -30.272   4.357  1.00  0.00     0.102 A 
ENDBRANCH   6   7
ENDBRANCH   2   5
BRANCH   1  17
HETATM   17  C   UNL     1      44.380 -29.642  -1.811  1.00  0.00     0.068 A 
HETATM   18  C   UNL     1      45.094 -28.433  -1.918  1.00  0.00     0.084 A 
HETATM   19  C   UNL     1      45.489 -27.978  -3.185  1.00  0.00     0.039 A 
HETATM   20  C   UNL     1      45.146 -28.691  -4.338  1.00  0.00     0.022 A 
HETATM   21  C   UNL     1      44.410 -29.865  -4.230  1.00  0.00     0.012 A 
HETATM   22  C   UNL     1      44.029 -30.342  -2.981  1.00  0.00     0.039 A 
HETATM   23 BR   UNL     1      43.948 -30.828  -5.789  1.00  0.00    -0.051 Br
BRANCH  18  24
HETATM   24  O   UNL     1      45.411 -27.756  -0.765  1.00  0.00    -0.350 OA
BRANCH  24  25
HETATM   25  C   UNL     1      46.751 -27.936  -0.289  1.00  0.00     0.171 C 
HETATM   26  C   UNL     1      46.684 -28.305   1.181  1.00  0.00     0.034 C 
ENDBRANCH  24  25
ENDBRANCH  18  24
ENDBRANCH   1  17
TORSDOF 5
ENDMDL
