MODEL 1
REMARK VINA RESULT:      -8.2      0.000      0.000
REMARK  4 active torsions:
REMARK  status: ('A' for Active; 'I' for Inactive)
REMARK    1  A    between atoms: C_4  and  C_5 
REMARK    2  A    between atoms: C_5  and  C_6 
REMARK       I    between atoms: C_6  and  N_7 
REMARK    3  A    between atoms: N_7  and  N_8 
REMARK       I    between atoms: N_8  and  C_9 
REMARK    4  A    between atoms: C_9  and  C_10 
ROOT
HETATM    1  N   UNL     1      42.776 -14.497   3.488  1.00  0.00    -0.263 N 
HETATM    2  C   UNL     1      43.207 -15.664   2.882  1.00  0.00     0.272 C 
HETATM    3  O   UNL     1      43.276 -15.760   1.657  1.00  0.00    -0.266 OA
HETATM    4  H   UNL     1      42.616 -14.417   4.487  1.00  0.00     0.190 HD
ENDROOT
BRANCH   1   5
HETATM    5  N   UNL     1      42.240 -13.477   2.691  1.00  0.00    -0.267 N 
HETATM    6  C   UNL     1      40.870 -13.327   2.674  1.00  0.00     0.240 C 
HETATM    7  O   UNL     1      40.133 -13.958   3.435  1.00  0.00    -0.271 OA
HETATM    8  H   UNL     1      42.859 -13.066   1.991  1.00  0.00     0.190 HD
BRANCH   6   9
HETATM    9  C   UNL     1      40.326 -12.416   1.590  1.00  0.00     0.150 C 
BRANCH   9  10
HETATM   10  C   UNL     1      39.828 -13.188   0.407  1.00  0.00    -0.008 A 
HETATM   11  S   UNL     1      38.808 -12.434  -0.745  1.00  0.00    -0.099 SA
HETATM   12  C   UNL     1      38.750 -13.836  -1.719  1.00  0.00    -0.021 A 
HETATM   13  C   UNL     1      37.972 -13.841  -2.991  1.00  0.00     0.056 C 
HETATM   14  C   UNL     1      39.478 -14.869  -1.166  1.00  0.00     0.015 A 
HETATM   15  C   UNL     1      40.102 -14.494   0.058  1.00  0.00     0.016 A 
ENDBRANCH   9  10
ENDBRANCH   6   9
ENDBRANCH   1   5
BRANCH   2  16
HETATM   16  C   UNL     1      43.555 -16.754   3.794  1.00  0.00     0.061 A 
HETATM   17  C   UNL     1      43.597 -18.157   3.478  1.00  0.00     0.008 A 
HETATM   18  C   UNL     1      43.954 -18.846   4.638  1.00  0.00     0.043 A 
HETATM   19  C   UNL     1      43.366 -18.909   2.306  1.00  0.00     0.015 A 
HETATM   20  C   UNL     1      44.085 -20.239   4.687  1.00  0.00     0.030 A 
HETATM   21  N   UNL     1      44.124 -17.909   5.628  1.00  0.00    -0.364 N 
HETATM   22  C   UNL     1      43.850 -20.956   3.511  1.00  0.00     0.002 A 
HETATM   23  C   UNL     1      43.497 -20.302   2.334  1.00  0.00     0.001 A 
HETATM   24  H   UNL     1      44.381 -18.127   6.581  1.00  0.00     0.165 HD
HETATM   25  C   UNL     1      43.892 -16.651   5.137  1.00  0.00     0.106 A 
ENDBRANCH   2  16
TORSDOF 4
ENDMDL
MODEL 2
REMARK VINA RESULT:      -8.0      1.897      2.396
REMARK  4 active torsions:
REMARK  status: ('A' for Active; 'I' for Inactive)
REMARK    1  A    between atoms: C_4  and  C_5 
REMARK    2  A    between atoms: C_5  and  C_6 
REMARK       I    between atoms: C_6  and  N_7 
REMARK    3  A    between atoms: N_7  and  N_8 
REMARK       I    between atoms: N_8  and  C_9 
REMARK    4  A    between atoms: C_9  and  C_10 
ROOT
HETATM    1  N   UNL     1      41.738 -15.808   1.885  1.00  0.00    -0.263 N 
HETATM    2  C   UNL     1      43.093 -15.918   2.141  1.00  0.00     0.272 C 
HETATM    3  O   UNL     1      43.926 -15.360   1.428  1.00  0.00    -0.266 OA
HETATM    4  H   UNL     1      41.032 -16.332   2.393  1.00  0.00     0.190 HD
ENDROOT
BRANCH   1   5
HETATM    5  N   UNL     1      41.321 -15.202   0.693  1.00  0.00    -0.267 N 
HETATM    6  C   UNL     1      40.148 -14.477   0.715  1.00  0.00     0.240 C 
HETATM    7  O   UNL     1      39.549 -14.235   1.766  1.00  0.00    -0.271 OA
HETATM    8  H   UNL     1      41.766 -15.523  -0.168  1.00  0.00     0.190 HD
BRANCH   6   9
HETATM    9  C   UNL     1      39.592 -14.090  -0.641  1.00  0.00     0.150 C 
BRANCH   9  10
HETATM   10  C   UNL     1      40.251 -12.860  -1.187  1.00  0.00    -0.008 A 
HETATM   11  S   UNL     1      40.708 -11.589  -0.135  1.00  0.00    -0.099 SA
HETATM   12  C   UNL     1      41.386 -10.677  -1.411  1.00  0.00    -0.021 A 
HETATM   13  C   UNL     1      42.020  -9.356  -1.141  1.00  0.00     0.056 C 
HETATM   14  C   UNL     1      41.248 -11.321  -2.623  1.00  0.00     0.015 A 
HETATM   15  C   UNL     1      40.597 -12.581  -2.494  1.00  0.00     0.016 A 
ENDBRANCH   9  10
ENDBRANCH   6   9
ENDBRANCH   1   5
BRANCH   2  16
HETATM   16  C   UNL     1      43.449 -16.744   3.296  1.00  0.00     0.061 A 
HETATM   17  C   UNL     1      43.579 -18.177   3.318  1.00  0.00     0.008 A 
HETATM   18  C   UNL     1      43.910 -18.556   4.620  1.00  0.00     0.043 A 
HETATM   19  C   UNL     1      43.449 -19.192   2.346  1.00  0.00     0.015 A 
HETATM   20  C   UNL     1      44.111 -19.889   4.999  1.00  0.00     0.030 A 
HETATM   21  N   UNL     1      43.980 -17.407   5.369  1.00  0.00    -0.364 N 
HETATM   22  C   UNL     1      43.975 -20.871   4.014  1.00  0.00     0.002 A 
HETATM   23  C   UNL     1      43.650 -20.531   2.704  1.00  0.00     0.001 A 
HETATM   24  H   UNL     1      44.197 -17.382   6.356  1.00  0.00     0.165 HD
HETATM   25  C   UNL     1      43.709 -16.313   4.589  1.00  0.00     0.106 A 
ENDBRANCH   2  16
TORSDOF 4
ENDMDL
MODEL 3
REMARK VINA RESULT:      -8.0      5.927      7.896
REMARK  4 active torsions:
REMARK  status: ('A' for Active; 'I' for Inactive)
REMARK    1  A    between atoms: C_4  and  C_5 
REMARK    2  A    between atoms: C_5  and  C_6 
REMARK       I    between atoms: C_6  and  N_7 
REMARK    3  A    between atoms: N_7  and  N_8 
REMARK       I    between atoms: N_8  and  C_9 
REMARK    4  A    between atoms: C_9  and  C_10 
ROOT
HETATM    1  N   UNL     1      43.587 -12.971   5.916  1.00  0.00    -0.263 N 
HETATM    2  C   UNL     1      43.210 -14.288   6.106  1.00  0.00     0.272 C 
HETATM    3  O   UNL     1      43.210 -14.798   7.227  1.00  0.00    -0.266 OA
HETATM    4  H   UNL     1      43.691 -12.551   4.997  1.00  0.00     0.190 HD
ENDROOT
BRANCH   1   5
HETATM    5  N   UNL     1      44.148 -12.265   6.988  1.00  0.00    -0.267 N 
HETATM    6  C   UNL     1      45.151 -11.361   6.709  1.00  0.00     0.240 C 
HETATM    7  O   UNL     1      45.459 -11.063   5.552  1.00  0.00    -0.271 OA
HETATM    8  H   UNL     1      43.959 -12.623   7.925  1.00  0.00     0.190 HD
BRANCH   6   9
HETATM    9  C   UNL     1      45.917 -10.842   7.910  1.00  0.00     0.150 C 
BRANCH   9  10
HETATM   10  C   UNL     1      45.088  -9.918   8.748  1.00  0.00    -0.008 A 
HETATM   11  S   UNL     1      44.896 -10.215  10.423  1.00  0.00    -0.099 SA
HETATM   12  C   UNL     1      43.958  -8.803  10.640  1.00  0.00    -0.021 A 
HETATM   13  C   UNL     1      43.441  -8.440  11.990  1.00  0.00     0.056 C 
HETATM   14  C   UNL     1      43.775  -8.127   9.452  1.00  0.00     0.015 A 
HETATM   15  C   UNL     1      44.430  -8.768   8.361  1.00  0.00     0.016 A 
ENDBRANCH   9  10
ENDBRANCH   6   9
ENDBRANCH   1   5
BRANCH   2  16
HETATM   16  C   UNL     1      42.832 -15.016   4.894  1.00  0.00     0.061 A 
HETATM   17  C   UNL     1      43.307 -16.311   4.488  1.00  0.00     0.008 A 
HETATM   18  C   UNL     1      42.711 -16.621   3.264  1.00  0.00     0.043 A 
HETATM   19  C   UNL     1      44.191 -17.257   5.051  1.00  0.00     0.015 A 
HETATM   20  C   UNL     1      42.955 -17.815   2.577  1.00  0.00     0.030 A 
HETATM   21  N   UNL     1      41.903 -15.561   2.930  1.00  0.00    -0.364 N 
HETATM   22  C   UNL     1      43.835 -18.731   3.160  1.00  0.00     0.002 A 
HETATM   23  C   UNL     1      44.445 -18.459   4.381  1.00  0.00     0.001 A 
HETATM   24  H   UNL     1      41.350 -15.510   2.085  1.00  0.00     0.165 HD
HETATM   25  C   UNL     1      41.963 -14.593   3.898  1.00  0.00     0.106 A 
ENDBRANCH   2  16
TORSDOF 4
ENDMDL
MODEL 4
REMARK VINA RESULT:      -7.8      1.560      1.935
REMARK  4 active torsions:
REMARK  status: ('A' for Active; 'I' for Inactive)
REMARK    1  A    between atoms: C_4  and  C_5 
REMARK    2  A    between atoms: C_5  and  C_6 
REMARK       I    between atoms: C_6  and  N_7 
REMARK    3  A    between atoms: N_7  and  N_8 
REMARK       I    between atoms: N_8  and  C_9 
REMARK    4  A    between atoms: C_9  and  C_10 
ROOT
HETATM    1  N   UNL     1      42.095 -15.031   2.372  1.00  0.00    -0.263 N 
HETATM    2  C   UNL     1      43.133 -15.932   2.219  1.00  0.00     0.272 C 
HETATM    3  O   UNL     1      43.739 -16.035   1.152  1.00  0.00    -0.266 OA
HETATM    4  H   UNL     1      41.514 -14.990   3.203  1.00  0.00     0.190 HD
ENDROOT
BRANCH   1   5
HETATM    5  N   UNL     1      41.611 -14.357   1.243  1.00  0.00    -0.267 N 
HETATM    6  C   UNL     1      40.450 -14.823   0.663  1.00  0.00     0.240 C 
HETATM    7  O   UNL     1      39.768 -15.707   1.185  1.00  0.00    -0.271 OA
HETATM    8  H   UNL     1      42.257 -13.721   0.774  1.00  0.00     0.190 HD
BRANCH   6   9
HETATM    9  C   UNL     1      40.128 -14.252  -0.704  1.00  0.00     0.150 C 
BRANCH   9  10
HETATM   10  C   UNL     1      39.231 -13.056  -0.616  1.00  0.00    -0.008 A 
HETATM   11  S   UNL     1      38.315 -12.565  -1.977  1.00  0.00    -0.099 SA
HETATM   12  C   UNL     1      37.577 -11.289  -1.112  1.00  0.00    -0.021 A 
HETATM   13  C   UNL     1      36.577 -10.406  -1.776  1.00  0.00     0.056 C 
HETATM   14  C   UNL     1      38.038 -11.224   0.187  1.00  0.00     0.015 A 
HETATM   15  C   UNL     1      38.989 -12.245   0.474  1.00  0.00     0.016 A 
ENDBRANCH   9  10
ENDBRANCH   6   9
ENDBRANCH   1   5
BRANCH   2  16
HETATM   16  C   UNL     1      43.439 -16.745   3.397  1.00  0.00     0.061 A 
HETATM   17  C   UNL     1      43.578 -18.176   3.438  1.00  0.00     0.008 A 
HETATM   18  C   UNL     1      43.848 -18.541   4.759  1.00  0.00     0.043 A 
HETATM   19  C   UNL     1      43.501 -19.202   2.471  1.00  0.00     0.015 A 
HETATM   20  C   UNL     1      44.039 -19.869   5.159  1.00  0.00     0.030 A 
HETATM   21  N   UNL     1      43.874 -17.385   5.499  1.00  0.00    -0.364 N 
HETATM   22  C   UNL     1      43.958 -20.861   4.179  1.00  0.00     0.002 A 
HETATM   23  C   UNL     1      43.694 -20.535   2.852  1.00  0.00     0.001 A 
HETATM   24  H   UNL     1      44.043 -17.349   6.495  1.00  0.00     0.165 HD
HETATM   25  C   UNL     1      43.634 -16.300   4.697  1.00  0.00     0.106 A 
ENDBRANCH   2  16
TORSDOF 4
ENDMDL
MODEL 5
REMARK VINA RESULT:      -7.7      5.196      8.199
REMARK  4 active torsions:
REMARK  status: ('A' for Active; 'I' for Inactive)
REMARK    1  A    between atoms: C_4  and  C_5 
REMARK    2  A    between atoms: C_5  and  C_6 
REMARK       I    between atoms: C_6  and  N_7 
REMARK    3  A    between atoms: N_7  and  N_8 
REMARK       I    between atoms: N_8  and  C_9 
REMARK    4  A    between atoms: C_9  and  C_10 
ROOT
HETATM    1  N   UNL     1      43.557 -13.885   6.900  1.00  0.00    -0.263 N 
HETATM    2  C   UNL     1      43.292 -12.877   5.991  1.00  0.00     0.272 C 
HETATM    3  O   UNL     1      43.272 -13.097   4.780  1.00  0.00    -0.266 OA
HETATM    4  H   UNL     1      43.676 -13.719   7.895  1.00  0.00     0.190 HD
ENDROOT
BRANCH   1   5
HETATM    5  N   UNL     1      43.986 -15.131   6.425  1.00  0.00    -0.267 N 
HETATM    6  C   UNL     1      43.176 -16.223   6.659  1.00  0.00     0.240 C 
HETATM    7  O   UNL     1      42.045 -16.107   7.137  1.00  0.00    -0.271 OA
HETATM    8  H   UNL     1      44.966 -15.207   6.151  1.00  0.00     0.190 HD
BRANCH   6   9
HETATM    9  C   UNL     1      43.807 -17.575   6.388  1.00  0.00     0.150 C 
BRANCH   9  10
HETATM   10  C   UNL     1      43.654 -17.989   4.957  1.00  0.00    -0.008 A 
HETATM   11  S   UNL     1      44.151 -19.550   4.456  1.00  0.00    -0.099 SA
HETATM   12  C   UNL     1      43.626 -19.282   2.852  1.00  0.00    -0.021 A 
HETATM   13  C   UNL     1      43.771 -20.349   1.821  1.00  0.00     0.056 C 
HETATM   14  C   UNL     1      43.099 -18.016   2.695  1.00  0.00     0.015 A 
HETATM   15  C   UNL     1      43.112 -17.272   3.910  1.00  0.00     0.016 A 
ENDBRANCH   9  10
ENDBRANCH   6   9
ENDBRANCH   1   5
BRANCH   2  16
HETATM   16  C   UNL     1      43.055 -11.554   6.571  1.00  0.00     0.061 A 
HETATM   17  C   UNL     1      44.022 -10.726   7.241  1.00  0.00     0.008 A 
HETATM   18  C   UNL     1      43.373  -9.561   7.655  1.00  0.00     0.043 A 
HETATM   19  C   UNL     1      45.397 -10.857   7.532  1.00  0.00     0.015 A 
HETATM   20  C   UNL     1      44.022  -8.530   8.345  1.00  0.00     0.030 A 
HETATM   21  N   UNL     1      42.062  -9.667   7.258  1.00  0.00    -0.364 N 
HETATM   22  C   UNL     1      45.383  -8.689   8.619  1.00  0.00     0.002 A 
HETATM   23  C   UNL     1      46.065  -9.835   8.218  1.00  0.00     0.001 A 
HETATM   24  H   UNL     1      41.356  -8.966   7.432  1.00  0.00     0.165 HD
HETATM   25  C   UNL     1      41.857 -10.854   6.605  1.00  0.00     0.106 A 
ENDBRANCH   2  16
TORSDOF 4
ENDMDL
MODEL 6
REMARK VINA RESULT:      -7.7      5.848      8.030
REMARK  4 active torsions:
REMARK  status: ('A' for Active; 'I' for Inactive)
REMARK    1  A    between atoms: C_4  and  C_5 
REMARK    2  A    between atoms: C_5  and  C_6 
REMARK       I    between atoms: C_6  and  N_7 
REMARK    3  A    between atoms: N_7  and  N_8 
REMARK       I    between atoms: N_8  and  C_9 
REMARK    4  A    between atoms: C_9  and  C_10 
ROOT
HETATM    1  N   UNL     1      42.534 -13.063   6.696  1.00  0.00    -0.263 N 
HETATM    2  C   UNL     1      42.526 -14.443   6.798  1.00  0.00     0.272 C 
HETATM    3  O   UNL     1      43.142 -15.020   7.694  1.00  0.00    -0.266 OA
HETATM    4  H   UNL     1      42.119 -12.562   5.916  1.00  0.00     0.190 HD
ENDROOT
BRANCH   1   5
HETATM    5  N   UNL     1      43.399 -12.327   7.515  1.00  0.00    -0.267 N 
HETATM    6  C   UNL     1      44.351 -11.539   6.903  1.00  0.00     0.240 C 
HETATM    7  O   UNL     1      44.364 -11.360   5.683  1.00  0.00    -0.271 OA
HETATM    8  H   UNL     1      43.439 -12.593   8.499  1.00  0.00     0.190 HD
BRANCH   6   9
HETATM    9  C   UNL     1      45.435 -10.997   7.813  1.00  0.00     0.150 C 
BRANCH   9  10
HETATM   10  C   UNL     1      44.881 -10.088   8.867  1.00  0.00    -0.008 A 
HETATM   11  S   UNL     1      43.927  -8.737   8.423  1.00  0.00    -0.099 SA
HETATM   12  C   UNL     1      43.657  -8.301  10.053  1.00  0.00    -0.021 A 
HETATM   13  C   UNL     1      42.818  -7.115  10.388  1.00  0.00     0.056 C 
HETATM   14  C   UNL     1      44.301  -9.158  10.921  1.00  0.00     0.015 A 
HETATM   15  C   UNL     1      45.004 -10.191  10.238  1.00  0.00     0.016 A 
ENDBRANCH   9  10
ENDBRANCH   6   9
ENDBRANCH   1   5
BRANCH   2  16
HETATM   16  C   UNL     1      41.757 -15.145   5.771  1.00  0.00     0.061 A 
HETATM   17  C   UNL     1      42.102 -15.278   4.381  1.00  0.00     0.008 A 
HETATM   18  C   UNL     1      41.086 -16.003   3.755  1.00  0.00     0.043 A 
HETATM   19  C   UNL     1      43.192 -14.850   3.592  1.00  0.00     0.015 A 
HETATM   20  C   UNL     1      41.102 -16.315   2.391  1.00  0.00     0.030 A 
HETATM   21  N   UNL     1      40.154 -16.304   4.718  1.00  0.00    -0.364 N 
HETATM   22  C   UNL     1      42.194 -15.877   1.637  1.00  0.00     0.002 A 
HETATM   23  C   UNL     1      43.227 -15.156   2.226  1.00  0.00     0.001 A 
HETATM   24  H   UNL     1      39.303 -16.821   4.545  1.00  0.00     0.165 HD
HETATM   25  C   UNL     1      40.543 -15.799   5.931  1.00  0.00     0.106 A 
ENDBRANCH   2  16
TORSDOF 4
ENDMDL
MODEL 7
REMARK VINA RESULT:      -7.7      5.599      7.571
REMARK  4 active torsions:
REMARK  status: ('A' for Active; 'I' for Inactive)
REMARK    1  A    between atoms: C_4  and  C_5 
REMARK    2  A    between atoms: C_5  and  C_6 
REMARK       I    between atoms: C_6  and  N_7 
REMARK    3  A    between atoms: N_7  and  N_8 
REMARK       I    between atoms: N_8  and  C_9 
REMARK    4  A    between atoms: C_9  and  C_10 
ROOT
HETATM    1  N   UNL     1      43.553 -13.787   6.737  1.00  0.00    -0.263 N 
HETATM    2  C   UNL     1      42.798 -14.633   5.945  1.00  0.00     0.272 C 
HETATM    3  O   UNL     1      41.874 -14.206   5.252  1.00  0.00    -0.266 OA
HETATM    4  H   UNL     1      44.256 -14.119   7.391  1.00  0.00     0.190 HD
ENDROOT
BRANCH   1   5
HETATM    5  N   UNL     1      43.144 -12.456   6.890  1.00  0.00    -0.267 N 
HETATM    6  C   UNL     1      44.091 -11.468   6.723  1.00  0.00     0.240 C 
HETATM    7  O   UNL     1      45.227 -11.715   6.311  1.00  0.00    -0.271 OA
HETATM    8  H   UNL     1      42.244 -12.300   7.346  1.00  0.00     0.190 HD
BRANCH   6   9
HETATM    9  C   UNL     1      43.677 -10.082   7.178  1.00  0.00     0.150 C 
BRANCH   9  10
HETATM   10  C   UNL     1      43.954  -9.863   8.634  1.00  0.00    -0.008 A 
HETATM   11  S   UNL     1      42.705  -9.329   9.676  1.00  0.00    -0.099 SA
HETATM   12  C   UNL     1      43.724  -9.387  11.047  1.00  0.00    -0.021 A 
HETATM   13  C   UNL     1      43.199  -9.023  12.393  1.00  0.00     0.056 C 
HETATM   14  C   UNL     1      45.001  -9.787  10.712  1.00  0.00     0.015 A 
HETATM   15  C   UNL     1      45.133 -10.065   9.322  1.00  0.00     0.016 A 
ENDBRANCH   9  10
ENDBRANCH   6   9
ENDBRANCH   1   5
BRANCH   2  16
HETATM   16  C   UNL     1      43.169 -16.048   6.004  1.00  0.00     0.061 A 
HETATM   17  C   UNL     1      43.370 -16.929   4.885  1.00  0.00     0.008 A 
HETATM   18  C   UNL     1      43.691 -18.192   5.388  1.00  0.00     0.043 A 
HETATM   19  C   UNL     1      43.314 -16.770   3.484  1.00  0.00     0.015 A 
HETATM   20  C   UNL     1      43.949 -19.296   4.568  1.00  0.00     0.030 A 
HETATM   21  N   UNL     1      43.686 -18.093   6.758  1.00  0.00    -0.364 N 
HETATM   22  C   UNL     1      43.885 -19.107   3.185  1.00  0.00     0.002 A 
HETATM   23  C   UNL     1      43.573 -17.862   2.647  1.00  0.00     0.001 A 
HETATM   24  H   UNL     1      43.879 -18.861   7.386  1.00  0.00     0.165 HD
HETATM   25  C   UNL     1      43.378 -16.814   7.142  1.00  0.00     0.106 A 
ENDBRANCH   2  16
TORSDOF 4
ENDMDL
MODEL 8
REMARK VINA RESULT:      -7.5      5.224      7.460
REMARK  4 active torsions:
REMARK  status: ('A' for Active; 'I' for Inactive)
REMARK    1  A    between atoms: C_4  and  C_5 
REMARK    2  A    between atoms: C_5  and  C_6 
REMARK       I    between atoms: C_6  and  N_7 
REMARK    3  A    between atoms: N_7  and  N_8 
REMARK       I    between atoms: N_8  and  C_9 
REMARK    4  A    between atoms: C_9  and  C_10 
ROOT
HETATM    1  N   UNL     1      43.327 -13.764   7.198  1.00  0.00    -0.263 N 
HETATM    2  C   UNL     1      43.605 -12.688   6.375  1.00  0.00     0.272 C 
HETATM    3  O   UNL     1      43.056 -12.560   5.281  1.00  0.00    -0.266 OA
HETATM    4  H   UNL     1      43.831 -13.950   8.059  1.00  0.00     0.190 HD
ENDROOT
BRANCH   1   5
HETATM    5  N   UNL     1      42.545 -14.814   6.699  1.00  0.00    -0.267 N 
HETATM    6  C   UNL     1      43.194 -15.948   6.259  1.00  0.00     0.240 C 
HETATM    7  O   UNL     1      44.405 -16.112   6.423  1.00  0.00    -0.271 OA
HETATM    8  H   UNL     1      41.575 -14.596   6.466  1.00  0.00     0.190 HD
BRANCH   6   9
HETATM    9  C   UNL     1      42.344 -16.924   5.471  1.00  0.00     0.150 C 
BRANCH   9  10
HETATM   10  C   UNL     1      42.225 -16.529   4.030  1.00  0.00    -0.008 A 
HETATM   11  S   UNL     1      40.749 -15.901   3.430  1.00  0.00    -0.099 SA
HETATM   12  C   UNL     1      41.402 -15.659   1.870  1.00  0.00    -0.021 A 
HETATM   13  C   UNL     1      40.566 -15.076   0.783  1.00  0.00     0.056 C 
HETATM   14  C   UNL     1      42.717 -16.070   1.801  1.00  0.00     0.015 A 
HETATM   15  C   UNL     1      43.193 -16.569   3.048  1.00  0.00     0.016 A 
ENDBRANCH   9  10
ENDBRANCH   6   9
ENDBRANCH   1   5
BRANCH   2  16
HETATM   16  C   UNL     1      44.593 -11.740   6.892  1.00  0.00     0.061 A 
HETATM   17  C   UNL     1      44.524 -11.023   8.137  1.00  0.00     0.008 A 
HETATM   18  C   UNL     1      45.659 -10.214   8.228  1.00  0.00     0.043 A 
HETATM   19  C   UNL     1      43.599 -10.987   9.203  1.00  0.00     0.015 A 
HETATM   20  C   UNL     1      45.911  -9.374   9.319  1.00  0.00     0.030 A 
HETATM   21  N   UNL     1      46.396 -10.424   7.088  1.00  0.00    -0.364 N 
HETATM   22  C   UNL     1      44.977  -9.361  10.358  1.00  0.00     0.002 A 
HETATM   23  C   UNL     1      43.836 -10.156  10.305  1.00  0.00     0.001 A 
HETATM   24  H   UNL     1      47.271  -9.961   6.882  1.00  0.00     0.165 HD
HETATM   25  C   UNL     1      45.772 -11.337   6.280  1.00  0.00     0.106 A 
ENDBRANCH   2  16
TORSDOF 4
ENDMDL
MODEL 9
REMARK VINA RESULT:      -7.4      1.842      2.223
REMARK  4 active torsions:
REMARK  status: ('A' for Active; 'I' for Inactive)
REMARK    1  A    between atoms: C_4  and  C_5 
REMARK    2  A    between atoms: C_5  and  C_6 
REMARK       I    between atoms: C_6  and  N_7 
REMARK    3  A    between atoms: N_7  and  N_8 
REMARK       I    between atoms: N_8  and  C_9 
REMARK    4  A    between atoms: C_9  and  C_10 
ROOT
HETATM    1  N   UNL     1      40.422 -14.692   4.603  1.00  0.00    -0.263 N 
HETATM    2  C   UNL     1      41.767 -14.590   4.908  1.00  0.00     0.272 C 
HETATM    3  O   UNL     1      42.366 -13.519   4.809  1.00  0.00    -0.266 OA
HETATM    4  H   UNL     1      39.923 -15.576   4.580  1.00  0.00     0.190 HD
ENDROOT
BRANCH   1   5
HETATM    5  N   UNL     1      39.779 -13.603   4.001  1.00  0.00    -0.267 N 
HETATM    6  C   UNL     1      39.576 -13.647   2.638  1.00  0.00     0.240 C 
HETATM    7  O   UNL     1      39.811 -14.659   1.975  1.00  0.00    -0.271 OA
HETATM    8  H   UNL     1      39.714 -12.745   4.551  1.00  0.00     0.190 HD
BRANCH   6   9
HETATM    9  C   UNL     1      39.147 -12.341   1.998  1.00  0.00     0.150 C 
BRANCH   9  10
HETATM   10  C   UNL     1      39.332 -12.357   0.512  1.00  0.00    -0.008 A 
HETATM   11  S   UNL     1      40.893 -12.153  -0.163  1.00  0.00    -0.099 SA
HETATM   12  C   UNL     1      40.309 -12.346  -1.757  1.00  0.00    -0.021 A 
HETATM   13  C   UNL     1      41.244 -12.286  -2.916  1.00  0.00     0.056 C 
HETATM   14  C   UNL     1      38.944 -12.541  -1.777  1.00  0.00     0.015 A 
HETATM   15  C   UNL     1      38.381 -12.551  -0.468  1.00  0.00     0.016 A 
ENDBRANCH   9  10
ENDBRANCH   6   9
ENDBRANCH   1   5
BRANCH   2  16
HETATM   16  C   UNL     1      42.410 -15.833   5.336  1.00  0.00     0.061 A 
HETATM   17  C   UNL     1      42.920 -16.873   4.483  1.00  0.00     0.008 A 
HETATM   18  C   UNL     1      43.430 -17.885   5.299  1.00  0.00     0.043 A 
HETATM   19  C   UNL     1      42.999 -17.049   3.084  1.00  0.00     0.015 A 
HETATM   20  C   UNL     1      44.006 -19.056   4.793  1.00  0.00     0.030 A 
HETATM   21  N   UNL     1      43.242 -17.486   6.600  1.00  0.00    -0.364 N 
HETATM   22  C   UNL     1      44.069 -19.201   3.405  1.00  0.00     0.002 A 
HETATM   23  C   UNL     1      43.575 -18.212   2.559  1.00  0.00     0.001 A 
HETATM   24  H   UNL     1      43.513 -18.030   7.408  1.00  0.00     0.165 HD
HETATM   25  C   UNL     1      42.635 -16.258   6.638  1.00  0.00     0.106 A 
ENDBRANCH   2  16
TORSDOF 4
ENDMDL
MODEL 10
REMARK VINA RESULT:      -7.1      6.356      8.543
REMARK  4 active torsions:
REMARK  status: ('A' for Active; 'I' for Inactive)
REMARK    1  A    between atoms: C_4  and  C_5 
REMARK    2  A    between atoms: C_5  and  C_6 
REMARK       I    between atoms: C_6  and  N_7 
REMARK    3  A    between atoms: N_7  and  N_8 
REMARK       I    between atoms: N_8  and  C_9 
REMARK    4  A    between atoms: C_9  and  C_10 
ROOT
HETATM    1  N   UNL     1      43.160 -12.093   6.831  1.00  0.00    -0.263 N 
HETATM    2  C   UNL     1      43.145 -13.449   6.559  1.00  0.00     0.272 C 
HETATM    3  O   UNL     1      43.319 -14.282   7.449  1.00  0.00    -0.266 OA
HETATM    4  H   UNL     1      43.117 -11.381   6.108  1.00  0.00     0.190 HD
ENDROOT
BRANCH   1   5
HETATM    5  N   UNL     1      43.556 -11.661   8.103  1.00  0.00    -0.267 N 
HETATM    6  C   UNL     1      44.603 -10.767   8.182  1.00  0.00     0.240 C 
HETATM    7  O   UNL     1      45.091 -10.242   7.179  1.00  0.00    -0.271 OA
HETATM    8  H   UNL     1      43.219 -12.203   8.900  1.00  0.00     0.190 HD
BRANCH   6   9
HETATM    9  C   UNL     1      45.179 -10.555   9.569  1.00  0.00     0.150 C 
BRANCH   9  10
HETATM   10  C   UNL     1      44.135 -10.115  10.549  1.00  0.00    -0.008 A 
HETATM   11  S   UNL     1      43.346  -8.609  10.347  1.00  0.00    -0.099 SA
HETATM   12  C   UNL     1      42.350  -8.864  11.712  1.00  0.00    -0.021 A 
HETATM   13  C   UNL     1      41.340  -7.844  12.111  1.00  0.00     0.056 C 
HETATM   14  C   UNL     1      42.629 -10.068  12.324  1.00  0.00     0.015 A 
HETATM   15  C   UNL     1      43.656 -10.791  11.652  1.00  0.00     0.016 A 
ENDBRANCH   9  10
ENDBRANCH   6   9
ENDBRANCH   1   5
BRANCH   2  16
HETATM   16  C   UNL     1      42.925 -13.807   5.157  1.00  0.00     0.061 A 
HETATM   17  C   UNL     1      43.121 -15.101   4.561  1.00  0.00     0.008 A 
HETATM   18  C   UNL     1      42.816 -14.997   3.203  1.00  0.00     0.043 A 
HETATM   19  C   UNL     1      43.528 -16.360   5.054  1.00  0.00     0.015 A 
HETATM   20  C   UNL     1      42.902 -16.078   2.317  1.00  0.00     0.030 A 
HETATM   21  N   UNL     1      42.450 -13.694   2.971  1.00  0.00    -0.364 N 
HETATM   22  C   UNL     1      43.308 -17.311   2.834  1.00  0.00     0.002 A 
HETATM   23  C   UNL     1      43.616 -17.454   4.184  1.00  0.00     0.001 A 
HETATM   24  H   UNL     1      42.181 -13.330   2.067  1.00  0.00     0.165 HD
HETATM   25  C   UNL     1      42.507 -12.969   4.132  1.00  0.00     0.106 A 
ENDBRANCH   2  16
TORSDOF 4
ENDMDL
