MODEL 1
REMARK VINA RESULT:      -7.5      0.000      0.000
REMARK  6 active torsions:
REMARK  status: ('A' for Active; 'I' for Inactive)
REMARK    1  A    between atoms: C_3  and  N_4 
REMARK       I    between atoms: N_4  and  C_5 
REMARK       I    between atoms: C_5  and  N_6 
REMARK    2  A    between atoms: N_6  and  C_7 
REMARK    3  A    between atoms: C_7  and  C_8 
REMARK    4  A    between atoms: C_8  and  N_9 
REMARK    5  A    between atoms: C_8  and  C_13 
REMARK    6  A    between atoms: C_20  and  C_21 
ROOT
HETATM    1  N   UNL     1      42.179 -14.603   1.136  1.00  0.00    -0.309 N 
HETATM    2  C   UNL     1      40.927 -14.672   0.581  1.00  0.00     0.320 C 
HETATM    3  N   UNL     1      40.879 -14.015  -0.628  1.00  0.00    -0.340 N 
HETATM    4  O   UNL     1      39.937 -15.235   1.026  1.00  0.00    -0.247 OA
HETATM    5  H   UNL     1      42.680 -13.761   0.884  1.00  0.00     0.170 HD
HETATM    6  H   UNL     1      41.737 -13.645  -1.022  1.00  0.00     0.164 HD
ENDROOT
BRANCH   1   7
HETATM    7  C   UNL     1      42.629 -15.211   2.336  1.00  0.00     0.043 A 
HETATM    8  C   UNL     1      42.813 -14.576   3.574  1.00  0.00    -0.035 A 
HETATM    9  C   UNL     1      42.479 -13.141   3.868  1.00  0.00     0.050 C 
HETATM   10  C   UNL     1      43.322 -15.330   4.651  1.00  0.00     0.010 A 
HETATM   11  C   UNL     1      43.583 -16.696   4.529  1.00  0.00     0.016 A 
HETATM   12  C   UNL     1      43.338 -17.353   3.324  1.00  0.00     0.019 A 
HETATM   13  C   UNL     1      42.858 -16.597   2.243  1.00  0.00     0.046 A 
BRANCH  12  14
HETATM   14  C   UNL     1      43.569 -18.784   3.153  1.00  0.00     0.179 A 
HETATM   15  O   UNL     1      43.276 -19.320   1.926  1.00  0.00    -0.302 OA
HETATM   16  C   UNL     1      43.588 -20.640   2.055  1.00  0.00     0.163 A 
HETATM   17  C   UNL     1      44.048 -20.842   3.330  1.00  0.00     0.144 A 
HETATM   18  N   UNL     1      44.037 -19.659   4.025  1.00  0.00    -0.234 NA
ENDBRANCH  12  14
ENDBRANCH   1   7
BRANCH   3  19
HETATM   19  C   UNL     1      39.626 -13.758  -1.322  1.00  0.00     0.164 C 
BRANCH  19  20
HETATM   20  C   UNL     1      39.048 -12.318  -1.222  1.00  0.00     0.261 C 
BRANCH  20  21
HETATM   21  N   UNL     1      37.945 -11.974  -2.227  1.00  0.00    -0.067 N 
HETATM   22  H   UNL     1      38.457 -11.613  -3.040  1.00  0.00     0.280 HD
HETATM   23  C   UNL     1      37.145 -13.122  -2.770  1.00  0.00     0.270 C 
HETATM   24  C   UNL     1      37.055 -10.852  -1.772  1.00  0.00     0.270 C 
ENDBRANCH  20  21
BRANCH  20  25
HETATM   25  C   UNL     1      40.130 -11.279  -1.157  1.00  0.00     0.085 A 
HETATM   26  O   UNL     1      40.616 -10.958   0.078  1.00  0.00    -0.325 OA
HETATM   27  C   UNL     1      41.570 -10.008  -0.102  1.00  0.00     0.142 A 
HETATM   28  C   UNL     1      41.705  -9.712  -1.437  1.00  0.00     0.027 A 
HETATM   29  C   UNL     1      40.776 -10.532  -2.122  1.00  0.00     0.037 A 
ENDBRANCH  20  25
ENDBRANCH  19  20
ENDBRANCH   3  19
TORSDOF 6
ENDMDL
MODEL 2
REMARK VINA RESULT:      -7.5      1.620      2.816
REMARK  6 active torsions:
REMARK  status: ('A' for Active; 'I' for Inactive)
REMARK    1  A    between atoms: C_3  and  N_4 
REMARK       I    between atoms: N_4  and  C_5 
REMARK       I    between atoms: C_5  and  N_6 
REMARK    2  A    between atoms: N_6  and  C_7 
REMARK    3  A    between atoms: C_7  and  C_8 
REMARK    4  A    between atoms: C_8  and  N_9 
REMARK    5  A    between atoms: C_8  and  C_13 
REMARK    6  A    between atoms: C_20  and  C_21 
ROOT
HETATM    1  N   UNL     1      42.646 -14.107   1.916  1.00  0.00    -0.309 N 
HETATM    2  C   UNL     1      41.418 -13.729   1.435  1.00  0.00     0.320 C 
HETATM    3  N   UNL     1      41.542 -12.932   0.319  1.00  0.00    -0.340 N 
HETATM    4  O   UNL     1      40.315 -14.029   1.869  1.00  0.00    -0.247 OA
HETATM    5  H   UNL     1      43.370 -13.424   1.737  1.00  0.00     0.170 HD
HETATM    6  H   UNL     1      42.462 -12.782  -0.080  1.00  0.00     0.164 HD
ENDROOT
BRANCH   1   7
HETATM    7  C   UNL     1      42.919 -14.974   3.003  1.00  0.00     0.043 A 
HETATM    8  C   UNL     1      43.014 -14.611   4.356  1.00  0.00    -0.035 A 
HETATM    9  C   UNL     1      42.753 -13.236   4.903  1.00  0.00     0.050 C 
HETATM   10  C   UNL     1      43.349 -15.604   5.300  1.00  0.00     0.010 A 
HETATM   11  C   UNL     1      43.524 -16.938   4.929  1.00  0.00     0.016 A 
HETATM   12  C   UNL     1      43.364 -17.323   3.599  1.00  0.00     0.019 A 
HETATM   13  C   UNL     1      43.058 -16.331   2.653  1.00  0.00     0.046 A 
BRANCH  12  14
HETATM   14  C   UNL     1      43.510 -18.708   3.163  1.00  0.00     0.179 A 
HETATM   15  O   UNL     1      43.932 -19.616   4.100  1.00  0.00    -0.302 OA
HETATM   16  C   UNL     1      43.971 -20.798   3.425  1.00  0.00     0.163 A 
HETATM   17  C   UNL     1      43.576 -20.562   2.134  1.00  0.00     0.144 A 
HETATM   18  N   UNL     1      43.282 -19.232   1.971  1.00  0.00    -0.234 NA
ENDBRANCH  12  14
ENDBRANCH   1   7
BRANCH   3  19
HETATM   19  C   UNL     1      40.408 -12.227  -0.261  1.00  0.00     0.164 C 
BRANCH  19  20
HETATM   20  C   UNL     1      40.253 -12.293  -1.807  1.00  0.00     0.261 C 
BRANCH  20  21
HETATM   21  N   UNL     1      39.744 -11.014  -2.478  1.00  0.00    -0.067 N 
HETATM   22  H   UNL     1      38.963 -11.336  -3.060  1.00  0.00     0.280 HD
HETATM   23  C   UNL     1      39.136  -9.976  -1.580  1.00  0.00     0.270 C 
HETATM   24  C   UNL     1      40.738 -10.404  -3.425  1.00  0.00     0.270 C 
ENDBRANCH  20  21
BRANCH  20  25
HETATM   25  C   UNL     1      39.515 -13.523  -2.248  1.00  0.00     0.085 A 
HETATM   26  O   UNL     1      38.978 -13.514  -3.503  1.00  0.00    -0.325 OA
HETATM   27  C   UNL     1      38.362 -14.712  -3.684  1.00  0.00     0.142 A 
HETATM   28  C   UNL     1      38.495 -15.492  -2.561  1.00  0.00     0.027 A 
HETATM   29  C   UNL     1      39.240 -14.727  -1.630  1.00  0.00     0.037 A 
ENDBRANCH  20  25
ENDBRANCH  19  20
ENDBRANCH   3  19
TORSDOF 6
ENDMDL
MODEL 3
REMARK VINA RESULT:      -7.4      1.493      1.875
REMARK  6 active torsions:
REMARK  status: ('A' for Active; 'I' for Inactive)
REMARK    1  A    between atoms: C_3  and  N_4 
REMARK       I    between atoms: N_4  and  C_5 
REMARK       I    between atoms: C_5  and  N_6 
REMARK    2  A    between atoms: N_6  and  C_7 
REMARK    3  A    between atoms: C_7  and  C_8 
REMARK    4  A    between atoms: C_8  and  N_9 
REMARK    5  A    between atoms: C_8  and  C_13 
REMARK    6  A    between atoms: C_20  and  C_21 
ROOT
HETATM    1  N   UNL     1      42.407 -14.942   1.751  1.00  0.00    -0.309 N 
HETATM    2  C   UNL     1      41.136 -14.908   1.235  1.00  0.00     0.320 C 
HETATM    3  N   UNL     1      41.132 -14.418  -0.052  1.00  0.00    -0.340 N 
HETATM    4  O   UNL     1      40.097 -15.262   1.773  1.00  0.00    -0.247 OA
HETATM    5  H   UNL     1      43.009 -14.221   1.375  1.00  0.00     0.170 HD
HETATM    6  H   UNL     1      42.016 -14.229  -0.510  1.00  0.00     0.164 HD
ENDROOT
BRANCH   1   7
HETATM    7  C   UNL     1      42.816 -15.441   3.013  1.00  0.00     0.043 A 
HETATM    8  C   UNL     1      42.951 -14.701   4.198  1.00  0.00    -0.035 A 
HETATM    9  C   UNL     1      42.599 -13.249   4.355  1.00  0.00     0.050 C 
HETATM   10  C   UNL     1      43.424 -15.356   5.354  1.00  0.00     0.010 A 
HETATM   11  C   UNL     1      43.697 -16.725   5.359  1.00  0.00     0.016 A 
HETATM   12  C   UNL     1      43.500 -17.484   4.207  1.00  0.00     0.019 A 
HETATM   13  C   UNL     1      43.056 -16.829   3.048  1.00  0.00     0.046 A 
BRANCH  12  14
HETATM   14  C   UNL     1      43.744 -18.923   4.168  1.00  0.00     0.179 A 
HETATM   15  O   UNL     1      44.016 -19.543   5.360  1.00  0.00    -0.302 OA
HETATM   16  C   UNL     1      44.193 -20.850   5.024  1.00  0.00     0.163 A 
HETATM   17  C   UNL     1      44.023 -20.966   3.669  1.00  0.00     0.144 A 
HETATM   18  N   UNL     1      43.736 -19.738   3.127  1.00  0.00    -0.234 NA
ENDBRANCH  12  14
ENDBRANCH   1   7
BRANCH   3  19
HETATM   19  C   UNL     1      39.900 -14.083  -0.750  1.00  0.00     0.164 C 
BRANCH  19  20
HETATM   20  C   UNL     1      39.464 -12.590  -0.731  1.00  0.00     0.261 C 
BRANCH  20  21
HETATM   21  N   UNL     1      39.645 -11.830  -2.048  1.00  0.00    -0.067 N 
HETATM   22  H   UNL     1      40.018 -10.919  -1.756  1.00  0.00     0.280 HD
HETATM   23  C   UNL     1      40.672 -12.366  -3.002  1.00  0.00     0.270 C 
HETATM   24  C   UNL     1      38.348 -11.536  -2.747  1.00  0.00     0.270 C 
ENDBRANCH  20  21
BRANCH  20  25
HETATM   25  C   UNL     1      40.019 -11.856   0.454  1.00  0.00     0.085 A 
HETATM   26  O   UNL     1      41.320 -11.446   0.385  1.00  0.00    -0.325 OA
HETATM   27  C   UNL     1      41.605 -10.816   1.553  1.00  0.00     0.142 A 
HETATM   28  C   UNL     1      40.505 -10.813   2.376  1.00  0.00     0.027 A 
HETATM   29  C   UNL     1      39.477 -11.484   1.669  1.00  0.00     0.037 A 
ENDBRANCH  20  25
ENDBRANCH  19  20
ENDBRANCH   3  19
TORSDOF 6
ENDMDL
MODEL 4
REMARK VINA RESULT:      -7.3      6.053      9.413
REMARK  6 active torsions:
REMARK  status: ('A' for Active; 'I' for Inactive)
REMARK    1  A    between atoms: C_3  and  N_4 
REMARK       I    between atoms: N_4  and  C_5 
REMARK       I    between atoms: C_5  and  N_6 
REMARK    2  A    between atoms: N_6  and  C_7 
REMARK    3  A    between atoms: C_7  and  C_8 
REMARK    4  A    between atoms: C_8  and  N_9 
REMARK    5  A    between atoms: C_8  and  C_13 
REMARK    6  A    between atoms: C_20  and  C_21 
ROOT
HETATM    1  N   UNL     1      43.624 -12.356   7.517  1.00  0.00    -0.309 N 
HETATM    2  C   UNL     1      42.808 -12.481   6.421  1.00  0.00     0.320 C 
HETATM    3  N   UNL     1      42.213 -13.722   6.381  1.00  0.00    -0.340 N 
HETATM    4  O   UNL     1      42.573 -11.647   5.559  1.00  0.00    -0.247 OA
HETATM    5  H   UNL     1      44.032 -13.234   7.812  1.00  0.00     0.170 HD
HETATM    6  H   UNL     1      42.344 -14.357   7.160  1.00  0.00     0.164 HD
ENDROOT
BRANCH   1   7
HETATM    7  C   UNL     1      44.349 -11.210   7.929  1.00  0.00     0.043 A 
HETATM    8  C   UNL     1      45.544 -10.732   7.368  1.00  0.00    -0.035 A 
HETATM    9  C   UNL     1      46.225 -11.313   6.161  1.00  0.00     0.050 C 
HETATM   10  C   UNL     1      46.157  -9.602   7.945  1.00  0.00     0.010 A 
HETATM   11  C   UNL     1      45.573  -8.916   9.012  1.00  0.00     0.016 A 
HETATM   12  C   UNL     1      44.351  -9.340   9.533  1.00  0.00     0.019 A 
HETATM   13  C   UNL     1      43.754 -10.482   8.978  1.00  0.00     0.046 A 
BRANCH  12  14
HETATM   14  C   UNL     1      43.686  -8.644  10.630  1.00  0.00     0.179 A 
HETATM   15  O   UNL     1      43.054  -7.465  10.329  1.00  0.00    -0.302 OA
HETATM   16  C   UNL     1      42.531  -7.053  11.517  1.00  0.00     0.163 A 
HETATM   17  C   UNL     1      42.861  -7.983  12.469  1.00  0.00     0.144 A 
HETATM   18  N   UNL     1      43.594  -8.994  11.901  1.00  0.00    -0.234 NA
ENDBRANCH  12  14
ENDBRANCH   1   7
BRANCH   3  19
HETATM   19  C   UNL     1      41.470 -14.188   5.219  1.00  0.00     0.164 C 
BRANCH  19  20
HETATM   20  C   UNL     1      42.302 -14.644   3.987  1.00  0.00     0.261 C 
BRANCH  20  21
HETATM   21  N   UNL     1      41.559 -14.643   2.648  1.00  0.00    -0.067 N 
HETATM   22  H   UNL     1      42.054 -15.351   2.093  1.00  0.00     0.280 HD
HETATM   23  C   UNL     1      40.134 -15.114   2.666  1.00  0.00     0.270 C 
HETATM   24  C   UNL     1      41.701 -13.354   1.890  1.00  0.00     0.270 C 
ENDBRANCH  20  21
BRANCH  20  25
HETATM   25  C   UNL     1      43.044 -15.921   4.248  1.00  0.00     0.085 A 
HETATM   26  O   UNL     1      43.674 -16.045   5.454  1.00  0.00    -0.325 OA
HETATM   27  C   UNL     1      44.275 -17.263   5.469  1.00  0.00     0.142 A 
HETATM   28  C   UNL     1      44.042 -17.926   4.289  1.00  0.00     0.027 A 
HETATM   29  C   UNL     1      43.246 -17.063   3.497  1.00  0.00     0.037 A 
ENDBRANCH  20  25
ENDBRANCH  19  20
ENDBRANCH   3  19
TORSDOF 6
ENDMDL
MODEL 5
REMARK VINA RESULT:      -7.1      5.388      7.914
REMARK  6 active torsions:
REMARK  status: ('A' for Active; 'I' for Inactive)
REMARK    1  A    between atoms: C_3  and  N_4 
REMARK       I    between atoms: N_4  and  C_5 
REMARK       I    between atoms: C_5  and  N_6 
REMARK    2  A    between atoms: N_6  and  C_7 
REMARK    3  A    between atoms: C_7  and  C_8 
REMARK    4  A    between atoms: C_8  and  N_9 
REMARK    5  A    between atoms: C_8  and  C_13 
REMARK    6  A    between atoms: C_20  and  C_21 
ROOT
HETATM    1  N   UNL     1      42.994 -13.210   6.300  1.00  0.00    -0.309 N 
HETATM    2  C   UNL     1      43.985 -12.428   6.839  1.00  0.00     0.320 C 
HETATM    3  N   UNL     1      43.558 -11.803   7.990  1.00  0.00    -0.340 N 
HETATM    4  O   UNL     1      45.124 -12.267   6.426  1.00  0.00    -0.247 OA
HETATM    5  H   UNL     1      42.064 -12.861   6.491  1.00  0.00     0.170 HD
HETATM    6  H   UNL     1      42.645 -12.034   8.366  1.00  0.00     0.164 HD
ENDROOT
BRANCH   1   7
HETATM    7  C   UNL     1      43.079 -14.050   5.162  1.00  0.00     0.043 A 
HETATM    8  C   UNL     1      42.985 -13.649   3.820  1.00  0.00    -0.035 A 
HETATM    9  C   UNL     1      42.863 -12.228   3.350  1.00  0.00     0.050 C 
HETATM   10  C   UNL     1      43.038 -14.636   2.814  1.00  0.00     0.010 A 
HETATM   11  C   UNL     1      43.243 -15.983   3.120  1.00  0.00     0.016 A 
HETATM   12  C   UNL     1      43.407 -16.384   4.445  1.00  0.00     0.019 A 
HETATM   13  C   UNL     1      43.326 -15.407   5.449  1.00  0.00     0.046 A 
BRANCH  12  14
HETATM   14  C   UNL     1      43.650 -17.775   4.815  1.00  0.00     0.179 A 
HETATM   15  O   UNL     1      43.217 -18.176   6.053  1.00  0.00    -0.302 OA
HETATM   16  C   UNL     1      43.567 -19.490   6.120  1.00  0.00     0.163 A 
HETATM   17  C   UNL     1      44.185 -19.824   4.942  1.00  0.00     0.144 A 
HETATM   18  N   UNL     1      44.234 -18.731   4.114  1.00  0.00    -0.234 NA
ENDBRANCH  12  14
ENDBRANCH   1   7
BRANCH   3  19
HETATM   19  C   UNL     1      44.337 -10.760   8.640  1.00  0.00     0.164 C 
BRANCH  19  20
HETATM   20  C   UNL     1      43.543  -9.658   9.397  1.00  0.00     0.261 C 
BRANCH  20  21
HETATM   21  N   UNL     1      42.629 -10.152  10.522  1.00  0.00    -0.067 N 
HETATM   22  H   UNL     1      42.263 -11.043  10.167  1.00  0.00     0.280 HD
HETATM   23  C   UNL     1      43.289 -10.512  11.821  1.00  0.00     0.270 C 
HETATM   24  C   UNL     1      41.430  -9.274  10.742  1.00  0.00     0.270 C 
ENDBRANCH  20  21
BRANCH  20  25
HETATM   25  C   UNL     1      42.859  -8.709   8.457  1.00  0.00     0.085 A 
HETATM   26  O   UNL     1      42.094  -9.252   7.465  1.00  0.00    -0.325 OA
HETATM   27  C   UNL     1      41.582  -8.221   6.743  1.00  0.00     0.142 A 
HETATM   28  C   UNL     1      42.009  -7.020   7.256  1.00  0.00     0.027 A 
HETATM   29  C   UNL     1      42.834  -7.331   8.364  1.00  0.00     0.037 A 
ENDBRANCH  20  25
ENDBRANCH  19  20
ENDBRANCH   3  19
TORSDOF 6
ENDMDL
MODEL 6
REMARK VINA RESULT:      -7.1      4.896      7.458
REMARK  6 active torsions:
REMARK  status: ('A' for Active; 'I' for Inactive)
REMARK    1  A    between atoms: C_3  and  N_4 
REMARK       I    between atoms: N_4  and  C_5 
REMARK       I    between atoms: C_5  and  N_6 
REMARK    2  A    between atoms: N_6  and  C_7 
REMARK    3  A    between atoms: C_7  and  C_8 
REMARK    4  A    between atoms: C_8  and  N_9 
REMARK    5  A    between atoms: C_8  and  C_13 
REMARK    6  A    between atoms: C_20  and  C_21 
ROOT
HETATM    1  N   UNL     1      41.006 -13.331   5.344  1.00  0.00    -0.309 N 
HETATM    2  C   UNL     1      41.729 -12.169   5.436  1.00  0.00     0.320 C 
HETATM    3  N   UNL     1      41.573 -11.580   6.671  1.00  0.00    -0.340 N 
HETATM    4  O   UNL     1      42.451 -11.662   4.589  1.00  0.00    -0.247 OA
HETATM    5  H   UNL     1      40.169 -13.325   5.911  1.00  0.00     0.170 HD
HETATM    6  H   UNL     1      41.053 -12.072   7.389  1.00  0.00     0.164 HD
ENDROOT
BRANCH   1   7
HETATM    7  C   UNL     1      40.968 -14.242   4.258  1.00  0.00     0.043 A 
HETATM    8  C   UNL     1      40.141 -14.155   3.126  1.00  0.00    -0.035 A 
HETATM    9  C   UNL     1      39.203 -13.021   2.826  1.00  0.00     0.050 C 
HETATM   10  C   UNL     1      40.200 -15.187   2.167  1.00  0.00     0.010 A 
HETATM   11  C   UNL     1      41.099 -16.248   2.286  1.00  0.00     0.016 A 
HETATM   12  C   UNL     1      41.973 -16.308   3.370  1.00  0.00     0.019 A 
HETATM   13  C   UNL     1      41.897 -15.297   4.341  1.00  0.00     0.046 A 
BRANCH  12  14
HETATM   14  C   UNL     1      42.950 -17.381   3.528  1.00  0.00     0.179 A 
HETATM   15  O   UNL     1      43.113 -18.237   2.470  1.00  0.00    -0.302 OA
HETATM   16  C   UNL     1      44.068 -19.112   2.892  1.00  0.00     0.163 A 
HETATM   17  C   UNL     1      44.437 -18.755   4.163  1.00  0.00     0.144 A 
HETATM   18  N   UNL     1      43.725 -17.652   4.564  1.00  0.00    -0.234 NA
ENDBRANCH  12  14
ENDBRANCH   1   7
BRANCH   3  19
HETATM   19  C   UNL     1      42.060 -10.239   6.958  1.00  0.00     0.164 C 
BRANCH  19  20
HETATM   20  C   UNL     1      42.788 -10.029   8.316  1.00  0.00     0.261 C 
BRANCH  20  21
HETATM   21  N   UNL     1      42.173  -8.977   9.243  1.00  0.00    -0.067 N 
HETATM   22  H   UNL     1      42.668  -8.113   8.997  1.00  0.00     0.280 HD
HETATM   23  C   UNL     1      40.724  -8.650   9.027  1.00  0.00     0.270 C 
HETATM   24  C   UNL     1      42.468  -9.220  10.696  1.00  0.00     0.270 C 
ENDBRANCH  20  21
BRANCH  20  25
HETATM   25  C   UNL     1      44.270  -9.866   8.142  1.00  0.00     0.085 A 
HETATM   26  O   UNL     1      44.961 -10.929   7.634  1.00  0.00    -0.325 OA
HETATM   27  C   UNL     1      46.268 -10.562   7.569  1.00  0.00     0.142 A 
HETATM   28  C   UNL     1      46.428  -9.278   8.029  1.00  0.00     0.027 A 
HETATM   29  C   UNL     1      45.139  -8.824   8.400  1.00  0.00     0.037 A 
ENDBRANCH  20  25
ENDBRANCH  19  20
ENDBRANCH   3  19
TORSDOF 6
ENDMDL
MODEL 7
REMARK VINA RESULT:      -6.9      5.082      8.386
REMARK  6 active torsions:
REMARK  status: ('A' for Active; 'I' for Inactive)
REMARK    1  A    between atoms: C_3  and  N_4 
REMARK       I    between atoms: N_4  and  C_5 
REMARK       I    between atoms: C_5  and  N_6 
REMARK    2  A    between atoms: N_6  and  C_7 
REMARK    3  A    between atoms: C_7  and  C_8 
REMARK    4  A    between atoms: C_8  and  N_9 
REMARK    5  A    between atoms: C_8  and  C_13 
REMARK    6  A    between atoms: C_20  and  C_21 
ROOT
HETATM    1  N   UNL     1      40.494 -12.816   5.509  1.00  0.00    -0.309 N 
HETATM    2  C   UNL     1      41.530 -12.011   5.912  1.00  0.00     0.320 C 
HETATM    3  N   UNL     1      41.099 -11.050   6.800  1.00  0.00    -0.340 N 
HETATM    4  O   UNL     1      42.707 -12.081   5.589  1.00  0.00    -0.247 OA
HETATM    5  H   UNL     1      39.601 -12.341   5.502  1.00  0.00     0.170 HD
HETATM    6  H   UNL     1      40.141 -11.078   7.130  1.00  0.00     0.164 HD
ENDROOT
BRANCH   1   7
HETATM    7  C   UNL     1      40.559 -13.947   4.657  1.00  0.00     0.043 A 
HETATM    8  C   UNL     1      40.786 -15.276   5.051  1.00  0.00    -0.035 A 
HETATM    9  C   UNL     1      40.916 -15.746   6.472  1.00  0.00     0.050 C 
HETATM   10  C   UNL     1      40.873 -16.270   4.055  1.00  0.00     0.010 A 
HETATM   11  C   UNL     1      40.677 -15.973   2.705  1.00  0.00     0.016 A 
HETATM   12  C   UNL     1      40.381 -14.670   2.309  1.00  0.00     0.019 A 
HETATM   13  C   UNL     1      40.323 -13.674   3.296  1.00  0.00     0.046 A 
BRANCH  12  14
HETATM   14  C   UNL     1      40.141 -14.312   0.914  1.00  0.00     0.179 A 
HETATM   15  O   UNL     1      40.306 -12.995   0.571  1.00  0.00    -0.302 OA
HETATM   16  C   UNL     1      40.026 -12.960  -0.762  1.00  0.00     0.163 A 
HETATM   17  C   UNL     1      39.710 -14.233  -1.161  1.00  0.00     0.144 A 
HETATM   18  N   UNL     1      39.787 -15.091  -0.093  1.00  0.00    -0.234 NA
ENDBRANCH  12  14
ENDBRANCH   1   7
BRANCH   3  19
HETATM   19  C   UNL     1      41.949  -9.944   7.217  1.00  0.00     0.164 C 
BRANCH  19  20
HETATM   20  C   UNL     1      42.794 -10.154   8.505  1.00  0.00     0.261 C 
BRANCH  20  21
HETATM   21  N   UNL     1      42.281  -9.441   9.760  1.00  0.00    -0.067 N 
HETATM   22  H   UNL     1      42.719  -8.515   9.713  1.00  0.00     0.280 HD
HETATM   23  C   UNL     1      40.808  -9.154   9.818  1.00  0.00     0.270 C 
HETATM   24  C   UNL     1      42.768 -10.062  11.038  1.00  0.00     0.270 C 
ENDBRANCH  20  21
BRANCH  20  25
HETATM   25  C   UNL     1      44.259  -9.933   8.261  1.00  0.00     0.085 A 
HETATM   26  O   UNL     1      44.976 -10.983   7.762  1.00  0.00    -0.325 OA
HETATM   27  C   UNL     1      46.260 -10.563   7.627  1.00  0.00     0.142 A 
HETATM   28  C   UNL     1      46.381  -9.256   8.033  1.00  0.00     0.027 A 
HETATM   29  C   UNL     1      45.089  -8.845   8.444  1.00  0.00     0.037 A 
ENDBRANCH  20  25
ENDBRANCH  19  20
ENDBRANCH   3  19
TORSDOF 6
ENDMDL
MODEL 8
REMARK VINA RESULT:      -6.9      1.659      2.315
REMARK  6 active torsions:
REMARK  status: ('A' for Active; 'I' for Inactive)
REMARK    1  A    between atoms: C_3  and  N_4 
REMARK       I    between atoms: N_4  and  C_5 
REMARK       I    between atoms: C_5  and  N_6 
REMARK    2  A    between atoms: N_6  and  C_7 
REMARK    3  A    between atoms: C_7  and  C_8 
REMARK    4  A    between atoms: C_8  and  N_9 
REMARK    5  A    between atoms: C_8  and  C_13 
REMARK    6  A    between atoms: C_20  and  C_21 
ROOT
HETATM    1  N   UNL     1      42.386 -14.126   2.045  1.00  0.00    -0.309 N 
HETATM    2  C   UNL     1      41.115 -13.723   1.723  1.00  0.00     0.320 C 
HETATM    3  N   UNL     1      41.110 -12.939   0.591  1.00  0.00    -0.340 N 
HETATM    4  O   UNL     1      40.072 -13.993   2.301  1.00  0.00    -0.247 OA
HETATM    5  H   UNL     1      43.096 -13.463   1.764  1.00  0.00     0.170 HD
HETATM    6  H   UNL     1      41.973 -12.815   0.074  1.00  0.00     0.164 HD
ENDROOT
BRANCH   1   7
HETATM    7  C   UNL     1      42.780 -14.990   3.097  1.00  0.00     0.043 A 
HETATM    8  C   UNL     1      42.984 -14.630   4.439  1.00  0.00    -0.035 A 
HETATM    9  C   UNL     1      42.734 -13.266   5.016  1.00  0.00     0.050 C 
HETATM   10  C   UNL     1      43.430 -15.617   5.342  1.00  0.00     0.010 A 
HETATM   11  C   UNL     1      43.609 -16.944   4.948  1.00  0.00     0.016 A 
HETATM   12  C   UNL     1      43.343 -17.327   3.634  1.00  0.00     0.019 A 
HETATM   13  C   UNL     1      42.926 -16.341   2.727  1.00  0.00     0.046 A 
BRANCH  12  14
HETATM   14  C   UNL     1      43.489 -18.706   3.177  1.00  0.00     0.179 A 
HETATM   15  O   UNL     1      43.922 -19.625   4.097  1.00  0.00    -0.302 OA
HETATM   16  C   UNL     1      43.958 -20.798   3.406  1.00  0.00     0.163 A 
HETATM   17  C   UNL     1      43.552 -20.544   2.121  1.00  0.00     0.144 A 
HETATM   18  N   UNL     1      43.252 -19.213   1.980  1.00  0.00    -0.234 NA
ENDBRANCH  12  14
ENDBRANCH   1   7
BRANCH   3  19
HETATM   19  C   UNL     1      39.926 -12.212   0.156  1.00  0.00     0.164 C 
BRANCH  19  20
HETATM   20  C   UNL     1      39.065 -12.873  -0.957  1.00  0.00     0.261 C 
BRANCH  20  21
HETATM   21  N   UNL     1      39.803 -13.851  -1.875  1.00  0.00    -0.067 N 
HETATM   22  H   UNL     1      40.488 -14.299  -1.256  1.00  0.00     0.280 HD
HETATM   23  C   UNL     1      39.001 -14.992  -2.431  1.00  0.00     0.270 C 
HETATM   24  C   UNL     1      40.604 -13.171  -2.949  1.00  0.00     0.270 C 
ENDBRANCH  20  21
BRANCH  20  25
HETATM   25  C   UNL     1      38.246 -11.865  -1.709  1.00  0.00     0.085 A 
HETATM   26  O   UNL     1      38.620 -10.555  -1.611  1.00  0.00    -0.325 OA
HETATM   27  C   UNL     1      37.746  -9.832  -2.359  1.00  0.00     0.142 A 
HETATM   28  C   UNL     1      36.814 -10.658  -2.938  1.00  0.00     0.027 A 
HETATM   29  C   UNL     1      37.133 -11.973  -2.520  1.00  0.00     0.037 A 
ENDBRANCH  20  25
ENDBRANCH  19  20
ENDBRANCH   3  19
TORSDOF 6
ENDMDL
MODEL 9
REMARK VINA RESULT:      -6.9      1.927      2.877
REMARK  6 active torsions:
REMARK  status: ('A' for Active; 'I' for Inactive)
REMARK    1  A    between atoms: C_3  and  N_4 
REMARK       I    between atoms: N_4  and  C_5 
REMARK       I    between atoms: C_5  and  N_6 
REMARK    2  A    between atoms: N_6  and  C_7 
REMARK    3  A    between atoms: C_7  and  C_8 
REMARK    4  A    between atoms: C_8  and  N_9 
REMARK    5  A    between atoms: C_8  and  C_13 
REMARK    6  A    between atoms: C_20  and  C_21 
ROOT
HETATM    1  N   UNL     1      42.625 -14.664   2.636  1.00  0.00    -0.309 N 
HETATM    2  C   UNL     1      41.411 -14.784   2.007  1.00  0.00     0.320 C 
HETATM    3  N   UNL     1      41.390 -14.082   0.823  1.00  0.00    -0.340 N 
HETATM    4  O   UNL     1      40.435 -15.423   2.373  1.00  0.00    -0.247 OA
HETATM    5  H   UNL     1      43.086 -13.784   2.444  1.00  0.00     0.170 HD
HETATM    6  H   UNL     1      42.243 -13.647   0.493  1.00  0.00     0.164 HD
ENDROOT
BRANCH   1   7
HETATM    7  C   UNL     1      43.044 -15.292   3.835  1.00  0.00     0.043 A 
HETATM    8  C   UNL     1      43.252 -14.667   5.075  1.00  0.00    -0.035 A 
HETATM    9  C   UNL     1      42.979 -13.219   5.370  1.00  0.00     0.050 C 
HETATM   10  C   UNL     1      43.725 -15.444   6.152  1.00  0.00     0.010 A 
HETATM   11  C   UNL     1      43.927 -16.820   6.029  1.00  0.00     0.016 A 
HETATM   12  C   UNL     1      43.657 -17.464   4.823  1.00  0.00     0.019 A 
HETATM   13  C   UNL     1      43.214 -16.687   3.741  1.00  0.00     0.046 A 
BRANCH  12  14
HETATM   14  C   UNL     1      43.827 -18.903   4.649  1.00  0.00     0.179 A 
HETATM   15  O   UNL     1      43.903 -19.664   5.788  1.00  0.00    -0.302 OA
HETATM   16  C   UNL     1      44.052 -20.937   5.329  1.00  0.00     0.163 A 
HETATM   17  C   UNL     1      44.059 -20.895   3.958  1.00  0.00     0.144 A 
HETATM   18  N   UNL     1      43.914 -19.600   3.530  1.00  0.00    -0.234 NA
ENDBRANCH  12  14
ENDBRANCH   1   7
BRANCH   3  19
HETATM   19  C   UNL     1      40.163 -13.872   0.068  1.00  0.00     0.164 C 
BRANCH  19  20
HETATM   20  C   UNL     1      39.742 -12.399  -0.195  1.00  0.00     0.261 C 
BRANCH  20  21
HETATM   21  N   UNL     1      39.485 -11.549   1.052  1.00  0.00    -0.067 N 
HETATM   22  H   UNL     1      38.839 -10.821   0.725  1.00  0.00     0.280 HD
HETATM   23  C   UNL     1      38.755 -12.213   2.184  1.00  0.00     0.270 C 
HETATM   24  C   UNL     1      40.707 -10.824   1.540  1.00  0.00     0.270 C 
ENDBRANCH  20  21
BRANCH  20  25
HETATM   25  C   UNL     1      38.643 -12.299  -1.212  1.00  0.00     0.085 A 
HETATM   26  O   UNL     1      38.189 -13.464  -1.761  1.00  0.00    -0.325 OA
HETATM   27  C   UNL     1      37.211 -13.137  -2.645  1.00  0.00     0.142 A 
HETATM   28  C   UNL     1      37.029 -11.776  -2.675  1.00  0.00     0.027 A 
HETATM   29  C   UNL     1      37.953 -11.230  -1.750  1.00  0.00     0.037 A 
ENDBRANCH  20  25
ENDBRANCH  19  20
ENDBRANCH   3  19
TORSDOF 6
ENDMDL
MODEL 10
REMARK VINA RESULT:      -6.8      2.086      8.695
REMARK  6 active torsions:
REMARK  status: ('A' for Active; 'I' for Inactive)
REMARK    1  A    between atoms: C_3  and  N_4 
REMARK       I    between atoms: N_4  and  C_5 
REMARK       I    between atoms: C_5  and  N_6 
REMARK    2  A    between atoms: N_6  and  C_7 
REMARK    3  A    between atoms: C_7  and  C_8 
REMARK    4  A    between atoms: C_8  and  N_9 
REMARK    5  A    between atoms: C_8  and  C_13 
REMARK    6  A    between atoms: C_20  and  C_21 
ROOT
HETATM    1  N   UNL     1      40.565 -13.660  -0.831  1.00  0.00    -0.309 N 
HETATM    2  C   UNL     1      40.181 -13.996   0.442  1.00  0.00     0.320 C 
HETATM    3  N   UNL     1      40.821 -15.138   0.872  1.00  0.00    -0.340 N 
HETATM    4  O   UNL     1      39.397 -13.407   1.172  1.00  0.00    -0.247 OA
HETATM    5  H   UNL     1      40.819 -14.462  -1.394  1.00  0.00     0.170 HD
HETATM    6  H   UNL     1      41.541 -15.548   0.289  1.00  0.00     0.164 HD
ENDROOT
BRANCH   1   7
HETATM    7  C   UNL     1      40.175 -12.522  -1.581  1.00  0.00     0.043 A 
HETATM    8  C   UNL     1      39.010 -12.392  -2.354  1.00  0.00    -0.035 A 
HETATM    9  C   UNL     1      37.920 -13.420  -2.454  1.00  0.00     0.050 C 
HETATM   10  C   UNL     1      38.811 -11.200  -3.080  1.00  0.00     0.010 A 
HETATM   11  C   UNL     1      39.707 -10.133  -2.996  1.00  0.00     0.016 A 
HETATM   12  C   UNL     1      40.832 -10.224  -2.177  1.00  0.00     0.019 A 
HETATM   13  C   UNL     1      41.046 -11.421  -1.475  1.00  0.00     0.046 A 
BRANCH  12  14
HETATM   14  C   UNL     1      41.785  -9.128  -2.033  1.00  0.00     0.179 A 
HETATM   15  O   UNL     1      41.781  -8.166  -3.009  1.00  0.00    -0.302 OA
HETATM   16  C   UNL     1      42.747  -7.289  -2.618  1.00  0.00     0.163 A 
HETATM   17  C   UNL     1      43.284  -7.748  -1.443  1.00  0.00     0.144 A 
HETATM   18  N   UNL     1      42.668  -8.917  -1.073  1.00  0.00    -0.234 NA
ENDBRANCH  12  14
ENDBRANCH   1   7
BRANCH   3  19
HETATM   19  C   UNL     1      40.440 -15.824   2.098  1.00  0.00     0.164 C 
BRANCH  19  20
HETATM   20  C   UNL     1      41.418 -15.709   3.302  1.00  0.00     0.261 C 
BRANCH  20  21
HETATM   21  N   UNL     1      42.027 -14.323   3.532  1.00  0.00    -0.067 N 
HETATM   22  H   UNL     1      41.354 -13.683   3.093  1.00  0.00     0.280 HD
HETATM   23  C   UNL     1      42.115 -13.851   4.954  1.00  0.00     0.270 C 
HETATM   24  C   UNL     1      43.325 -14.115   2.805  1.00  0.00     0.270 C 
ENDBRANCH  20  21
BRANCH  20  25
HETATM   25  C   UNL     1      42.439 -16.808   3.307  1.00  0.00     0.085 A 
HETATM   26  O   UNL     1      43.052 -17.090   4.495  1.00  0.00    -0.325 OA
HETATM   27  C   UNL     1      43.928 -18.102   4.264  1.00  0.00     0.142 A 
HETATM   28  C   UNL     1      43.889 -18.476   2.943  1.00  0.00     0.027 A 
HETATM   29  C   UNL     1      42.928 -17.643   2.321  1.00  0.00     0.037 A 
ENDBRANCH  20  25
ENDBRANCH  19  20
ENDBRANCH   3  19
TORSDOF 6
ENDMDL
