MODEL 1
REMARK VINA RESULT:      -9.3      0.000      0.000
REMARK  6 active torsions:
REMARK  status: ('A' for Active; 'I' for Inactive)
REMARK    1  A    between atoms: O_2  and  C_3 
REMARK    2  A    between atoms: C_6  and  C_7 
REMARK    3  A    between atoms: C_7  and  N_8 
REMARK       I    between atoms: N_8  and  C_9 
REMARK    4  A    between atoms: C_9  and  C_10 
REMARK    5  A    between atoms: C_13  and  C_14 
REMARK    6  A    between atoms: C_19  and  C_20 
ROOT
HETATM    1  C   UNL     1      43.102 -11.992   3.612  1.00  0.00     0.096 A 
HETATM    2  C   UNL     1      42.618 -13.218   3.196  1.00  0.00     0.138 A 
HETATM    3  N   UNL     1      41.517 -12.944   2.414  1.00  0.00    -0.240 N 
HETATM    4  C   UNL     1      40.655 -13.955   1.828  1.00  0.00     0.221 C 
HETATM    5  C   UNL     1      41.342 -15.333   1.841  1.00  0.00     0.066 C 
HETATM    6  C   UNL     1      42.024 -15.571   3.193  1.00  0.00     0.118 C 
HETATM    7  N   UNL     1      42.999 -14.502   3.437  1.00  0.00    -0.365 N 
HETATM    8  N   UNL     1      41.164 -11.650   2.427  1.00  0.00    -0.181 NA
HETATM    9  C   UNL     1      42.145 -11.068   3.124  1.00  0.00     0.160 A 
HETATM   10  H   UNL     1      43.557 -14.685   4.274  1.00  0.00     0.161 HD
ENDROOT
BRANCH   1  11
HETATM   11  C   UNL     1      44.266 -11.674   4.417  1.00  0.00     0.257 C 
HETATM   12  N   UNL     1      44.102 -11.867   5.769  1.00  0.00    -0.352 N 
HETATM   13  H   UNL     1      43.287 -12.381   6.079  1.00  0.00     0.163 HD
HETATM   14  O   UNL     1      45.313 -11.284   3.914  1.00  0.00    -0.267 OA
BRANCH  12  15
HETATM   15  C   UNL     1      45.156 -11.596   6.717  1.00  0.00     0.161 C 
BRANCH  15  16
HETATM   16  C   UNL     1      44.737 -10.615   7.782  1.00  0.00    -0.040 A 
HETATM   17  C   UNL     1      43.479 -10.001   7.741  1.00  0.00     0.011 A 
HETATM   18  C   UNL     1      43.075  -9.140   8.764  1.00  0.00     0.037 A 
HETATM   19  C   UNL     1      43.907  -8.892   9.856  1.00  0.00     0.068 A 
HETATM   20  C   UNL     1      45.167  -9.488   9.901  1.00  0.00     0.037 A 
HETATM   21  C   UNL     1      45.577 -10.345   8.872  1.00  0.00     0.011 A 
BRANCH  19  22
HETATM   22  O   UNL     1      43.385  -8.054  10.803  1.00  0.00    -0.356 OA
HETATM   23  C   UNL     1      43.428  -8.513  12.148  1.00  0.00     0.210 C 
ENDBRANCH  19  22
ENDBRANCH  15  16
ENDBRANCH  12  15
ENDBRANCH   1  11
BRANCH   4  24
HETATM   24  C   UNL     1      40.253 -13.603   0.411  1.00  0.00     0.409 C 
HETATM   25  F   UNL     1      41.239 -12.967  -0.262  1.00  0.00    -0.169 F 
HETATM   26  F   UNL     1      39.987 -14.744  -0.281  1.00  0.00    -0.169 F 
HETATM   27  F   UNL     1      39.135 -12.854   0.335  1.00  0.00    -0.169 F 
ENDBRANCH   4  24
BRANCH   6  28
HETATM   28  C   UNL     1      42.725 -16.914   3.250  1.00  0.00    -0.035 A 
HETATM   29  C   UNL     1      43.567 -17.255   4.321  1.00  0.00     0.009 A 
HETATM   30  C   UNL     1      44.216 -18.490   4.353  1.00  0.00     0.001 A 
HETATM   31  C   UNL     1      44.029 -19.402   3.319  1.00  0.00     0.000 A 
HETATM   32  C   UNL     1      43.192 -19.083   2.252  1.00  0.00     0.001 A 
HETATM   33  C   UNL     1      42.544 -17.846   2.216  1.00  0.00     0.009 A 
ENDBRANCH   6  28
TORSDOF 6
ENDMDL
MODEL 2
REMARK VINA RESULT:      -9.0      4.734      8.140
REMARK  6 active torsions:
REMARK  status: ('A' for Active; 'I' for Inactive)
REMARK    1  A    between atoms: O_2  and  C_3 
REMARK    2  A    between atoms: C_6  and  C_7 
REMARK    3  A    between atoms: C_7  and  N_8 
REMARK       I    between atoms: N_8  and  C_9 
REMARK    4  A    between atoms: C_9  and  C_10 
REMARK    5  A    between atoms: C_13  and  C_14 
REMARK    6  A    between atoms: C_19  and  C_20 
ROOT
HETATM    1  C   UNL     1      41.197 -14.491   2.400  1.00  0.00     0.096 A 
HETATM    2  C   UNL     1      41.979 -15.280   3.223  1.00  0.00     0.138 A 
HETATM    3  N   UNL     1      42.338 -14.480   4.285  1.00  0.00    -0.240 N 
HETATM    4  C   UNL     1      43.228 -14.890   5.358  1.00  0.00     0.221 C 
HETATM    5  C   UNL     1      43.384 -16.421   5.381  1.00  0.00     0.066 C 
HETATM    6  C   UNL     1      43.573 -16.956   3.958  1.00  0.00     0.118 C 
HETATM    7  N   UNL     1      42.421 -16.564   3.137  1.00  0.00    -0.365 N 
HETATM    8  N   UNL     1      41.980 -13.196   4.129  1.00  0.00    -0.181 NA
HETATM    9  C   UNL     1      41.259 -13.211   3.004  1.00  0.00     0.160 A 
HETATM   10  H   UNL     1      42.453 -16.997   2.212  1.00  0.00     0.161 HD
ENDROOT
BRANCH   1  11
HETATM   11  C   UNL     1      40.512 -14.823   1.166  1.00  0.00     0.257 C 
HETATM   12  N   UNL     1      40.758 -13.964   0.120  1.00  0.00    -0.352 N 
HETATM   13  H   UNL     1      41.518 -13.304   0.219  1.00  0.00     0.163 HD
HETATM   14  O   UNL     1      39.789 -15.808   1.074  1.00  0.00    -0.267 OA
BRANCH  12  15
HETATM   15  C   UNL     1      40.155 -14.143  -1.179  1.00  0.00     0.161 C 
BRANCH  15  16
HETATM   16  C   UNL     1      39.128 -13.084  -1.489  1.00  0.00    -0.040 A 
HETATM   17  C   UNL     1      38.070 -13.343  -2.371  1.00  0.00     0.011 A 
HETATM   18  C   UNL     1      37.089 -12.377  -2.605  1.00  0.00     0.037 A 
HETATM   19  C   UNL     1      37.131 -11.146  -1.952  1.00  0.00     0.068 A 
HETATM   20  C   UNL     1      38.187 -10.872  -1.083  1.00  0.00     0.037 A 
HETATM   21  C   UNL     1      39.176 -11.836  -0.852  1.00  0.00     0.011 A 
BRANCH  19  22
HETATM   22  O   UNL     1      36.099 -10.298  -2.246  1.00  0.00    -0.356 OA
HETATM   23  C   UNL     1      35.629 -10.314  -3.588  1.00  0.00     0.210 C 
ENDBRANCH  19  22
ENDBRANCH  15  16
ENDBRANCH  12  15
ENDBRANCH   1  11
BRANCH   4  24
HETATM   24  C   UNL     1      42.743 -14.408   6.708  1.00  0.00     0.409 C 
HETATM   25  F   UNL     1      41.396 -14.294   6.763  1.00  0.00    -0.169 F 
HETATM   26  F   UNL     1      43.092 -15.314   7.664  1.00  0.00    -0.169 F 
HETATM   27  F   UNL     1      43.286 -13.236   7.094  1.00  0.00    -0.169 F 
ENDBRANCH   4  24
BRANCH   6  28
HETATM   28  C   UNL     1      43.722 -18.464   3.929  1.00  0.00    -0.035 A 
HETATM   29  C   UNL     1      44.003 -19.193   5.097  1.00  0.00     0.009 A 
HETATM   30  C   UNL     1      44.150 -20.580   5.053  1.00  0.00     0.001 A 
HETATM   31  C   UNL     1      44.014 -21.258   3.845  1.00  0.00     0.000 A 
HETATM   32  C   UNL     1      43.729 -20.550   2.679  1.00  0.00     0.001 A 
HETATM   33  C   UNL     1      43.583 -19.162   2.720  1.00  0.00     0.009 A 
ENDBRANCH   6  28
TORSDOF 6
ENDMDL
MODEL 3
REMARK VINA RESULT:      -9.0      4.743      8.193
REMARK  6 active torsions:
REMARK  status: ('A' for Active; 'I' for Inactive)
REMARK    1  A    between atoms: O_2  and  C_3 
REMARK    2  A    between atoms: C_6  and  C_7 
REMARK    3  A    between atoms: C_7  and  N_8 
REMARK       I    between atoms: N_8  and  C_9 
REMARK    4  A    between atoms: C_9  and  C_10 
REMARK    5  A    between atoms: C_13  and  C_14 
REMARK    6  A    between atoms: C_19  and  C_20 
ROOT
HETATM    1  C   UNL     1      41.177 -14.458   2.369  1.00  0.00     0.096 A 
HETATM    2  C   UNL     1      41.957 -15.249   3.192  1.00  0.00     0.138 A 
HETATM    3  N   UNL     1      42.292 -14.460   4.270  1.00  0.00    -0.240 N 
HETATM    4  C   UNL     1      43.171 -14.874   5.349  1.00  0.00     0.221 C 
HETATM    5  C   UNL     1      43.345 -16.403   5.354  1.00  0.00     0.066 C 
HETATM    6  C   UNL     1      43.560 -16.917   3.927  1.00  0.00     0.118 C 
HETATM    7  N   UNL     1      42.415 -16.528   3.095  1.00  0.00    -0.365 N 
HETATM    8  N   UNL     1      41.921 -13.178   4.125  1.00  0.00    -0.181 NA
HETATM    9  C   UNL     1      41.215 -13.186   2.990  1.00  0.00     0.160 A 
HETATM   10  H   UNL     1      42.465 -16.947   2.165  1.00  0.00     0.161 HD
ENDROOT
BRANCH   1  11
HETATM   11  C   UNL     1      40.514 -14.782   1.121  1.00  0.00     0.257 C 
HETATM   12  N   UNL     1      40.772 -13.912   0.087  1.00  0.00    -0.352 N 
HETATM   13  H   UNL     1      41.527 -13.248   0.204  1.00  0.00     0.163 HD
HETATM   14  O   UNL     1      39.797 -15.769   1.007  1.00  0.00    -0.267 OA
BRANCH  12  15
HETATM   15  C   UNL     1      40.190 -14.080  -1.223  1.00  0.00     0.161 C 
BRANCH  15  16
HETATM   16  C   UNL     1      39.974 -12.768  -1.932  1.00  0.00    -0.040 A 
HETATM   17  C   UNL     1      41.021 -12.138  -2.617  1.00  0.00     0.011 A 
HETATM   18  C   UNL     1      40.797 -10.954  -3.323  1.00  0.00     0.037 A 
HETATM   19  C   UNL     1      39.523 -10.387  -3.377  1.00  0.00     0.068 A 
HETATM   20  C   UNL     1      38.477 -10.998  -2.688  1.00  0.00     0.037 A 
HETATM   21  C   UNL     1      38.701 -12.181  -1.973  1.00  0.00     0.011 A 
BRANCH  19  22
HETATM   22  O   UNL     1      39.430  -9.244  -4.122  1.00  0.00    -0.356 OA
HETATM   23  C   UNL     1      40.655  -8.675  -4.566  1.00  0.00     0.210 C 
ENDBRANCH  19  22
ENDBRANCH  15  16
ENDBRANCH  12  15
ENDBRANCH   1  11
BRANCH   4  24
HETATM   24  C   UNL     1      42.661 -14.416   6.699  1.00  0.00     0.409 C 
HETATM   25  F   UNL     1      43.043 -15.240   7.702  1.00  0.00    -0.169 F 
HETATM   26  F   UNL     1      43.180 -13.191   6.987  1.00  0.00    -0.169 F 
HETATM   27  F   UNL     1      41.321 -14.273   6.753  1.00  0.00    -0.169 F 
ENDBRANCH   4  24
BRANCH   6  28
HETATM   28  C   UNL     1      43.726 -18.422   3.880  1.00  0.00    -0.035 A 
HETATM   29  C   UNL     1      43.593 -19.137   2.678  1.00  0.00     0.009 A 
HETATM   30  C   UNL     1      43.736 -20.525   2.653  1.00  0.00     0.001 A 
HETATM   31  C   UNL     1      44.018 -21.217   3.827  1.00  0.00     0.000 A 
HETATM   32  C   UNL     1      44.159 -20.523   5.027  1.00  0.00     0.001 A 
HETATM   33  C   UNL     1      44.014 -19.135   5.055  1.00  0.00     0.009 A 
ENDBRANCH   6  28
TORSDOF 6
ENDMDL
MODEL 4
REMARK VINA RESULT:      -9.0      1.099      1.099
REMARK  6 active torsions:
REMARK  status: ('A' for Active; 'I' for Inactive)
REMARK    1  A    between atoms: O_2  and  C_3 
REMARK    2  A    between atoms: C_6  and  C_7 
REMARK    3  A    between atoms: C_7  and  N_8 
REMARK       I    between atoms: N_8  and  C_9 
REMARK    4  A    between atoms: C_9  and  C_10 
REMARK    5  A    between atoms: C_13  and  C_14 
REMARK    6  A    between atoms: C_19  and  C_20 
ROOT
HETATM    1  C   UNL     1      42.736 -12.771   4.845  1.00  0.00     0.096 A 
HETATM    2  C   UNL     1      42.382 -13.893   4.117  1.00  0.00     0.138 A 
HETATM    3  N   UNL     1      41.368 -13.493   3.275  1.00  0.00    -0.240 N 
HETATM    4  C   UNL     1      40.647 -14.380   2.379  1.00  0.00     0.221 C 
HETATM    5  C   UNL     1      41.412 -15.703   2.190  1.00  0.00     0.066 C 
HETATM    6  C   UNL     1      41.940 -16.207   3.537  1.00  0.00     0.118 C 
HETATM    7  N   UNL     1      42.810 -15.185   4.128  1.00  0.00    -0.365 N 
HETATM    8  N   UNL     1      40.937 -12.245   3.516  1.00  0.00    -0.181 NA
HETATM    9  C   UNL     1      41.789 -11.797   4.443  1.00  0.00     0.160 A 
HETATM   10  H   UNL     1      43.273 -15.527   4.972  1.00  0.00     0.161 HD
ENDROOT
BRANCH   1  11
HETATM   11  C   UNL     1      43.772 -12.598   5.843  1.00  0.00     0.257 C 
HETATM   12  N   UNL     1      44.319 -11.337   5.895  1.00  0.00    -0.352 N 
HETATM   13  H   UNL     1      43.847 -10.595   5.393  1.00  0.00     0.163 HD
HETATM   14  O   UNL     1      44.110 -13.510   6.589  1.00  0.00    -0.267 OA
BRANCH  12  15
HETATM   15  C   UNL     1      45.366 -10.991   6.827  1.00  0.00     0.161 C 
BRANCH  15  16
HETATM   16  C   UNL     1      44.842 -10.269   8.042  1.00  0.00    -0.040 A 
HETATM   17  C   UNL     1      43.535  -9.767   8.073  1.00  0.00     0.011 A 
HETATM   18  C   UNL     1      43.038  -9.154   9.226  1.00  0.00     0.037 A 
HETATM   19  C   UNL     1      43.825  -9.047  10.372  1.00  0.00     0.068 A 
HETATM   20  C   UNL     1      45.132  -9.531  10.347  1.00  0.00     0.037 A 
HETATM   21  C   UNL     1      45.636 -10.139   9.191  1.00  0.00     0.011 A 
BRANCH  19  22
HETATM   22  O   UNL     1      43.214  -8.451  11.441  1.00  0.00    -0.356 OA
HETATM   23  C   UNL     1      42.584  -7.200  11.194  1.00  0.00     0.210 C 
ENDBRANCH  19  22
ENDBRANCH  15  16
ENDBRANCH  12  15
ENDBRANCH   1  11
BRANCH   4  24
HETATM   24  C   UNL     1      40.398 -13.741   1.030  1.00  0.00     0.409 C 
HETATM   25  F   UNL     1      41.463 -13.034   0.589  1.00  0.00    -0.169 F 
HETATM   26  F   UNL     1      40.169 -14.712   0.103  1.00  0.00    -0.169 F 
HETATM   27  F   UNL     1      39.314 -12.939   1.001  1.00  0.00    -0.169 F 
ENDBRANCH   4  24
BRANCH   6  28
HETATM   28  C   UNL     1      42.710 -17.505   3.398  1.00  0.00    -0.035 A 
HETATM   29  C   UNL     1      43.589 -17.945   4.402  1.00  0.00     0.009 A 
HETATM   30  C   UNL     1      44.301 -19.136   4.255  1.00  0.00     0.001 A 
HETATM   31  C   UNL     1      44.143 -19.905   3.106  1.00  0.00     0.000 A 
HETATM   32  C   UNL     1      43.271 -19.486   2.103  1.00  0.00     0.001 A 
HETATM   33  C   UNL     1      42.559 -18.294   2.247  1.00  0.00     0.009 A 
ENDBRANCH   6  28
TORSDOF 6
ENDMDL
MODEL 5
REMARK VINA RESULT:      -8.7      5.012      8.538
REMARK  6 active torsions:
REMARK  status: ('A' for Active; 'I' for Inactive)
REMARK    1  A    between atoms: O_2  and  C_3 
REMARK    2  A    between atoms: C_6  and  C_7 
REMARK    3  A    between atoms: C_7  and  N_8 
REMARK       I    between atoms: N_8  and  C_9 
REMARK    4  A    between atoms: C_9  and  C_10 
REMARK    5  A    between atoms: C_13  and  C_14 
REMARK    6  A    between atoms: C_19  and  C_20 
ROOT
HETATM    1  C   UNL     1      40.880 -13.570   0.411  1.00  0.00     0.096 A 
HETATM    2  C   UNL     1      40.663 -12.608  -0.558  1.00  0.00     0.138 A 
HETATM    3  N   UNL     1      39.624 -13.077  -1.331  1.00  0.00    -0.240 N 
HETATM    4  C   UNL     1      39.116 -12.408  -2.516  1.00  0.00     0.221 C 
HETATM    5  C   UNL     1      39.593 -10.945  -2.563  1.00  0.00     0.066 C 
HETATM    6  C   UNL     1      41.076 -10.859  -2.189  1.00  0.00     0.118 C 
HETATM    7  N   UNL     1      41.270 -11.425  -0.849  1.00  0.00    -0.365 N 
HETATM    8  N   UNL     1      39.263 -14.334  -1.031  1.00  0.00    -0.181 NA
HETATM    9  C   UNL     1      40.000 -14.619   0.047  1.00  0.00     0.160 A 
HETATM   10  H   UNL     1      42.225 -11.283  -0.515  1.00  0.00     0.161 HD
ENDROOT
BRANCH   1  11
HETATM   11  C   UNL     1      41.819 -13.585   1.516  1.00  0.00     0.257 C 
HETATM   12  N   UNL     1      42.057 -14.828   2.055  1.00  0.00    -0.352 N 
HETATM   13  H   UNL     1      41.730 -15.637   1.542  1.00  0.00     0.163 HD
HETATM   14  O   UNL     1      42.364 -12.562   1.914  1.00  0.00    -0.267 OA
BRANCH  12  15
HETATM   15  C   UNL     1      42.960 -15.025   3.163  1.00  0.00     0.161 C 
BRANCH  15  16
HETATM   16  C   UNL     1      43.340 -16.472   3.348  1.00  0.00    -0.040 A 
HETATM   17  C   UNL     1      43.845 -16.933   4.571  1.00  0.00     0.011 A 
HETATM   18  C   UNL     1      44.137 -18.287   4.753  1.00  0.00     0.037 A 
HETATM   19  C   UNL     1      43.913 -19.207   3.729  1.00  0.00     0.068 A 
HETATM   20  C   UNL     1      43.424 -18.757   2.503  1.00  0.00     0.037 A 
HETATM   21  C   UNL     1      43.138 -17.399   2.316  1.00  0.00     0.011 A 
BRANCH  19  22
HETATM   22  O   UNL     1      44.214 -20.505   4.041  1.00  0.00    -0.356 OA
HETATM   23  C   UNL     1      43.983 -20.902   5.386  1.00  0.00     0.210 C 
ENDBRANCH  19  22
ENDBRANCH  15  16
ENDBRANCH  12  15
ENDBRANCH   1  11
BRANCH   4  24
HETATM   24  C   UNL     1      37.604 -12.452  -2.585  1.00  0.00     0.409 C 
HETATM   25  F   UNL     1      37.145 -13.608  -3.117  1.00  0.00    -0.169 F 
HETATM   26  F   UNL     1      37.092 -12.376  -1.326  1.00  0.00    -0.169 F 
HETATM   27  F   UNL     1      37.063 -11.424  -3.269  1.00  0.00    -0.169 F 
ENDBRANCH   4  24
BRANCH   6  28
HETATM   28  C   UNL     1      41.589  -9.433  -2.212  1.00  0.00    -0.035 A 
HETATM   29  C   UNL     1      41.333  -8.581  -3.300  1.00  0.00     0.009 A 
HETATM   30  C   UNL     1      41.823  -7.274  -3.313  1.00  0.00     0.001 A 
HETATM   31  C   UNL     1      42.571  -6.800  -2.239  1.00  0.00     0.000 A 
HETATM   32  C   UNL     1      42.828  -7.630  -1.150  1.00  0.00     0.001 A 
HETATM   33  C   UNL     1      42.341  -8.938  -1.135  1.00  0.00     0.009 A 
ENDBRANCH   6  28
TORSDOF 6
ENDMDL
MODEL 6
REMARK VINA RESULT:      -8.3      2.508      3.938
REMARK  6 active torsions:
REMARK  status: ('A' for Active; 'I' for Inactive)
REMARK    1  A    between atoms: O_2  and  C_3 
REMARK    2  A    between atoms: C_6  and  C_7 
REMARK    3  A    between atoms: C_7  and  N_8 
REMARK       I    between atoms: N_8  and  C_9 
REMARK    4  A    between atoms: C_9  and  C_10 
REMARK    5  A    between atoms: C_13  and  C_14 
REMARK    6  A    between atoms: C_19  and  C_20 
ROOT
HETATM    1  C   UNL     1      43.093 -10.777   7.190  1.00  0.00     0.096 A 
HETATM    2  C   UNL     1      42.793 -11.764   6.269  1.00  0.00     0.138 A 
HETATM    3  N   UNL     1      41.982 -11.170   5.328  1.00  0.00    -0.240 N 
HETATM    4  C   UNL     1      41.370 -11.870   4.212  1.00  0.00     0.221 C 
HETATM    5  C   UNL     1      42.056 -13.229   3.980  1.00  0.00     0.066 C 
HETATM    6  C   UNL     1      42.292 -13.939   5.317  1.00  0.00     0.118 C 
HETATM    7  N   UNL     1      43.115 -13.084   6.179  1.00  0.00    -0.365 N 
HETATM    8  N   UNL     1      41.609  -9.924   5.658  1.00  0.00    -0.181 NA
HETATM    9  C   UNL     1      42.310  -9.674   6.767  1.00  0.00     0.160 A 
HETATM   10  H   UNL     1      43.391 -13.567   7.036  1.00  0.00     0.161 HD
ENDROOT
BRANCH   1  11
HETATM   11  C   UNL     1      43.941 -10.825   8.365  1.00  0.00     0.257 C 
HETATM   12  N   UNL     1      43.377 -10.305   9.507  1.00  0.00    -0.352 N 
HETATM   13  H   UNL     1      42.382 -10.115   9.498  1.00  0.00     0.163 HD
HETATM   14  O   UNL     1      45.065 -11.311   8.330  1.00  0.00    -0.267 OA
BRANCH  12  15
HETATM   15  C   UNL     1      44.082 -10.268  10.765  1.00  0.00     0.161 C 
BRANCH  15  16
HETATM   16  C   UNL     1      43.295  -9.577  11.849  1.00  0.00    -0.040 A 
HETATM   17  C   UNL     1      42.220 -10.218  12.478  1.00  0.00     0.011 A 
HETATM   18  C   UNL     1      41.535  -9.594  13.523  1.00  0.00     0.037 A 
HETATM   19  C   UNL     1      41.921  -8.331  13.974  1.00  0.00     0.068 A 
HETATM   20  C   UNL     1      42.980  -7.678  13.345  1.00  0.00     0.037 A 
HETATM   21  C   UNL     1      43.663  -8.299  12.292  1.00  0.00     0.011 A 
BRANCH  19  22
HETATM   22  O   UNL     1      41.188  -7.841  15.020  1.00  0.00    -0.356 OA
HETATM   23  C   UNL     1      40.213  -6.855  14.704  1.00  0.00     0.210 C 
ENDBRANCH  19  22
ENDBRANCH  15  16
ENDBRANCH  12  15
ENDBRANCH   1  11
BRANCH   4  24
HETATM   24  C   UNL     1      41.418 -11.054   2.938  1.00  0.00     0.409 C 
HETATM   25  F   UNL     1      40.533 -10.031   2.947  1.00  0.00    -0.169 F 
HETATM   26  F   UNL     1      42.653 -10.495   2.805  1.00  0.00    -0.169 F 
HETATM   27  F   UNL     1      41.218 -11.780   1.820  1.00  0.00    -0.169 F 
ENDBRANCH   4  24
BRANCH   6  28
HETATM   28  C   UNL     1      42.975 -15.280   5.138  1.00  0.00    -0.035 A 
HETATM   29  C   UNL     1      42.772 -16.057   3.986  1.00  0.00     0.009 A 
HETATM   30  C   UNL     1      43.398 -17.296   3.842  1.00  0.00     0.001 A 
HETATM   31  C   UNL     1      44.239 -17.773   4.844  1.00  0.00     0.000 A 
HETATM   32  C   UNL     1      44.456 -17.012   5.990  1.00  0.00     0.001 A 
HETATM   33  C   UNL     1      43.829 -15.773   6.138  1.00  0.00     0.009 A 
ENDBRANCH   6  28
TORSDOF 6
ENDMDL
MODEL 7
REMARK VINA RESULT:      -8.1     17.369     18.170
REMARK  6 active torsions:
REMARK  status: ('A' for Active; 'I' for Inactive)
REMARK    1  A    between atoms: O_2  and  C_3 
REMARK    2  A    between atoms: C_6  and  C_7 
REMARK    3  A    between atoms: C_7  and  N_8 
REMARK       I    between atoms: N_8  and  C_9 
REMARK    4  A    between atoms: C_9  and  C_10 
REMARK    5  A    between atoms: C_13  and  C_14 
REMARK    6  A    between atoms: C_19  and  C_20 
ROOT
HETATM    1  C   UNL     1      47.987 -29.361  -0.085  1.00  0.00     0.096 A 
HETATM    2  C   UNL     1      46.609 -29.339  -0.203  1.00  0.00     0.138 A 
HETATM    3  N   UNL     1      46.340 -28.668  -1.375  1.00  0.00    -0.240 N 
HETATM    4  C   UNL     1      45.005 -28.351  -1.852  1.00  0.00     0.221 C 
HETATM    5  C   UNL     1      43.949 -29.196  -1.117  1.00  0.00     0.066 C 
HETATM    6  C   UNL     1      44.256 -29.241   0.383  1.00  0.00     0.118 C 
HETATM    7  N   UNL     1      45.598 -29.798   0.586  1.00  0.00    -0.365 N 
HETATM    8  N   UNL     1      47.429 -28.120  -1.936  1.00  0.00    -0.181 NA
HETATM    9  C   UNL     1      48.430 -28.570  -1.173  1.00  0.00     0.160 A 
HETATM   10  H   UNL     1      45.798 -29.951   1.576  1.00  0.00     0.161 HD
ENDROOT
BRANCH   1  11
HETATM   11  C   UNL     1      48.825 -29.971   0.929  1.00  0.00     0.257 C 
HETATM   12  N   UNL     1      49.021 -29.205   2.054  1.00  0.00    -0.352 N 
HETATM   13  H   UNL     1      48.434 -28.390   2.180  1.00  0.00     0.163 HD
HETATM   14  O   UNL     1      49.300 -31.092   0.786  1.00  0.00    -0.267 OA
BRANCH  12  15
HETATM   15  C   UNL     1      49.833 -29.656   3.159  1.00  0.00     0.161 C 
BRANCH  15  16
HETATM   16  C   UNL     1      49.042 -30.441   4.174  1.00  0.00    -0.040 A 
HETATM   17  C   UNL     1      47.689 -30.162   4.405  1.00  0.00     0.011 A 
HETATM   18  C   UNL     1      46.949 -30.934   5.303  1.00  0.00     0.037 A 
HETATM   19  C   UNL     1      47.536 -32.010   5.970  1.00  0.00     0.068 A 
HETATM   20  C   UNL     1      48.885 -32.288   5.758  1.00  0.00     0.037 A 
HETATM   21  C   UNL     1      49.632 -31.510   4.864  1.00  0.00     0.011 A 
BRANCH  19  22
HETATM   22  O   UNL     1      46.698 -32.703   6.800  1.00  0.00    -0.356 OA
HETATM   23  C   UNL     1      45.335 -32.297   6.808  1.00  0.00     0.210 C 
ENDBRANCH  19  22
ENDBRANCH  15  16
ENDBRANCH  12  15
ENDBRANCH   1  11
BRANCH   4  24
HETATM   24  C   UNL     1      44.875 -28.560  -3.345  1.00  0.00     0.409 C 
HETATM   25  F   UNL     1      45.675 -29.551  -3.800  1.00  0.00    -0.169 F 
HETATM   26  F   UNL     1      43.597 -28.930  -3.640  1.00  0.00    -0.169 F 
HETATM   27  F   UNL     1      45.115 -27.451  -4.072  1.00  0.00    -0.169 F 
ENDBRANCH   4  24
BRANCH   6  28
HETATM   28  C   UNL     1      43.246 -30.072   1.148  1.00  0.00    -0.035 A 
HETATM   29  C   UNL     1      42.618 -29.579   2.305  1.00  0.00     0.009 A 
HETATM   30  C   UNL     1      41.700 -30.360   3.006  1.00  0.00     0.001 A 
HETATM   31  C   UNL     1      41.392 -31.643   2.561  1.00  0.00     0.000 A 
HETATM   32  C   UNL     1      42.002 -32.145   1.412  1.00  0.00     0.001 A 
HETATM   33  C   UNL     1      42.923 -31.365   0.710  1.00  0.00     0.009 A 
ENDBRANCH   6  28
TORSDOF 6
ENDMDL
MODEL 8
REMARK VINA RESULT:      -7.8      3.047      4.938
REMARK  6 active torsions:
REMARK  status: ('A' for Active; 'I' for Inactive)
REMARK    1  A    between atoms: O_2  and  C_3 
REMARK    2  A    between atoms: C_6  and  C_7 
REMARK    3  A    between atoms: C_7  and  N_8 
REMARK       I    between atoms: N_8  and  C_9 
REMARK    4  A    between atoms: C_9  and  C_10 
REMARK    5  A    between atoms: C_13  and  C_14 
REMARK    6  A    between atoms: C_19  and  C_20 
ROOT
HETATM    1  C   UNL     1      41.983 -12.664   5.332  1.00  0.00     0.096 A 
HETATM    2  C   UNL     1      41.971 -13.356   4.134  1.00  0.00     0.138 A 
HETATM    3  N   UNL     1      42.716 -14.494   4.346  1.00  0.00    -0.240 N 
HETATM    4  C   UNL     1      43.025 -15.476   3.321  1.00  0.00     0.221 C 
HETATM    5  C   UNL     1      42.096 -15.306   2.106  1.00  0.00     0.066 C 
HETATM    6  C   UNL     1      41.952 -13.822   1.752  1.00  0.00     0.118 C 
HETATM    7  N   UNL     1      41.425 -13.097   2.914  1.00  0.00    -0.365 N 
HETATM    8  N   UNL     1      43.337 -14.509   5.536  1.00  0.00    -0.181 NA
HETATM    9  C   UNL     1      42.864 -13.418   6.145  1.00  0.00     0.160 A 
HETATM   10  H   UNL     1      41.206 -12.126   2.685  1.00  0.00     0.161 HD
ENDROOT
BRANCH   1  11
HETATM   11  C   UNL     1      41.328 -11.424   5.698  1.00  0.00     0.257 C 
HETATM   12  N   UNL     1      42.083 -10.582   6.481  1.00  0.00    -0.352 N 
HETATM   13  H   UNL     1      43.069 -10.784   6.579  1.00  0.00     0.163 HD
HETATM   14  O   UNL     1      40.195 -11.154   5.316  1.00  0.00    -0.267 OA
BRANCH  12  15
HETATM   15  C   UNL     1      41.584  -9.308   6.942  1.00  0.00     0.161 C 
BRANCH  15  16
HETATM   16  C   UNL     1      41.009  -9.382   8.333  1.00  0.00    -0.040 A 
HETATM   17  C   UNL     1      41.822  -9.199   9.459  1.00  0.00     0.011 A 
HETATM   18  C   UNL     1      41.269  -9.208  10.742  1.00  0.00     0.037 A 
HETATM   19  C   UNL     1      39.897  -9.379  10.926  1.00  0.00     0.068 A 
HETATM   20  C   UNL     1      39.081  -9.575   9.813  1.00  0.00     0.037 A 
HETATM   21  C   UNL     1      39.633  -9.574   8.526  1.00  0.00     0.011 A 
BRANCH  19  22
HETATM   22  O   UNL     1      39.478  -9.341  12.227  1.00  0.00    -0.356 OA
HETATM   23  C   UNL     1      39.898 -10.416  13.059  1.00  0.00     0.210 C 
ENDBRANCH  19  22
ENDBRANCH  15  16
ENDBRANCH  12  15
ENDBRANCH   1  11
BRANCH   4  24
HETATM   24  C   UNL     1      42.920 -16.892   3.846  1.00  0.00     0.409 C 
HETATM   25  F   UNL     1      42.599 -17.779   2.877  1.00  0.00    -0.169 F 
HETATM   26  F   UNL     1      44.128 -17.282   4.341  1.00  0.00    -0.169 F 
HETATM   27  F   UNL     1      42.042 -17.031   4.860  1.00  0.00    -0.169 F 
ENDBRANCH   4  24
BRANCH   6  28
HETATM   28  C   UNL     1      41.037 -13.604   0.565  1.00  0.00    -0.035 A 
HETATM   29  C   UNL     1      40.901 -12.339  -0.032  1.00  0.00     0.009 A 
HETATM   30  C   UNL     1      40.044 -12.150  -1.117  1.00  0.00     0.001 A 
HETATM   31  C   UNL     1      39.314 -13.223  -1.623  1.00  0.00     0.000 A 
HETATM   32  C   UNL     1      39.442 -14.485  -1.047  1.00  0.00     0.001 A 
HETATM   33  C   UNL     1      40.297 -14.675   0.040  1.00  0.00     0.009 A 
ENDBRANCH   6  28
TORSDOF 6
ENDMDL
MODEL 9
REMARK VINA RESULT:      -7.7     17.614     19.608
REMARK  6 active torsions:
REMARK  status: ('A' for Active; 'I' for Inactive)
REMARK    1  A    between atoms: O_2  and  C_3 
REMARK    2  A    between atoms: C_6  and  C_7 
REMARK    3  A    between atoms: C_7  and  N_8 
REMARK       I    between atoms: N_8  and  C_9 
REMARK    4  A    between atoms: C_9  and  C_10 
REMARK    5  A    between atoms: C_13  and  C_14 
REMARK    6  A    between atoms: C_19  and  C_20 
ROOT
HETATM    1  C   UNL     1      46.619 -30.428   2.833  1.00  0.00     0.096 A 
HETATM    2  C   UNL     1      45.654 -30.426   1.843  1.00  0.00     0.138 A 
HETATM    3  N   UNL     1      44.508 -30.915   2.430  1.00  0.00    -0.240 N 
HETATM    4  C   UNL     1      43.261 -31.152   1.725  1.00  0.00     0.221 C 
HETATM    5  C   UNL     1      43.253 -30.419   0.371  1.00  0.00     0.066 C 
HETATM    6  C   UNL     1      44.600 -30.598  -0.336  1.00  0.00     0.118 C 
HETATM    7  N   UNL     1      45.671 -30.084   0.525  1.00  0.00    -0.365 N 
HETATM    8  N   UNL     1      44.705 -31.379   3.674  1.00  0.00    -0.181 NA
HETATM    9  C   UNL     1      45.975 -31.051   3.930  1.00  0.00     0.160 A 
HETATM   10  H   UNL     1      46.572 -30.080   0.045  1.00  0.00     0.161 HD
ENDROOT
BRANCH   1  11
HETATM   11  C   UNL     1      47.997 -29.978   2.792  1.00  0.00     0.257 C 
HETATM   12  N   UNL     1      48.814 -30.697   1.950  1.00  0.00    -0.352 N 
HETATM   13  H   UNL     1      48.377 -31.334   1.296  1.00  0.00     0.163 HD
HETATM   14  O   UNL     1      48.384 -29.019   3.449  1.00  0.00    -0.267 OA
BRANCH  12  15
HETATM   15  C   UNL     1      50.215 -30.389   1.791  1.00  0.00     0.161 C 
BRANCH  15  16
HETATM   16  C   UNL     1      50.730 -30.734   0.417  1.00  0.00    -0.040 A 
HETATM   17  C   UNL     1      51.628 -31.792   0.230  1.00  0.00     0.011 A 
HETATM   18  C   UNL     1      52.053 -32.144  -1.054  1.00  0.00     0.037 A 
HETATM   19  C   UNL     1      51.574 -31.463  -2.174  1.00  0.00     0.068 A 
HETATM   20  C   UNL     1      50.691 -30.400  -1.998  1.00  0.00     0.037 A 
HETATM   21  C   UNL     1      50.270 -30.040  -0.711  1.00  0.00     0.011 A 
BRANCH  19  22
HETATM   22  O   UNL     1      52.045 -31.921  -3.374  1.00  0.00    -0.356 OA
HETATM   23  C   UNL     1      51.125 -32.647  -4.180  1.00  0.00     0.210 C 
ENDBRANCH  19  22
ENDBRANCH  15  16
ENDBRANCH  12  15
ENDBRANCH   1  11
BRANCH   4  24
HETATM   24  C   UNL     1      42.060 -30.723   2.541  1.00  0.00     0.409 C 
HETATM   25  F   UNL     1      42.275 -29.565   3.206  1.00  0.00    -0.169 F 
HETATM   26  F   UNL     1      41.004 -30.501   1.710  1.00  0.00    -0.169 F 
HETATM   27  F   UNL     1      41.646 -31.652   3.426  1.00  0.00    -0.169 F 
ENDBRANCH   4  24
BRANCH   6  28
HETATM   28  C   UNL     1      44.643 -29.885  -1.672  1.00  0.00    -0.035 A 
HETATM   29  C   UNL     1      44.046 -30.438  -2.817  1.00  0.00     0.009 A 
HETATM   30  C   UNL     1      44.105 -29.776  -4.044  1.00  0.00     0.001 A 
HETATM   31  C   UNL     1      44.757 -28.549  -4.143  1.00  0.00     0.000 A 
HETATM   32  C   UNL     1      45.349 -27.983  -3.016  1.00  0.00     0.001 A 
HETATM   33  C   UNL     1      45.293 -28.646  -1.788  1.00  0.00     0.009 A 
ENDBRANCH   6  28
TORSDOF 6
ENDMDL
MODEL 10
REMARK VINA RESULT:      -7.6      3.724      8.499
REMARK  6 active torsions:
REMARK  status: ('A' for Active; 'I' for Inactive)
REMARK    1  A    between atoms: O_2  and  C_3 
REMARK    2  A    between atoms: C_6  and  C_7 
REMARK    3  A    between atoms: C_7  and  N_8 
REMARK       I    between atoms: N_8  and  C_9 
REMARK    4  A    between atoms: C_9  and  C_10 
REMARK    5  A    between atoms: C_13  and  C_14 
REMARK    6  A    between atoms: C_19  and  C_20 
ROOT
HETATM    1  C   UNL     1      40.630 -13.848   4.023  1.00  0.00     0.096 A 
HETATM    2  C   UNL     1      41.700 -13.886   4.899  1.00  0.00     0.138 A 
HETATM    3  N   UNL     1      42.018 -15.218   5.050  1.00  0.00    -0.240 N 
HETATM    4  C   UNL     1      43.043 -15.720   5.948  1.00  0.00     0.221 C 
HETATM    5  C   UNL     1      43.986 -14.585   6.387  1.00  0.00     0.066 C 
HETATM    6  C   UNL     1      43.179 -13.332   6.741  1.00  0.00     0.118 C 
HETATM    7  N   UNL     1      42.384 -12.924   5.577  1.00  0.00    -0.365 N 
HETATM    8  N   UNL     1      41.137 -16.045   4.466  1.00  0.00    -0.181 NA
HETATM    9  C   UNL     1      40.317 -15.214   3.815  1.00  0.00     0.160 A 
HETATM   10  H   UNL     1      41.918 -12.028   5.734  1.00  0.00     0.161 HD
ENDROOT
BRANCH   1  11
HETATM   11  C   UNL     1      39.916 -12.712   3.473  1.00  0.00     0.257 C 
HETATM   12  N   UNL     1      39.150 -12.993   2.366  1.00  0.00    -0.352 N 
HETATM   13  H   UNL     1      38.986 -13.965   2.138  1.00  0.00     0.163 HD
HETATM   14  O   UNL     1      39.986 -11.599   3.980  1.00  0.00    -0.267 OA
BRANCH  12  15
HETATM   15  C   UNL     1      38.378 -11.979   1.688  1.00  0.00     0.161 C 
BRANCH  15  16
HETATM   16  C   UNL     1      38.928 -11.650   0.324  1.00  0.00    -0.040 A 
HETATM   17  C   UNL     1      40.247 -11.206   0.167  1.00  0.00     0.011 A 
HETATM   18  C   UNL     1      40.767 -10.963  -1.106  1.00  0.00     0.037 A 
HETATM   19  C   UNL     1      39.990 -11.175  -2.246  1.00  0.00     0.068 A 
HETATM   20  C   UNL     1      38.672 -11.603  -2.100  1.00  0.00     0.037 A 
HETATM   21  C   UNL     1      38.145 -11.841  -0.824  1.00  0.00     0.011 A 
BRANCH  19  22
HETATM   22  O   UNL     1      40.624 -10.926  -3.433  1.00  0.00    -0.356 OA
HETATM   23  C   UNL     1      40.800  -9.559  -3.782  1.00  0.00     0.210 C 
ENDBRANCH  19  22
ENDBRANCH  15  16
ENDBRANCH  12  15
ENDBRANCH   1  11
BRANCH   4  24
HETATM   24  C   UNL     1      43.849 -16.835   5.317  1.00  0.00     0.409 C 
HETATM   25  F   UNL     1      43.311 -18.054   5.544  1.00  0.00    -0.169 F 
HETATM   26  F   UNL     1      43.872 -16.668   3.965  1.00  0.00    -0.169 F 
HETATM   27  F   UNL     1      45.140 -16.859   5.708  1.00  0.00    -0.169 F 
ENDBRANCH   4  24
BRANCH   6  28
HETATM   28  C   UNL     1      44.068 -12.182   7.170  1.00  0.00    -0.035 A 
HETATM   29  C   UNL     1      43.680 -11.299   8.192  1.00  0.00     0.009 A 
HETATM   30  C   UNL     1      44.504 -10.237   8.567  1.00  0.00     0.001 A 
HETATM   31  C   UNL     1      45.727 -10.045   7.931  1.00  0.00     0.000 A 
HETATM   32  C   UNL     1      46.130 -10.915   6.920  1.00  0.00     0.001 A 
HETATM   33  C   UNL     1      45.306 -11.977   6.542  1.00  0.00     0.009 A 
ENDBRANCH   6  28
TORSDOF 6
ENDMDL
