MODEL 1
REMARK VINA RESULT:      -8.8      0.000      0.000
REMARK  3 active torsions:
REMARK  status: ('A' for Active; 'I' for Inactive)
REMARK    1  A    between atoms: C_5  and  N_6 
REMARK       I    between atoms: N_6  and  C_7 
REMARK    2  A    between atoms: C_7  and  C_8 
REMARK    3  A    between atoms: C_13  and  O_14 
ROOT
HETATM    1  C   UNL     1      43.347 -15.956   7.664  1.00  0.00     0.001 A 
HETATM    2  C   UNL     1      43.480 -17.261   7.180  1.00  0.00     0.013 A 
HETATM    3  C   UNL     1      43.509 -17.454   5.809  1.00  0.00    -0.017 A 
HETATM    4  C   UNL     1      43.402 -16.356   4.926  1.00  0.00    -0.020 A 
HETATM    5  C   UNL     1      43.485 -16.833   3.485  1.00  0.00     0.153 A 
HETATM    6  C   UNL     1      43.651 -18.333   3.660  1.00  0.00    -0.020 A 
HETATM    7  C   UNL     1      43.664 -18.666   5.033  1.00  0.00    -0.017 A 
HETATM    8  C   UNL     1      43.796 -19.302   2.679  1.00  0.00     0.010 A 
HETATM    9  C   UNL     1      43.956 -20.628   3.085  1.00  0.00     0.001 A 
HETATM   10  C   UNL     1      43.971 -20.965   4.449  1.00  0.00     0.001 A 
HETATM   11  C   UNL     1      43.826 -19.982   5.434  1.00  0.00     0.013 A 
HETATM   12  C   UNL     1      43.284 -15.057   5.401  1.00  0.00     0.010 A 
HETATM   13  C   UNL     1      43.251 -14.865   6.784  1.00  0.00     0.001 A 
ENDROOT
BRANCH   5  14
HETATM   14  N   UNL     1      42.261 -16.540   2.770  1.00  0.00    -0.346 N 
HETATM   15  C   UNL     1      42.157 -15.488   1.903  1.00  0.00     0.249 C 
HETATM   16  O   UNL     1      43.059 -14.674   1.720  1.00  0.00    -0.271 OA
HETATM   17  H   UNL     1      41.440 -17.074   3.056  1.00  0.00     0.163 HD
BRANCH  15  18
HETATM   18  C   UNL     1      40.770 -15.252   1.281  1.00  0.00     0.279 C 
HETATM   19  N   UNL     1      40.895 -14.501  -0.038  1.00  0.00    -0.060 N 
HETATM   20  H   UNL     1      41.831 -14.064  -0.058  1.00  0.00     0.278 HD
HETATM   21  H   UNL     1      40.844 -15.134  -0.846  1.00  0.00     0.278 HD
HETATM   22  C   UNL     1      39.865 -13.415  -0.035  1.00  0.00     0.264 C 
HETATM   23  C   UNL     1      39.774 -13.064   1.449  1.00  0.00     0.146 C 
HETATM   24  C   UNL     1      39.779 -14.433   2.112  1.00  0.00     0.076 C 
BRANCH  23  25
HETATM   25  O   UNL     1      40.961 -12.379   1.854  1.00  0.00    -0.394 OA
HETATM   26  H   UNL     1      41.585 -12.373   1.097  1.00  0.00     0.210 HD
ENDBRANCH  23  25
ENDBRANCH  15  18
ENDBRANCH   5  14
TORSDOF 3
ENDMDL
MODEL 2
REMARK VINA RESULT:      -8.2      1.709      3.992
REMARK  3 active torsions:
REMARK  status: ('A' for Active; 'I' for Inactive)
REMARK    1  A    between atoms: C_5  and  N_6 
REMARK       I    between atoms: N_6  and  C_7 
REMARK    2  A    between atoms: C_7  and  C_8 
REMARK    3  A    between atoms: C_13  and  O_14 
ROOT
HETATM    1  C   UNL     1      44.479 -19.053   3.530  1.00  0.00     0.001 A 
HETATM    2  C   UNL     1      44.446 -17.986   4.432  1.00  0.00     0.013 A 
HETATM    3  C   UNL     1      43.443 -17.041   4.298  1.00  0.00    -0.017 A 
HETATM    4  C   UNL     1      42.481 -17.155   3.268  1.00  0.00    -0.020 A 
HETATM    5  C   UNL     1      41.484 -16.011   3.354  1.00  0.00     0.153 A 
HETATM    6  C   UNL     1      41.998 -15.236   4.556  1.00  0.00    -0.020 A 
HETATM    7  C   UNL     1      43.145 -15.866   5.089  1.00  0.00    -0.017 A 
HETATM    8  C   UNL     1      41.472 -14.087   5.126  1.00  0.00     0.010 A 
HETATM    9  C   UNL     1      42.111 -13.562   6.251  1.00  0.00     0.001 A 
HETATM   10  C   UNL     1      43.251 -14.185   6.786  1.00  0.00     0.001 A 
HETATM   11  C   UNL     1      43.775 -15.345   6.206  1.00  0.00     0.013 A 
HETATM   12  C   UNL     1      42.502 -18.220   2.378  1.00  0.00     0.010 A 
HETATM   13  C   UNL     1      43.515 -19.170   2.513  1.00  0.00     0.001 A 
ENDROOT
BRANCH   5  14
HETATM   14  N   UNL     1      41.534 -15.189   2.164  1.00  0.00    -0.346 N 
HETATM   15  C   UNL     1      40.577 -15.259   1.189  1.00  0.00     0.249 C 
HETATM   16  O   UNL     1      39.652 -16.066   1.210  1.00  0.00    -0.271 OA
HETATM   17  H   UNL     1      42.394 -14.659   2.025  1.00  0.00     0.163 HD
BRANCH  15  18
HETATM   18  C   UNL     1      40.808 -14.385  -0.055  1.00  0.00     0.279 C 
HETATM   19  N   UNL     1      41.364 -13.023   0.341  1.00  0.00    -0.060 N 
HETATM   20  H   UNL     1      41.173 -12.892   1.348  1.00  0.00     0.278 HD
HETATM   21  H   UNL     1      42.383 -12.976   0.222  1.00  0.00     0.278 HD
HETATM   22  C   UNL     1      40.601 -11.988  -0.425  1.00  0.00     0.264 C 
HETATM   23  C   UNL     1      39.226 -12.639  -0.562  1.00  0.00     0.146 C 
HETATM   24  C   UNL     1      39.576 -14.077  -0.912  1.00  0.00     0.076 C 
BRANCH  23  25
HETATM   25  O   UNL     1      38.569 -12.646   0.707  1.00  0.00    -0.394 OA
HETATM   26  H   UNL     1      39.110 -13.175   1.330  1.00  0.00     0.210 HD
ENDBRANCH  23  25
ENDBRANCH  15  18
ENDBRANCH   5  14
TORSDOF 3
ENDMDL
MODEL 3
REMARK VINA RESULT:      -8.2      2.892      5.198
REMARK  3 active torsions:
REMARK  status: ('A' for Active; 'I' for Inactive)
REMARK    1  A    between atoms: C_5  and  N_6 
REMARK       I    between atoms: N_6  and  C_7 
REMARK    2  A    between atoms: C_7  and  C_8 
REMARK    3  A    between atoms: C_13  and  O_14 
ROOT
HETATM    1  C   UNL     1      39.928 -14.852   1.308  1.00  0.00     0.001 A 
HETATM    2  C   UNL     1      40.901 -15.846   1.451  1.00  0.00     0.013 A 
HETATM    3  C   UNL     1      41.555 -15.955   2.666  1.00  0.00    -0.017 A 
HETATM    4  C   UNL     1      41.248 -15.077   3.730  1.00  0.00    -0.020 A 
HETATM    5  C   UNL     1      42.085 -15.421   4.952  1.00  0.00     0.153 A 
HETATM    6  C   UNL     1      42.904 -16.598   4.450  1.00  0.00    -0.020 A 
HETATM    7  C   UNL     1      42.569 -16.889   3.108  1.00  0.00    -0.017 A 
HETATM    8  C   UNL     1      43.844 -17.348   5.140  1.00  0.00     0.010 A 
HETATM    9  C   UNL     1      44.459 -18.407   4.470  1.00  0.00     0.001 A 
HETATM   10  C   UNL     1      44.129 -18.701   3.136  1.00  0.00     0.001 A 
HETATM   11  C   UNL     1      43.179 -17.942   2.446  1.00  0.00     0.013 A 
HETATM   12  C   UNL     1      40.273 -14.098   3.598  1.00  0.00     0.010 A 
HETATM   13  C   UNL     1      39.616 -13.987   2.371  1.00  0.00     0.001 A 
ENDROOT
BRANCH   5  14
HETATM   14  N   UNL     1      42.953 -14.320   5.313  1.00  0.00    -0.346 N 
HETATM   15  C   UNL     1      43.342 -14.093   6.604  1.00  0.00     0.249 C 
HETATM   16  O   UNL     1      42.933 -14.751   7.557  1.00  0.00    -0.271 OA
HETATM   17  H   UNL     1      43.141 -13.642   4.576  1.00  0.00     0.163 HD
BRANCH  15  18
HETATM   18  C   UNL     1      44.197 -12.837   6.846  1.00  0.00     0.279 C 
HETATM   19  N   UNL     1      43.600 -11.989   7.962  1.00  0.00    -0.060 N 
HETATM   20  H   UNL     1      42.619 -12.286   8.085  1.00  0.00     0.278 HD
HETATM   21  H   UNL     1      44.074 -12.148   8.859  1.00  0.00     0.278 HD
HETATM   22  C   UNL     1      43.610 -10.566   7.497  1.00  0.00     0.264 C 
HETATM   23  C   UNL     1      43.429 -10.721   5.988  1.00  0.00     0.146 C 
HETATM   24  C   UNL     1      44.357 -11.880   5.662  1.00  0.00     0.076 C 
BRANCH  23  25
HETATM   25  O   UNL     1      42.092 -11.138   5.706  1.00  0.00    -0.394 OA
HETATM   26  H   UNL     1      41.815 -11.772   6.401  1.00  0.00     0.210 HD
ENDBRANCH  23  25
ENDBRANCH  15  18
ENDBRANCH   5  14
TORSDOF 3
ENDMDL
MODEL 4
REMARK VINA RESULT:      -7.9      2.401      3.897
REMARK  3 active torsions:
REMARK  status: ('A' for Active; 'I' for Inactive)
REMARK    1  A    between atoms: C_5  and  N_6 
REMARK       I    between atoms: N_6  and  C_7 
REMARK    2  A    between atoms: C_7  and  C_8 
REMARK    3  A    between atoms: C_13  and  O_14 
ROOT
HETATM    1  C   UNL     1      39.982 -13.456   6.164  1.00  0.00     0.001 A 
HETATM    2  C   UNL     1      40.716 -14.577   5.764  1.00  0.00     0.013 A 
HETATM    3  C   UNL     1      41.155 -14.642   4.453  1.00  0.00    -0.017 A 
HETATM    4  C   UNL     1      40.862 -13.600   3.544  1.00  0.00    -0.020 A 
HETATM    5  C   UNL     1      41.474 -13.902   2.186  1.00  0.00     0.153 A 
HETATM    6  C   UNL     1      42.147 -15.241   2.435  1.00  0.00    -0.020 A 
HETATM    7  C   UNL     1      41.946 -15.647   3.774  1.00  0.00    -0.017 A 
HETATM    8  C   UNL     1      42.888 -16.010   1.550  1.00  0.00     0.010 A 
HETATM    9  C   UNL     1      43.433 -17.207   2.017  1.00  0.00     0.001 A 
HETATM   10  C   UNL     1      43.236 -17.614   3.347  1.00  0.00     0.001 A 
HETATM   11  C   UNL     1      42.489 -16.834   4.235  1.00  0.00     0.013 A 
HETATM   12  C   UNL     1      40.146 -12.479   3.939  1.00  0.00     0.010 A 
HETATM   13  C   UNL     1      39.701 -12.416   5.261  1.00  0.00     0.001 A 
ENDROOT
BRANCH   5  14
HETATM   14  N   UNL     1      40.448 -14.034   1.172  1.00  0.00    -0.346 N 
HETATM   15  C   UNL     1      40.344 -13.162   0.124  1.00  0.00     0.249 C 
HETATM   16  O   UNL     1      41.056 -12.169  -0.000  1.00  0.00    -0.271 OA
HETATM   17  H   UNL     1      39.724 -14.726   1.360  1.00  0.00     0.163 HD
BRANCH  15  18
HETATM   18  C   UNL     1      39.155 -13.380  -0.827  1.00  0.00     0.279 C 
HETATM   19  N   UNL     1      39.048 -14.847  -1.225  1.00  0.00    -0.060 N 
HETATM   20  H   UNL     1      39.957 -15.290  -1.017  1.00  0.00     0.278 HD
HETATM   21  H   UNL     1      38.339 -15.343  -0.671  1.00  0.00     0.278 HD
HETATM   22  C   UNL     1      38.825 -14.894  -2.705  1.00  0.00     0.264 C 
HETATM   23  C   UNL     1      39.582 -13.656  -3.182  1.00  0.00     0.146 C 
HETATM   24  C   UNL     1      39.188 -12.611  -2.151  1.00  0.00     0.076 C 
BRANCH  23  25
HETATM   25  O   UNL     1      40.988 -13.879  -3.065  1.00  0.00    -0.394 OA
HETATM   26  H   UNL     1      41.265 -13.621  -2.160  1.00  0.00     0.210 HD
ENDBRANCH  23  25
ENDBRANCH  15  18
ENDBRANCH   5  14
TORSDOF 3
ENDMDL
MODEL 5
REMARK VINA RESULT:      -7.2      3.032      4.065
REMARK  3 active torsions:
REMARK  status: ('A' for Active; 'I' for Inactive)
REMARK    1  A    between atoms: C_5  and  N_6 
REMARK       I    between atoms: N_6  and  C_7 
REMARK    2  A    between atoms: C_7  and  C_8 
REMARK    3  A    between atoms: C_13  and  O_14 
ROOT
HETATM    1  C   UNL     1      43.308 -17.287   7.524  1.00  0.00     0.001 A 
HETATM    2  C   UNL     1      43.260 -17.529   6.148  1.00  0.00     0.013 A 
HETATM    3  C   UNL     1      43.225 -16.445   5.289  1.00  0.00    -0.017 A 
HETATM    4  C   UNL     1      43.232 -15.125   5.797  1.00  0.00    -0.020 A 
HETATM    5  C   UNL     1      43.212 -14.124   4.653  1.00  0.00     0.153 A 
HETATM    6  C   UNL     1      43.191 -15.036   3.438  1.00  0.00    -0.020 A 
HETATM    7  C   UNL     1      43.202 -16.390   3.843  1.00  0.00    -0.017 A 
HETATM    8  C   UNL     1      43.183 -14.682   2.097  1.00  0.00     0.010 A 
HETATM    9  C   UNL     1      43.185 -15.705   1.148  1.00  0.00     0.001 A 
HETATM   10  C   UNL     1      43.198 -17.053   1.545  1.00  0.00     0.001 A 
HETATM   11  C   UNL     1      43.207 -17.403   2.899  1.00  0.00     0.013 A 
HETATM   12  C   UNL     1      43.293 -14.879   7.161  1.00  0.00     0.010 A 
HETATM   13  C   UNL     1      43.326 -15.974   8.026  1.00  0.00     0.001 A 
ENDROOT
BRANCH   5  14
HETATM   14  N   UNL     1      42.014 -13.312   4.696  1.00  0.00    -0.346 N 
HETATM   15  C   UNL     1      42.011 -11.997   4.319  1.00  0.00     0.249 C 
HETATM   16  O   UNL     1      43.026 -11.389   3.990  1.00  0.00    -0.271 OA
HETATM   17  H   UNL     1      41.207 -13.733   5.155  1.00  0.00     0.163 HD
BRANCH  15  18
HETATM   18  C   UNL     1      40.684 -11.241   4.497  1.00  0.00     0.279 C 
HETATM   19  N   UNL     1      40.709 -10.405   5.770  1.00  0.00    -0.060 N 
HETATM   20  H   UNL     1      41.472 -10.770   6.364  1.00  0.00     0.278 HD
HETATM   21  H   UNL     1      40.926  -9.420   5.578  1.00  0.00     0.278 HD
HETATM   22  C   UNL     1      39.409 -10.629   6.478  1.00  0.00     0.264 C 
HETATM   23  C   UNL     1      39.076 -12.068   6.089  1.00  0.00     0.146 C 
HETATM   24  C   UNL     1      39.419 -12.096   4.608  1.00  0.00     0.076 C 
BRANCH  23  25
HETATM   25  O   UNL     1      39.962 -12.964   6.761  1.00  0.00    -0.394 OA
HETATM   26  H   UNL     1      39.442 -13.735   7.071  1.00  0.00     0.210 HD
ENDBRANCH  23  25
ENDBRANCH  15  18
ENDBRANCH   5  14
TORSDOF 3
ENDMDL
MODEL 6
REMARK VINA RESULT:      -7.2     13.374     15.020
REMARK  3 active torsions:
REMARK  status: ('A' for Active; 'I' for Inactive)
REMARK    1  A    between atoms: C_5  and  N_6 
REMARK       I    between atoms: N_6  and  C_7 
REMARK    2  A    between atoms: C_7  and  C_8 
REMARK    3  A    between atoms: C_13  and  O_14 
ROOT
HETATM    1  C   UNL     1      50.696 -30.667   4.236  1.00  0.00     0.001 A 
HETATM    2  C   UNL     1      51.063 -30.944   2.916  1.00  0.00     0.013 A 
HETATM    3  C   UNL     1      50.263 -30.460   1.895  1.00  0.00    -0.017 A 
HETATM    4  C   UNL     1      49.102 -29.709   2.187  1.00  0.00    -0.020 A 
HETATM    5  C   UNL     1      48.419 -29.279   0.898  1.00  0.00     0.153 A 
HETATM    6  C   UNL     1      49.333 -29.879  -0.157  1.00  0.00    -0.020 A 
HETATM    7  C   UNL     1      50.406 -30.562   0.458  1.00  0.00    -0.017 A 
HETATM    8  C   UNL     1      49.221 -29.800  -1.537  1.00  0.00     0.010 A 
HETATM    9  C   UNL     1      50.204 -30.420  -2.311  1.00  0.00     0.001 A 
HETATM   10  C   UNL     1      51.273 -31.099  -1.704  1.00  0.00     0.001 A 
HETATM   11  C   UNL     1      51.381 -31.174  -0.312  1.00  0.00     0.013 A 
HETATM   12  C   UNL     1      48.741 -29.419   3.495  1.00  0.00     0.010 A 
HETATM   13  C   UNL     1      49.547 -29.910   4.523  1.00  0.00     0.001 A 
ENDROOT
BRANCH   5  14
HETATM   14  N   UNL     1      47.092 -29.849   0.800  1.00  0.00    -0.346 N 
HETATM   15  C   UNL     1      46.034 -29.149   0.288  1.00  0.00     0.249 C 
HETATM   16  O   UNL     1      46.109 -27.972  -0.056  1.00  0.00    -0.271 OA
HETATM   17  H   UNL     1      46.958 -30.747   1.263  1.00  0.00     0.163 HD
BRANCH  15  18
HETATM   18  C   UNL     1      44.668 -29.855   0.323  1.00  0.00     0.279 C 
HETATM   19  N   UNL     1      43.538 -28.842   0.203  1.00  0.00    -0.060 N 
HETATM   20  H   UNL     1      43.929 -27.914   0.430  1.00  0.00     0.278 HD
HETATM   21  H   UNL     1      43.174 -28.787  -0.756  1.00  0.00     0.278 HD
HETATM   22  C   UNL     1      42.512 -29.191   1.237  1.00  0.00     0.264 C 
HETATM   23  C   UNL     1      43.371 -29.783   2.353  1.00  0.00     0.146 C 
HETATM   24  C   UNL     1      44.348 -30.661   1.586  1.00  0.00     0.076 C 
BRANCH  23  25
HETATM   25  O   UNL     1      44.121 -28.744   2.985  1.00  0.00    -0.394 OA
HETATM   26  H   UNL     1      44.825 -29.159   3.525  1.00  0.00     0.210 HD
ENDBRANCH  23  25
ENDBRANCH  15  18
ENDBRANCH   5  14
TORSDOF 3
ENDMDL
MODEL 7
REMARK VINA RESULT:      -6.9      3.169      6.055
REMARK  3 active torsions:
REMARK  status: ('A' for Active; 'I' for Inactive)
REMARK    1  A    between atoms: C_5  and  N_6 
REMARK       I    between atoms: N_6  and  C_7 
REMARK    2  A    between atoms: C_7  and  C_8 
REMARK    3  A    between atoms: C_13  and  O_14 
ROOT
HETATM    1  C   UNL     1      42.135 -17.005   3.344  1.00  0.00     0.001 A 
HETATM    2  C   UNL     1      41.347 -16.575   2.272  1.00  0.00     0.013 A 
HETATM    3  C   UNL     1      41.459 -15.259   1.859  1.00  0.00    -0.017 A 
HETATM    4  C   UNL     1      42.346 -14.373   2.512  1.00  0.00    -0.020 A 
HETATM    5  C   UNL     1      42.297 -13.003   1.855  1.00  0.00     0.153 A 
HETATM    6  C   UNL     1      41.274 -13.220   0.753  1.00  0.00    -0.020 A 
HETATM    7  C   UNL     1      40.804 -14.553   0.778  1.00  0.00    -0.017 A 
HETATM    8  C   UNL     1      40.826 -12.313  -0.195  1.00  0.00     0.010 A 
HETATM    9  C   UNL     1      39.888 -12.751  -1.132  1.00  0.00     0.001 A 
HETATM   10  C   UNL     1      39.418 -14.075  -1.112  1.00  0.00     0.001 A 
HETATM   11  C   UNL     1      39.876 -14.986  -0.154  1.00  0.00     0.013 A 
HETATM   12  C   UNL     1      43.140 -14.798   3.568  1.00  0.00     0.010 A 
HETATM   13  C   UNL     1      43.024 -16.125   3.985  1.00  0.00     0.001 A 
ENDROOT
BRANCH   5  14
HETATM   14  N   UNL     1      41.829 -11.998   2.786  1.00  0.00    -0.346 N 
HETATM   15  C   UNL     1      42.683 -11.140   3.422  1.00  0.00     0.249 C 
HETATM   16  O   UNL     1      43.905 -11.201   3.312  1.00  0.00    -0.271 OA
HETATM   17  H   UNL     1      40.846 -12.059   3.050  1.00  0.00     0.163 HD
BRANCH  15  18
HETATM   18  C   UNL     1      42.050 -10.182   4.445  1.00  0.00     0.279 C 
HETATM   19  N   UNL     1      42.665 -10.387   5.824  1.00  0.00    -0.060 N 
HETATM   20  H   UNL     1      43.133 -11.307   5.820  1.00  0.00     0.278 HD
HETATM   21  H   UNL     1      43.388  -9.686   6.029  1.00  0.00     0.278 HD
HETATM   22  C   UNL     1      41.542 -10.429   6.813  1.00  0.00     0.264 C 
HETATM   23  C   UNL     1      40.412 -11.042   5.989  1.00  0.00     0.146 C 
HETATM   24  C   UNL     1      40.540 -10.313   4.661  1.00  0.00     0.076 C 
BRANCH  23  25
HETATM   25  O   UNL     1      40.684 -12.425   5.756  1.00  0.00    -0.394 OA
HETATM   26  H   UNL     1      39.848 -12.861   5.486  1.00  0.00     0.210 HD
ENDBRANCH  23  25
ENDBRANCH  15  18
ENDBRANCH   5  14
TORSDOF 3
ENDMDL
MODEL 8
REMARK VINA RESULT:      -6.8      6.439      9.034
REMARK  3 active torsions:
REMARK  status: ('A' for Active; 'I' for Inactive)
REMARK    1  A    between atoms: C_5  and  N_6 
REMARK       I    between atoms: N_6  and  C_7 
REMARK    2  A    between atoms: C_7  and  C_8 
REMARK    3  A    between atoms: C_13  and  O_14 
ROOT
HETATM    1  C   UNL     1      40.758 -10.080  13.090  1.00  0.00     0.001 A 
HETATM    2  C   UNL     1      42.071 -10.026  12.612  1.00  0.00     0.013 A 
HETATM    3  C   UNL     1      42.275  -9.705  11.281  1.00  0.00    -0.017 A 
HETATM    4  C   UNL     1      41.178  -9.444  10.429  1.00  0.00    -0.020 A 
HETATM    5  C   UNL     1      41.670  -9.096   9.033  1.00  0.00     0.153 A 
HETATM    6  C   UNL     1      43.177  -9.193   9.199  1.00  0.00    -0.020 A 
HETATM    7  C   UNL     1      43.501  -9.549  10.528  1.00  0.00    -0.017 A 
HETATM    8  C   UNL     1      44.163  -8.964   8.251  1.00  0.00     0.010 A 
HETATM    9  C   UNL     1      45.496  -9.095   8.645  1.00  0.00     0.001 A 
HETATM   10  C   UNL     1      45.823  -9.447   9.966  1.00  0.00     0.001 A 
HETATM   11  C   UNL     1      44.824  -9.676  10.917  1.00  0.00     0.013 A 
HETATM   12  C   UNL     1      39.873  -9.483  10.901  1.00  0.00     0.010 A 
HETATM   13  C   UNL     1      39.670  -9.810  12.243  1.00  0.00     0.001 A 
ENDROOT
BRANCH   5  14
HETATM   14  N   UNL     1      41.206 -10.065   8.063  1.00  0.00    -0.346 N 
HETATM   15  C   UNL     1      40.822  -9.705   6.801  1.00  0.00     0.249 C 
HETATM   16  O   UNL     1      40.771  -8.538   6.419  1.00  0.00    -0.271 OA
HETATM   17  H   UNL     1      41.046 -11.008   8.416  1.00  0.00     0.163 HD
BRANCH  15  18
HETATM   18  C   UNL     1      40.273 -10.831   5.908  1.00  0.00     0.279 C 
HETATM   19  N   UNL     1      39.695 -11.955   6.758  1.00  0.00    -0.060 N 
HETATM   20  H   UNL     1      40.072 -11.846   7.713  1.00  0.00     0.278 HD
HETATM   21  H   UNL     1      38.672 -11.893   6.832  1.00  0.00     0.278 HD
HETATM   22  C   UNL     1      40.199 -13.248   6.194  1.00  0.00     0.264 C 
HETATM   23  C   UNL     1      41.568 -12.847   5.648  1.00  0.00     0.146 C 
HETATM   24  C   UNL     1      41.277 -11.515   4.976  1.00  0.00     0.076 C 
BRANCH  23  25
HETATM   25  O   UNL     1      42.464 -12.602   6.734  1.00  0.00    -0.394 OA
HETATM   26  H   UNL     1      42.183 -13.153   7.494  1.00  0.00     0.210 HD
ENDBRANCH  23  25
ENDBRANCH  15  18
ENDBRANCH   5  14
TORSDOF 3
ENDMDL
MODEL 9
REMARK VINA RESULT:      -6.7     13.684     14.828
REMARK  3 active torsions:
REMARK  status: ('A' for Active; 'I' for Inactive)
REMARK    1  A    between atoms: C_5  and  N_6 
REMARK       I    between atoms: N_6  and  C_7 
REMARK    2  A    between atoms: C_7  and  C_8 
REMARK    3  A    between atoms: C_13  and  O_14 
ROOT
HETATM    1  C   UNL     1      50.400 -30.601   3.311  1.00  0.00     0.001 A 
HETATM    2  C   UNL     1      50.070 -30.185   2.018  1.00  0.00     0.013 A 
HETATM    3  C   UNL     1      48.766 -29.798   1.764  1.00  0.00    -0.017 A 
HETATM    4  C   UNL     1      47.794 -29.830   2.789  1.00  0.00    -0.020 A 
HETATM    5  C   UNL     1      46.457 -29.338   2.259  1.00  0.00     0.153 A 
HETATM    6  C   UNL     1      46.790 -29.025   0.810  1.00  0.00    -0.020 A 
HETATM    7  C   UNL     1      48.151 -29.303   0.550  1.00  0.00    -0.017 A 
HETATM    8  C   UNL     1      45.953 -28.521  -0.175  1.00  0.00     0.010 A 
HETATM    9  C   UNL     1      46.495 -28.293  -1.441  1.00  0.00     0.001 A 
HETATM   10  C   UNL     1      47.848 -28.566  -1.704  1.00  0.00     0.001 A 
HETATM   11  C   UNL     1      48.686 -29.073  -0.706  1.00  0.00     0.013 A 
HETATM   12  C   UNL     1      48.119 -30.229   4.078  1.00  0.00     0.010 A 
HETATM   13  C   UNL     1      49.434 -30.621   4.332  1.00  0.00     0.001 A 
ENDROOT
BRANCH   5  14
HETATM   14  N   UNL     1      45.454 -30.379   2.333  1.00  0.00    -0.346 N 
HETATM   15  C   UNL     1      44.131 -30.103   2.541  1.00  0.00     0.249 C 
HETATM   16  O   UNL     1      43.704 -28.970   2.752  1.00  0.00    -0.271 OA
HETATM   17  H   UNL     1      45.807 -31.335   2.365  1.00  0.00     0.163 HD
BRANCH  15  18
HETATM   18  C   UNL     1      43.195 -31.316   2.680  1.00  0.00     0.279 C 
HETATM   19  N   UNL     1      41.843 -31.025   2.042  1.00  0.00    -0.060 N 
HETATM   20  H   UNL     1      41.763 -30.001   1.940  1.00  0.00     0.278 HD
HETATM   21  H   UNL     1      41.770 -31.426   1.099  1.00  0.00     0.278 HD
HETATM   22  C   UNL     1      40.788 -31.490   2.998  1.00  0.00     0.264 C 
HETATM   23  C   UNL     1      41.460 -31.264   4.351  1.00  0.00     0.146 C 
HETATM   24  C   UNL     1      42.873 -31.771   4.106  1.00  0.00     0.076 C 
BRANCH  23  25
HETATM   25  O   UNL     1      41.539 -29.863   4.620  1.00  0.00    -0.394 OA
HETATM   26  H   UNL     1      40.818 -29.415   4.129  1.00  0.00     0.210 HD
ENDBRANCH  23  25
ENDBRANCH  15  18
ENDBRANCH   5  14
TORSDOF 3
ENDMDL
MODEL 10
REMARK VINA RESULT:      -6.6      1.995      3.086
REMARK  3 active torsions:
REMARK  status: ('A' for Active; 'I' for Inactive)
REMARK    1  A    between atoms: C_5  and  N_6 
REMARK       I    between atoms: N_6  and  C_7 
REMARK    2  A    between atoms: C_7  and  C_8 
REMARK    3  A    between atoms: C_13  and  O_14 
ROOT
HETATM    1  C   UNL     1      42.636 -12.314   5.942  1.00  0.00     0.001 A 
HETATM    2  C   UNL     1      42.684 -13.696   5.737  1.00  0.00     0.013 A 
HETATM    3  C   UNL     1      42.886 -14.163   4.450  1.00  0.00    -0.017 A 
HETATM    4  C   UNL     1      43.036 -13.261   3.372  1.00  0.00    -0.020 A 
HETATM    5  C   UNL     1      43.268 -14.024   2.078  1.00  0.00     0.153 A 
HETATM    6  C   UNL     1      43.231 -15.466   2.553  1.00  0.00    -0.020 A 
HETATM    7  C   UNL     1      43.009 -15.516   3.948  1.00  0.00    -0.017 A 
HETATM    8  C   UNL     1      43.401 -16.622   1.806  1.00  0.00     0.010 A 
HETATM    9  C   UNL     1      43.346 -17.848   2.472  1.00  0.00     0.001 A 
HETATM   10  C   UNL     1      43.126 -17.903   3.859  1.00  0.00     0.001 A 
HETATM   11  C   UNL     1      42.957 -16.733   4.606  1.00  0.00     0.013 A 
HETATM   12  C   UNL     1      43.003 -11.888   3.573  1.00  0.00     0.010 A 
HETATM   13  C   UNL     1      42.795 -11.418   4.871  1.00  0.00     0.001 A 
ENDROOT
BRANCH   5  14
HETATM   14  N   UNL     1      42.201 -13.776   1.131  1.00  0.00    -0.346 N 
HETATM   15  C   UNL     1      40.887 -13.995   1.441  1.00  0.00     0.249 C 
HETATM   16  O   UNL     1      40.518 -14.481   2.508  1.00  0.00    -0.271 OA
HETATM   17  H   UNL     1      42.492 -13.568   0.177  1.00  0.00     0.163 HD
BRANCH  15  18
HETATM   18  C   UNL     1      39.873 -13.766   0.308  1.00  0.00     0.279 C 
HETATM   19  N   UNL     1      40.535 -13.957  -1.050  1.00  0.00    -0.060 N 
HETATM   20  H   UNL     1      41.556 -13.894  -0.908  1.00  0.00     0.278 HD
HETATM   21  H   UNL     1      40.345 -14.888  -1.442  1.00  0.00     0.278 HD
HETATM   22  C   UNL     1      40.106 -12.817  -1.921  1.00  0.00     0.264 C 
HETATM   23  C   UNL     1      39.933 -11.687  -0.908  1.00  0.00     0.146 C 
HETATM   24  C   UNL     1      39.222 -12.382   0.242  1.00  0.00     0.076 C 
BRANCH  23  25
HETATM   25  O   UNL     1      41.215 -11.264  -0.438  1.00  0.00    -0.394 OA
HETATM   26  H   UNL     1      41.878 -11.467  -1.131  1.00  0.00     0.210 HD
ENDBRANCH  23  25
ENDBRANCH  15  18
ENDBRANCH   5  14
TORSDOF 3
ENDMDL
