MODEL 1
REMARK VINA RESULT:      -8.8      0.000      0.000
REMARK  5 active torsions:
REMARK  status: ('A' for Active; 'I' for Inactive)
REMARK    1  A    between atoms: N_2  and  C_4 
REMARK    2  A    between atoms: C_4  and  C_5 
REMARK    3  A    between atoms: C_5  and  N_6 
REMARK    4  A    between atoms: C_11  and  C_12 
REMARK    5  A    between atoms: C_14  and  O_15 
ROOT
HETATM    1  N   UNL     1      42.082 -13.469   3.611  1.00  0.00    -0.332 N 
HETATM    2  C   UNL     1      42.287 -12.576   2.561  1.00  0.00     0.279 C 
HETATM    3  O   UNL     1      42.990 -11.584   2.594  1.00  0.00    -0.265 OA
HETATM    4  C   UNL     1      41.512 -13.074   1.412  1.00  0.00     0.156 A 
HETATM    5  C   UNL     1      41.004 -14.247   1.786  1.00  0.00     0.060 A 
HETATM    6  C   UNL     1      41.376 -14.668   3.154  1.00  0.00     0.161 C 
HETATM    7  O   UNL     1      41.367 -12.444   0.210  1.00  0.00    -0.303 OA
HETATM    8  C   UNL     1      40.625 -13.123  -0.736  1.00  0.00     0.090 A 
HETATM    9  C   UNL     1      40.001 -14.356  -0.477  1.00  0.00     0.051 A 
HETATM   10  C   UNL     1      40.137 -14.967   0.864  1.00  0.00     0.196 A 
HETATM   11  O   UNL     1      39.558 -15.988   1.199  1.00  0.00    -0.287 OA
HETATM   12  C   UNL     1      40.509 -12.532  -1.995  1.00  0.00     0.041 A 
HETATM   13  C   UNL     1      39.774 -13.176  -2.991  1.00  0.00     0.045 A 
HETATM   14  C   UNL     1      39.160 -14.398  -2.721  1.00  0.00     0.117 A 
HETATM   15  F   UNL     1      38.460 -15.007  -3.686  1.00  0.00    -0.206 F 
HETATM   16  C   UNL     1      39.263 -14.999  -1.472  1.00  0.00     0.060 A 
ENDROOT
BRANCH   6  17
HETATM   17  C   UNL     1      42.240 -15.914   3.209  1.00  0.00    -0.028 A 
HETATM   18  C   UNL     1      42.423 -16.572   4.438  1.00  0.00     0.046 A 
HETATM   19  C   UNL     1      43.251 -17.688   4.513  1.00  0.00     0.066 A 
HETATM   20  C   UNL     1      43.903 -18.174   3.387  1.00  0.00     0.036 A 
HETATM   21  C   UNL     1      43.709 -17.550   2.158  1.00  0.00     0.003 A 
HETATM   22  C   UNL     1      42.882 -16.430   2.067  1.00  0.00     0.010 A 
BRANCH  19  23
HETATM   23  O   UNL     1      43.457 -18.338   5.693  1.00  0.00    -0.361 OA
HETATM   24  H   UNL     1      42.701 -18.922   5.871  1.00  0.00     0.217 HD
ENDBRANCH  19  23
ENDBRANCH   6  17
BRANCH   1  25
HETATM   25  C   UNL     1      42.894 -13.448   4.820  1.00  0.00     0.155 C 
BRANCH  25  26
HETATM   26  C   UNL     1      42.124 -13.054   6.096  1.00  0.00     0.254 C 
BRANCH  26  27
HETATM   27  N   UNL     1      42.768 -11.866   6.798  1.00  0.00    -0.077 N 
HETATM   28  C   UNL     1      42.636 -10.567   6.054  1.00  0.00     0.269 C 
HETATM   29  H   UNL     1      42.286 -11.757   7.702  1.00  0.00     0.279 HD
HETATM   30  C   UNL     1      44.208 -12.156   7.137  1.00  0.00     0.269 C 
ENDBRANCH  26  27
ENDBRANCH  25  26
ENDBRANCH   1  25
TORSDOF 5
ENDMDL
MODEL 2
REMARK VINA RESULT:      -8.7      2.938      6.280
REMARK  5 active torsions:
REMARK  status: ('A' for Active; 'I' for Inactive)
REMARK    1  A    between atoms: N_2  and  C_4 
REMARK    2  A    between atoms: C_4  and  C_5 
REMARK    3  A    between atoms: C_5  and  N_6 
REMARK    4  A    between atoms: C_11  and  C_12 
REMARK    5  A    between atoms: C_14  and  O_15 
ROOT
HETATM    1  N   UNL     1      43.067 -13.662   4.935  1.00  0.00    -0.332 N 
HETATM    2  C   UNL     1      43.000 -14.574   5.987  1.00  0.00     0.279 C 
HETATM    3  O   UNL     1      42.765 -14.308   7.150  1.00  0.00    -0.265 OA
HETATM    4  C   UNL     1      43.248 -15.910   5.418  1.00  0.00     0.156 A 
HETATM    5  C   UNL     1      43.328 -15.743   4.098  1.00  0.00     0.060 A 
HETATM    6  C   UNL     1      43.132 -14.349   3.644  1.00  0.00     0.161 C 
HETATM    7  O   UNL     1      43.359 -17.073   6.122  1.00  0.00    -0.303 OA
HETATM    8  C   UNL     1      43.550 -18.214   5.368  1.00  0.00     0.090 A 
HETATM    9  C   UNL     1      43.685 -18.191   3.968  1.00  0.00     0.051 A 
HETATM   10  C   UNL     1      43.620 -16.895   3.258  1.00  0.00     0.196 A 
HETATM   11  O   UNL     1      43.815 -16.776   2.058  1.00  0.00    -0.287 OA
HETATM   12  C   UNL     1      43.608 -19.426   6.056  1.00  0.00     0.041 A 
HETATM   13  C   UNL     1      43.796 -20.611   5.343  1.00  0.00     0.045 A 
HETATM   14  C   UNL     1      43.928 -20.576   3.956  1.00  0.00     0.117 A 
HETATM   15  F   UNL     1      44.105 -21.720   3.285  1.00  0.00    -0.206 F 
HETATM   16  C   UNL     1      43.876 -19.376   3.257  1.00  0.00     0.060 A 
ENDROOT
BRANCH   6  17
HETATM   17  C   UNL     1      41.886 -14.137   2.804  1.00  0.00    -0.028 A 
HETATM   18  C   UNL     1      42.017 -13.708   1.472  1.00  0.00     0.046 A 
HETATM   19  C   UNL     1      40.882 -13.464   0.704  1.00  0.00     0.066 A 
HETATM   20  C   UNL     1      39.610 -13.641   1.230  1.00  0.00     0.036 A 
HETATM   21  C   UNL     1      39.464 -14.093   2.539  1.00  0.00     0.003 A 
HETATM   22  C   UNL     1      40.592 -14.342   3.321  1.00  0.00     0.010 A 
BRANCH  19  23
HETATM   23  O   UNL     1      40.980 -13.035  -0.585  1.00  0.00    -0.361 OA
HETATM   24  H   UNL     1      41.662 -12.345  -0.641  1.00  0.00     0.217 HD
ENDBRANCH  19  23
ENDBRANCH   6  17
BRANCH   1  25
HETATM   25  C   UNL     1      42.615 -12.284   5.071  1.00  0.00     0.155 C 
BRANCH  25  26
HETATM   26  C   UNL     1      43.740 -11.272   5.365  1.00  0.00     0.254 C 
BRANCH  26  27
HETATM   27  N   UNL     1      44.352 -11.496   6.743  1.00  0.00    -0.077 N 
HETATM   28  C   UNL     1      43.661 -10.752   7.850  1.00  0.00     0.269 C 
HETATM   29  H   UNL     1      44.268 -12.503   6.945  1.00  0.00     0.279 HD
HETATM   30  C   UNL     1      45.831 -11.206   6.729  1.00  0.00     0.269 C 
ENDBRANCH  26  27
ENDBRANCH  25  26
ENDBRANCH   1  25
TORSDOF 5
ENDMDL
MODEL 3
REMARK VINA RESULT:      -8.7      3.982      6.270
REMARK  5 active torsions:
REMARK  status: ('A' for Active; 'I' for Inactive)
REMARK    1  A    between atoms: N_2  and  C_4 
REMARK    2  A    between atoms: C_4  and  C_5 
REMARK    3  A    between atoms: C_5  and  N_6 
REMARK    4  A    between atoms: C_11  and  C_12 
REMARK    5  A    between atoms: C_14  and  O_15 
ROOT
HETATM    1  N   UNL     1      41.616 -12.182   5.233  1.00  0.00    -0.332 N 
HETATM    2  C   UNL     1      41.584 -12.814   3.991  1.00  0.00     0.279 C 
HETATM    3  O   UNL     1      41.138 -12.344   2.962  1.00  0.00    -0.265 OA
HETATM    4  C   UNL     1      42.207 -14.137   4.163  1.00  0.00     0.156 A 
HETATM    5  C   UNL     1      42.662 -14.175   5.414  1.00  0.00     0.060 A 
HETATM    6  C   UNL     1      42.432 -12.935   6.188  1.00  0.00     0.161 C 
HETATM    7  O   UNL     1      42.296 -15.111   3.211  1.00  0.00    -0.303 OA
HETATM    8  C   UNL     1      42.963 -16.259   3.588  1.00  0.00     0.090 A 
HETATM    9  C   UNL     1      43.472 -16.455   4.884  1.00  0.00     0.051 A 
HETATM   10  C   UNL     1      43.294 -15.394   5.899  1.00  0.00     0.196 A 
HETATM   11  O   UNL     1      43.626 -15.518   7.068  1.00  0.00    -0.287 OA
HETATM   12  C   UNL     1      43.122 -17.248   2.617  1.00  0.00     0.041 A 
HETATM   13  C   UNL     1      43.792 -18.428   2.943  1.00  0.00     0.045 A 
HETATM   14  C   UNL     1      44.292 -18.611   4.232  1.00  0.00     0.117 A 
HETATM   15  F   UNL     1      44.935 -19.747   4.530  1.00  0.00    -0.206 F 
HETATM   16  C   UNL     1      44.139 -17.637   5.211  1.00  0.00     0.060 A 
ENDROOT
BRANCH   6  17
HETATM   17  C   UNL     1      43.701 -12.202   6.581  1.00  0.00    -0.028 A 
HETATM   18  C   UNL     1      43.862 -11.767   7.908  1.00  0.00     0.046 A 
HETATM   19  C   UNL     1      44.999 -11.051   8.273  1.00  0.00     0.066 A 
HETATM   20  C   UNL     1      45.989 -10.759   7.346  1.00  0.00     0.036 A 
HETATM   21  C   UNL     1      45.857 -11.207   6.035  1.00  0.00     0.003 A 
HETATM   22  C   UNL     1      44.723 -11.926   5.654  1.00  0.00     0.010 A 
BRANCH  19  23
HETATM   23  O   UNL     1      45.175 -10.607   9.549  1.00  0.00    -0.361 OA
HETATM   24  H   UNL     1      45.915 -11.088   9.955  1.00  0.00     0.217 HD
ENDBRANCH  19  23
ENDBRANCH   6  17
BRANCH   1  25
HETATM   25  C   UNL     1      41.331 -10.763   5.391  1.00  0.00     0.155 C 
BRANCH  25  26
HETATM   26  C   UNL     1      40.128 -10.454   6.304  1.00  0.00     0.254 C 
BRANCH  26  27
HETATM   27  N   UNL     1      40.574 -10.053   7.705  1.00  0.00    -0.077 N 
HETATM   28  C   UNL     1      39.444  -9.693   8.629  1.00  0.00     0.269 C 
HETATM   29  H   UNL     1      41.056 -10.869   8.108  1.00  0.00     0.279 HD
HETATM   30  C   UNL     1      41.606  -8.956   7.650  1.00  0.00     0.269 C 
ENDBRANCH  26  27
ENDBRANCH  25  26
ENDBRANCH   1  25
TORSDOF 5
ENDMDL
MODEL 4
REMARK VINA RESULT:      -8.6      3.946      6.350
REMARK  5 active torsions:
REMARK  status: ('A' for Active; 'I' for Inactive)
REMARK    1  A    between atoms: N_2  and  C_4 
REMARK    2  A    between atoms: C_4  and  C_5 
REMARK    3  A    between atoms: C_5  and  N_6 
REMARK    4  A    between atoms: C_11  and  C_12 
REMARK    5  A    between atoms: C_14  and  O_15 
ROOT
HETATM    1  N   UNL     1      42.138 -11.680   4.748  1.00  0.00    -0.332 N 
HETATM    2  C   UNL     1      42.243 -12.367   3.540  1.00  0.00     0.279 C 
HETATM    3  O   UNL     1      42.053 -11.898   2.433  1.00  0.00    -0.265 OA
HETATM    4  C   UNL     1      42.641 -13.748   3.860  1.00  0.00     0.156 A 
HETATM    5  C   UNL     1      42.858 -13.778   5.173  1.00  0.00     0.060 A 
HETATM    6  C   UNL     1      42.662 -12.481   5.857  1.00  0.00     0.161 C 
HETATM    7  O   UNL     1      42.767 -14.773   2.968  1.00  0.00    -0.303 OA
HETATM    8  C   UNL     1      43.196 -15.975   3.493  1.00  0.00     0.090 A 
HETATM    9  C   UNL     1      43.435 -16.167   4.865  1.00  0.00     0.051 A 
HETATM   10  C   UNL     1      43.223 -15.040   5.800  1.00  0.00     0.196 A 
HETATM   11  O   UNL     1      43.323 -15.144   7.013  1.00  0.00    -0.287 OA
HETATM   12  C   UNL     1      43.390 -17.026   2.596  1.00  0.00     0.041 A 
HETATM   13  C   UNL     1      43.827 -18.263   3.072  1.00  0.00     0.045 A 
HETATM   14  C   UNL     1      44.061 -18.440   4.435  1.00  0.00     0.117 A 
HETATM   15  F   UNL     1      44.482 -19.631   4.878  1.00  0.00    -0.206 F 
HETATM   16  C   UNL     1      43.868 -17.405   5.342  1.00  0.00     0.060 A 
ENDROOT
BRANCH   6  17
HETATM   17  C   UNL     1      43.927 -11.894   6.455  1.00  0.00    -0.028 A 
HETATM   18  C   UNL     1      43.940 -11.520   7.810  1.00  0.00     0.046 A 
HETATM   19  C   UNL     1      45.078 -10.937   8.361  1.00  0.00     0.066 A 
HETATM   20  C   UNL     1      46.214 -10.720   7.594  1.00  0.00     0.036 A 
HETATM   21  C   UNL     1      46.227 -11.112   6.258  1.00  0.00     0.003 A 
HETATM   22  C   UNL     1      45.094 -11.697   5.692  1.00  0.00     0.010 A 
BRANCH  19  23
HETATM   23  O   UNL     1      45.113 -10.553   9.668  1.00  0.00    -0.361 OA
HETATM   24  H   UNL     1      45.508  -9.667   9.729  1.00  0.00     0.217 HD
ENDBRANCH  19  23
ENDBRANCH   6  17
BRANCH   1  25
HETATM   25  C   UNL     1      42.022 -10.230   4.811  1.00  0.00     0.155 C 
BRANCH  25  26
HETATM   26  C   UNL     1      40.692  -9.723   5.402  1.00  0.00     0.254 C 
BRANCH  26  27
HETATM   27  N   UNL     1      39.545 -10.683   5.110  1.00  0.00    -0.077 N 
HETATM   28  C   UNL     1      38.729 -10.314   3.902  1.00  0.00     0.269 C 
HETATM   29  H   UNL     1      39.967 -11.605   4.930  1.00  0.00     0.279 HD
HETATM   30  C   UNL     1      38.670 -10.864   6.324  1.00  0.00     0.269 C 
ENDBRANCH  26  27
ENDBRANCH  25  26
ENDBRANCH   1  25
TORSDOF 5
ENDMDL
MODEL 5
REMARK VINA RESULT:      -8.4      3.125      6.494
REMARK  5 active torsions:
REMARK  status: ('A' for Active; 'I' for Inactive)
REMARK    1  A    between atoms: N_2  and  C_4 
REMARK    2  A    between atoms: C_4  and  C_5 
REMARK    3  A    between atoms: C_5  and  N_6 
REMARK    4  A    between atoms: C_11  and  C_12 
REMARK    5  A    between atoms: C_14  and  O_15 
ROOT
HETATM    1  N   UNL     1      39.815 -13.915   3.080  1.00  0.00    -0.332 N 
HETATM    2  C   UNL     1      40.210 -14.795   2.073  1.00  0.00     0.279 C 
HETATM    3  O   UNL     1      39.878 -14.738   0.904  1.00  0.00    -0.265 OA
HETATM    4  C   UNL     1      41.110 -15.783   2.691  1.00  0.00     0.156 A 
HETATM    5  C   UNL     1      41.290 -15.387   3.949  1.00  0.00     0.060 A 
HETATM    6  C   UNL     1      40.585 -14.137   4.306  1.00  0.00     0.161 C 
HETATM    7  O   UNL     1      41.649 -16.873   2.071  1.00  0.00    -0.303 OA
HETATM    8  C   UNL     1      42.502 -17.639   2.841  1.00  0.00     0.090 A 
HETATM    9  C   UNL     1      42.766 -17.363   4.194  1.00  0.00     0.051 A 
HETATM   10  C   UNL     1      42.106 -16.204   4.837  1.00  0.00     0.196 A 
HETATM   11  O   UNL     1      42.210 -15.946   6.026  1.00  0.00    -0.287 OA
HETATM   12  C   UNL     1      43.115 -18.726   2.217  1.00  0.00     0.041 A 
HETATM   13  C   UNL     1      43.991 -19.532   2.947  1.00  0.00     0.045 A 
HETATM   14  C   UNL     1      44.243 -19.247   4.288  1.00  0.00     0.117 A 
HETATM   15  F   UNL     1      45.087 -20.027   4.976  1.00  0.00    -0.206 F 
HETATM   16  C   UNL     1      43.638 -18.170   4.925  1.00  0.00     0.060 A 
ENDROOT
BRANCH   6  17
HETATM   17  C   UNL     1      41.504 -12.976   4.638  1.00  0.00    -0.028 A 
HETATM   18  C   UNL     1      42.647 -12.755   3.851  1.00  0.00     0.046 A 
HETATM   19  C   UNL     1      43.525 -11.723   4.172  1.00  0.00     0.066 A 
HETATM   20  C   UNL     1      43.290 -10.896   5.262  1.00  0.00     0.036 A 
HETATM   21  C   UNL     1      42.147 -11.085   6.034  1.00  0.00     0.003 A 
HETATM   22  C   UNL     1      41.258 -12.115   5.725  1.00  0.00     0.010 A 
BRANCH  19  23
HETATM   23  O   UNL     1      44.647 -11.494   3.433  1.00  0.00    -0.361 OA
HETATM   24  H   UNL     1      44.665 -10.561   3.162  1.00  0.00     0.217 HD
ENDBRANCH  19  23
ENDBRANCH   6  17
BRANCH   1  25
HETATM   25  C   UNL     1      39.138 -12.658   2.793  1.00  0.00     0.155 C 
BRANCH  25  26
HETATM   26  C   UNL     1      39.839 -11.787   1.732  1.00  0.00     0.254 C 
BRANCH  26  27
HETATM   27  N   UNL     1      39.157 -11.898   0.373  1.00  0.00    -0.077 N 
HETATM   28  C   UNL     1      39.990 -11.400  -0.774  1.00  0.00     0.269 C 
HETATM   29  H   UNL     1      38.975 -12.900   0.213  1.00  0.00     0.279 HD
HETATM   30  C   UNL     1      37.803 -11.236   0.393  1.00  0.00     0.269 C 
ENDBRANCH  26  27
ENDBRANCH  25  26
ENDBRANCH   1  25
TORSDOF 5
ENDMDL
MODEL 6
REMARK VINA RESULT:      -7.9      4.044      7.874
REMARK  5 active torsions:
REMARK  status: ('A' for Active; 'I' for Inactive)
REMARK    1  A    between atoms: N_2  and  C_4 
REMARK    2  A    between atoms: C_4  and  C_5 
REMARK    3  A    between atoms: C_5  and  N_6 
REMARK    4  A    between atoms: C_11  and  C_12 
REMARK    5  A    between atoms: C_14  and  O_15 
ROOT
HETATM    1  N   UNL     1      41.180 -12.526   4.532  1.00  0.00    -0.332 N 
HETATM    2  C   UNL     1      40.656 -11.556   5.385  1.00  0.00     0.279 C 
HETATM    3  O   UNL     1      39.510 -11.148   5.385  1.00  0.00    -0.265 OA
HETATM    4  C   UNL     1      41.743 -11.141   6.288  1.00  0.00     0.156 A 
HETATM    5  C   UNL     1      42.777 -11.935   6.015  1.00  0.00     0.060 A 
HETATM    6  C   UNL     1      42.516 -12.942   4.964  1.00  0.00     0.161 C 
HETATM    7  O   UNL     1      41.676 -10.146   7.219  1.00  0.00    -0.303 OA
HETATM    8  C   UNL     1      42.811  -9.963   7.983  1.00  0.00     0.090 A 
HETATM    9  C   UNL     1      43.991 -10.704   7.790  1.00  0.00     0.051 A 
HETATM   10  C   UNL     1      44.032 -11.730   6.724  1.00  0.00     0.196 A 
HETATM   11  O   UNL     1      45.040 -12.355   6.431  1.00  0.00    -0.287 OA
HETATM   12  C   UNL     1      42.753  -8.991   8.983  1.00  0.00     0.041 A 
HETATM   13  C   UNL     1      43.870  -8.767   9.788  1.00  0.00     0.045 A 
HETATM   14  C   UNL     1      45.033  -9.509   9.586  1.00  0.00     0.117 A 
HETATM   15  F   UNL     1      46.097  -9.285  10.367  1.00  0.00    -0.206 F 
HETATM   16  C   UNL     1      45.109 -10.477   8.592  1.00  0.00     0.060 A 
ENDROOT
BRANCH   6  17
HETATM   17  C   UNL     1      42.552 -14.378   5.454  1.00  0.00    -0.028 A 
HETATM   18  C   UNL     1      43.135 -15.369   4.644  1.00  0.00     0.046 A 
HETATM   19  C   UNL     1      43.134 -16.697   5.059  1.00  0.00     0.066 A 
HETATM   20  C   UNL     1      42.566 -17.068   6.270  1.00  0.00     0.036 A 
HETATM   21  C   UNL     1      42.010 -16.095   7.096  1.00  0.00     0.003 A 
HETATM   22  C   UNL     1      42.004 -14.759   6.694  1.00  0.00     0.010 A 
BRANCH  19  23
HETATM   23  O   UNL     1      43.680 -17.679   4.289  1.00  0.00    -0.361 OA
HETATM   24  H   UNL     1      43.500 -18.542   4.697  1.00  0.00     0.217 HD
ENDBRANCH  19  23
ENDBRANCH   6  17
BRANCH   1  25
HETATM   25  C   UNL     1      40.334 -13.353   3.683  1.00  0.00     0.155 C 
BRANCH  25  26
HETATM   26  C   UNL     1      40.704 -13.316   2.187  1.00  0.00     0.254 C 
BRANCH  26  27
HETATM   27  N   UNL     1      39.788 -14.207   1.358  1.00  0.00    -0.077 N 
HETATM   28  C   UNL     1      39.941 -15.676   1.641  1.00  0.00     0.269 C 
HETATM   29  H   UNL     1      38.821 -13.944   1.597  1.00  0.00     0.279 HD
HETATM   30  C   UNL     1      39.938 -13.916  -0.113  1.00  0.00     0.269 C 
ENDBRANCH  26  27
ENDBRANCH  25  26
ENDBRANCH   1  25
TORSDOF 5
ENDMDL
MODEL 7
REMARK VINA RESULT:      -7.9      3.642      7.278
REMARK  5 active torsions:
REMARK  status: ('A' for Active; 'I' for Inactive)
REMARK    1  A    between atoms: N_2  and  C_4 
REMARK    2  A    between atoms: C_4  and  C_5 
REMARK    3  A    between atoms: C_5  and  N_6 
REMARK    4  A    between atoms: C_11  and  C_12 
REMARK    5  A    between atoms: C_14  and  O_15 
ROOT
HETATM    1  N   UNL     1      42.832 -16.270   5.749  1.00  0.00    -0.332 N 
HETATM    2  C   UNL     1      43.937 -15.698   6.375  1.00  0.00     0.279 C 
HETATM    3  O   UNL     1      44.960 -16.277   6.689  1.00  0.00    -0.265 OA
HETATM    4  C   UNL     1      43.637 -14.268   6.563  1.00  0.00     0.156 A 
HETATM    5  C   UNL     1      42.470 -14.051   5.959  1.00  0.00     0.060 A 
HETATM    6  C   UNL     1      41.886 -15.243   5.307  1.00  0.00     0.161 C 
HETATM    7  O   UNL     1      44.420 -13.364   7.219  1.00  0.00    -0.303 OA
HETATM    8  C   UNL     1      43.952 -12.065   7.233  1.00  0.00     0.090 A 
HETATM    9  C   UNL     1      42.722 -11.690   6.663  1.00  0.00     0.051 A 
HETATM   10  C   UNL     1      41.881 -12.721   6.018  1.00  0.00     0.196 A 
HETATM   11  O   UNL     1      40.763 -12.498   5.578  1.00  0.00    -0.287 OA
HETATM   12  C   UNL     1      44.760 -11.107   7.845  1.00  0.00     0.041 A 
HETATM   13  C   UNL     1      44.339  -9.777   7.884  1.00  0.00     0.045 A 
HETATM   14  C   UNL     1      43.117  -9.417   7.316  1.00  0.00     0.117 A 
HETATM   15  F   UNL     1      42.726  -8.138   7.358  1.00  0.00    -0.206 F 
HETATM   16  C   UNL     1      42.299 -10.361   6.705  1.00  0.00     0.060 A 
ENDROOT
BRANCH   6  17
HETATM   17  C   UNL     1      41.792 -15.145   3.795  1.00  0.00    -0.028 A 
HETATM   18  C   UNL     1      40.653 -15.644   3.141  1.00  0.00     0.046 A 
HETATM   19  C   UNL     1      40.574 -15.603   1.752  1.00  0.00     0.066 A 
HETATM   20  C   UNL     1      41.605 -15.069   0.991  1.00  0.00     0.036 A 
HETATM   21  C   UNL     1      42.728 -14.545   1.626  1.00  0.00     0.003 A 
HETATM   22  C   UNL     1      42.821 -14.579   3.019  1.00  0.00     0.010 A 
BRANCH  19  23
HETATM   23  O   UNL     1      39.487 -16.092   1.091  1.00  0.00    -0.361 OA
HETATM   24  H   UNL     1      38.687 -15.658   1.430  1.00  0.00     0.217 HD
ENDBRANCH  19  23
ENDBRANCH   6  17
BRANCH   1  25
HETATM   25  C   UNL     1      42.872 -17.605   5.168  1.00  0.00     0.155 C 
BRANCH  25  26
HETATM   26  C   UNL     1      43.963 -17.800   4.098  1.00  0.00     0.254 C 
BRANCH  26  27
HETATM   27  N   UNL     1      44.349 -19.267   3.948  1.00  0.00    -0.077 N 
HETATM   28  C   UNL     1      43.722 -19.949   2.764  1.00  0.00     0.269 C 
HETATM   29  H   UNL     1      45.370 -19.294   3.819  1.00  0.00     0.279 HD
HETATM   30  C   UNL     1      44.079 -20.028   5.221  1.00  0.00     0.269 C 
ENDBRANCH  26  27
ENDBRANCH  25  26
ENDBRANCH   1  25
TORSDOF 5
ENDMDL
MODEL 8
REMARK VINA RESULT:      -7.7     15.340     17.333
REMARK  5 active torsions:
REMARK  status: ('A' for Active; 'I' for Inactive)
REMARK    1  A    between atoms: N_2  and  C_4 
REMARK    2  A    between atoms: C_4  and  C_5 
REMARK    3  A    between atoms: C_5  and  N_6 
REMARK    4  A    between atoms: C_11  and  C_12 
REMARK    5  A    between atoms: C_14  and  O_15 
ROOT
HETATM    1  N   UNL     1      47.012 -29.459   0.259  1.00  0.00    -0.332 N 
HETATM    2  C   UNL     1      46.426 -28.957   1.420  1.00  0.00     0.279 C 
HETATM    3  O   UNL     1      46.903 -28.111   2.152  1.00  0.00    -0.265 OA
HETATM    4  C   UNL     1      45.125 -29.629   1.574  1.00  0.00     0.156 A 
HETATM    5  C   UNL     1      44.960 -30.375   0.483  1.00  0.00     0.060 A 
HETATM    6  C   UNL     1      46.064 -30.282  -0.496  1.00  0.00     0.161 C 
HETATM    7  O   UNL     1      44.271 -29.490   2.629  1.00  0.00    -0.303 OA
HETATM    8  C   UNL     1      43.084 -30.189   2.536  1.00  0.00     0.090 A 
HETATM    9  C   UNL     1      42.782 -31.041   1.459  1.00  0.00     0.051 A 
HETATM   10  C   UNL     1      43.770 -31.206   0.369  1.00  0.00     0.196 A 
HETATM   11  O   UNL     1      43.626 -31.990  -0.555  1.00  0.00    -0.287 OA
HETATM   12  C   UNL     1      42.166 -30.020   3.573  1.00  0.00     0.041 A 
HETATM   13  C   UNL     1      40.948 -30.700   3.527  1.00  0.00     0.045 A 
HETATM   14  C   UNL     1      40.660 -31.542   2.454  1.00  0.00     0.117 A 
HETATM   15  F   UNL     1      39.487 -32.186   2.422  1.00  0.00    -0.206 F 
HETATM   16  C   UNL     1      41.566 -31.723   1.416  1.00  0.00     0.060 A 
ENDROOT
BRANCH   6  17
HETATM   17  C   UNL     1      45.671 -29.655  -1.821  1.00  0.00    -0.028 A 
HETATM   18  C   UNL     1      45.731 -30.428  -2.994  1.00  0.00     0.046 A 
HETATM   19  C   UNL     1      45.419 -29.853  -4.223  1.00  0.00     0.066 A 
HETATM   20  C   UNL     1      45.041 -28.521  -4.315  1.00  0.00     0.036 A 
HETATM   21  C   UNL     1      44.951 -27.750  -3.160  1.00  0.00     0.003 A 
HETATM   22  C   UNL     1      45.260 -28.312  -1.920  1.00  0.00     0.010 A 
BRANCH  19  23
HETATM   23  O   UNL     1      45.480 -30.576  -5.377  1.00  0.00    -0.361 OA
HETATM   24  H   UNL     1      44.802 -30.251  -5.992  1.00  0.00     0.217 HD
ENDBRANCH  19  23
ENDBRANCH   6  17
BRANCH   1  25
HETATM   25  C   UNL     1      48.178 -28.840  -0.354  1.00  0.00     0.155 C 
BRANCH  25  26
HETATM   26  C   UNL     1      49.421 -29.749  -0.416  1.00  0.00     0.254 C 
BRANCH  26  27
HETATM   27  N   UNL     1      49.546 -30.440  -1.769  1.00  0.00    -0.077 N 
HETATM   28  C   UNL     1      49.019 -31.848  -1.790  1.00  0.00     0.269 C 
HETATM   29  H   UNL     1      48.988 -29.889  -2.437  1.00  0.00     0.279 HD
HETATM   30  C   UNL     1      50.964 -30.381  -2.276  1.00  0.00     0.269 C 
ENDBRANCH  26  27
ENDBRANCH  25  26
ENDBRANCH   1  25
TORSDOF 5
ENDMDL
MODEL 9
REMARK VINA RESULT:      -7.6      2.005      4.690
REMARK  5 active torsions:
REMARK  status: ('A' for Active; 'I' for Inactive)
REMARK    1  A    between atoms: N_2  and  C_4 
REMARK    2  A    between atoms: C_4  and  C_5 
REMARK    3  A    between atoms: C_5  and  N_6 
REMARK    4  A    between atoms: C_11  and  C_12 
REMARK    5  A    between atoms: C_14  and  O_15 
ROOT
HETATM    1  N   UNL     1      42.165 -14.935   3.248  1.00  0.00    -0.332 N 
HETATM    2  C   UNL     1      41.406 -15.709   2.372  1.00  0.00     0.279 C 
HETATM    3  O   UNL     1      41.168 -16.896   2.490  1.00  0.00    -0.265 OA
HETATM    4  C   UNL     1      40.938 -14.815   1.299  1.00  0.00     0.156 A 
HETATM    5  C   UNL     1      41.327 -13.588   1.642  1.00  0.00     0.060 A 
HETATM    6  C   UNL     1      42.048 -13.510   2.931  1.00  0.00     0.161 C 
HETATM    7  O   UNL     1      40.238 -15.191   0.190  1.00  0.00    -0.303 OA
HETATM    8  C   UNL     1      39.869 -14.169  -0.661  1.00  0.00     0.090 A 
HETATM    9  C   UNL     1      40.234 -12.828  -0.447  1.00  0.00     0.051 A 
HETATM   10  C   UNL     1      41.048 -12.480   0.738  1.00  0.00     0.196 A 
HETATM   11  O   UNL     1      41.481 -11.359   0.951  1.00  0.00    -0.287 OA
HETATM   12  C   UNL     1      39.101 -14.516  -1.773  1.00  0.00     0.041 A 
HETATM   13  C   UNL     1      38.696 -13.521  -2.665  1.00  0.00     0.045 A 
HETATM   14  C   UNL     1      39.064 -12.195  -2.442  1.00  0.00     0.117 A 
HETATM   15  F   UNL     1      38.668 -11.251  -3.304  1.00  0.00    -0.206 F 
HETATM   16  C   UNL     1      39.832 -11.834  -1.341  1.00  0.00     0.060 A 
ENDROOT
BRANCH   6  17
HETATM   17  C   UNL     1      41.318 -12.729   4.007  1.00  0.00    -0.028 A 
HETATM   18  C   UNL     1      42.026 -11.791   4.779  1.00  0.00     0.046 A 
HETATM   19  C   UNL     1      41.381 -11.100   5.801  1.00  0.00     0.066 A 
HETATM   20  C   UNL     1      40.037 -11.317   6.074  1.00  0.00     0.036 A 
HETATM   21  C   UNL     1      39.315 -12.222   5.300  1.00  0.00     0.003 A 
HETATM   22  C   UNL     1      39.949 -12.921   4.272  1.00  0.00     0.010 A 
BRANCH  19  23
HETATM   23  O   UNL     1      42.046 -10.195   6.572  1.00  0.00    -0.361 OA
HETATM   24  H   UNL     1      41.404  -9.587   6.975  1.00  0.00     0.217 HD
ENDBRANCH  19  23
ENDBRANCH   6  17
BRANCH   1  25
HETATM   25  C   UNL     1      42.569 -15.418   4.561  1.00  0.00     0.155 C 
BRANCH  25  26
HETATM   26  C   UNL     1      43.793 -16.354   4.546  1.00  0.00     0.254 C 
BRANCH  26  27
HETATM   27  N   UNL     1      43.380 -17.820   4.590  1.00  0.00    -0.077 N 
HETATM   28  C   UNL     1      43.530 -18.460   5.942  1.00  0.00     0.269 C 
HETATM   29  H   UNL     1      42.381 -17.856   4.338  1.00  0.00     0.279 HD
HETATM   30  C   UNL     1      44.096 -18.615   3.528  1.00  0.00     0.269 C 
ENDBRANCH  26  27
ENDBRANCH  25  26
ENDBRANCH   1  25
TORSDOF 5
ENDMDL
MODEL 10
REMARK VINA RESULT:      -7.4      3.666      7.164
REMARK  5 active torsions:
REMARK  status: ('A' for Active; 'I' for Inactive)
REMARK    1  A    between atoms: N_2  and  C_4 
REMARK    2  A    between atoms: C_4  and  C_5 
REMARK    3  A    between atoms: C_5  and  N_6 
REMARK    4  A    between atoms: C_11  and  C_12 
REMARK    5  A    between atoms: C_14  and  O_15 
ROOT
HETATM    1  N   UNL     1      39.739 -12.339   3.181  1.00  0.00    -0.332 N 
HETATM    2  C   UNL     1      40.808 -13.001   2.580  1.00  0.00     0.279 C 
HETATM    3  O   UNL     1      41.295 -12.736   1.497  1.00  0.00    -0.265 OA
HETATM    4  C   UNL     1      41.240 -14.059   3.509  1.00  0.00     0.156 A 
HETATM    5  C   UNL     1      40.515 -13.901   4.615  1.00  0.00     0.060 A 
HETATM    6  C   UNL     1      39.572 -12.763   4.572  1.00  0.00     0.161 C 
HETATM    7  O   UNL     1      42.201 -14.996   3.265  1.00  0.00    -0.303 OA
HETATM    8  C   UNL     1      42.468 -15.865   4.305  1.00  0.00     0.090 A 
HETATM    9  C   UNL     1      41.763 -15.840   5.521  1.00  0.00     0.051 A 
HETATM   10  C   UNL     1      40.685 -14.843   5.711  1.00  0.00     0.196 A 
HETATM   11  O   UNL     1      39.967 -14.810   6.698  1.00  0.00    -0.287 OA
HETATM   12  C   UNL     1      43.488 -16.796   4.107  1.00  0.00     0.041 A 
HETATM   13  C   UNL     1      43.802 -17.697   5.126  1.00  0.00     0.045 A 
HETATM   14  C   UNL     1      43.096 -17.661   6.327  1.00  0.00     0.117 A 
HETATM   15  F   UNL     1      43.409 -18.529   7.298  1.00  0.00    -0.206 F 
HETATM   16  C   UNL     1      42.075 -16.742   6.539  1.00  0.00     0.060 A 
ENDROOT
BRANCH   6  17
HETATM   17  C   UNL     1      39.885 -11.656   5.563  1.00  0.00    -0.028 A 
HETATM   18  C   UNL     1      41.213 -11.221   5.713  1.00  0.00     0.046 A 
HETATM   19  C   UNL     1      41.523 -10.241   6.652  1.00  0.00     0.066 A 
HETATM   20  C   UNL     1      40.537  -9.674   7.447  1.00  0.00     0.036 A 
HETATM   21  C   UNL     1      39.213 -10.074   7.290  1.00  0.00     0.003 A 
HETATM   22  C   UNL     1      38.887 -11.056   6.354  1.00  0.00     0.010 A 
BRANCH  19  23
HETATM   23  O   UNL     1      42.804  -9.810   6.827  1.00  0.00    -0.361 OA
HETATM   24  H   UNL     1      43.371 -10.214   6.149  1.00  0.00     0.217 HD
ENDBRANCH  19  23
ENDBRANCH   6  17
BRANCH   1  25
HETATM   25  C   UNL     1      39.227 -11.072   2.677  1.00  0.00     0.155 C 
BRANCH  25  26
HETATM   26  C   UNL     1      38.148 -11.212   1.585  1.00  0.00     0.254 C 
BRANCH  26  27
HETATM   27  N   UNL     1      38.765 -11.359   0.200  1.00  0.00    -0.077 N 
HETATM   28  C   UNL     1      39.484 -10.132  -0.286  1.00  0.00     0.269 C 
HETATM   29  H   UNL     1      39.457 -12.120   0.262  1.00  0.00     0.279 HD
HETATM   30  C   UNL     1      37.738 -11.823  -0.802  1.00  0.00     0.269 C 
ENDBRANCH  26  27
ENDBRANCH  25  26
ENDBRANCH   1  25
TORSDOF 5
ENDMDL
