MODEL 1
REMARK VINA RESULT:      -8.0      0.000      0.000
REMARK  5 active torsions:
REMARK  status: ('A' for Active; 'I' for Inactive)
REMARK    1  A    between atoms: C_2  and  O_3 
REMARK    2  A    between atoms: O_3  and  C_4 
REMARK    3  A    between atoms: C_5  and  C_6 
REMARK       I    between atoms: C_6  and  N_7 
REMARK    4  A    between atoms: N_7  and  N_8 
REMARK    5  A    between atoms: C_9  and  C_10 
ROOT
HETATM    1  C   UNL     1      43.092 -16.827   2.808  1.00  0.00     0.274 C 
HETATM    2  N   UNL     1      42.222 -16.163   3.657  1.00  0.00    -0.243 N 
HETATM    3  O   UNL     1      43.526 -16.371   1.751  1.00  0.00    -0.266 OA
HETATM    4  H   UNL     1      41.920 -16.615   4.516  1.00  0.00     0.192 HD
ENDROOT
BRANCH   2   5
HETATM    5  N   UNL     1      41.718 -14.947   3.299  1.00  0.00    -0.183 NA
HETATM    6  C   UNL     1      40.440 -14.896   3.116  1.00  0.00     0.152 C 
BRANCH   6   7
HETATM    7  C   UNL     1      39.836 -13.648   2.695  1.00  0.00     0.011 A 
HETATM    8  C   UNL     1      39.610 -13.188   1.358  1.00  0.00     0.005 A 
HETATM    9  C   UNL     1      39.031 -11.919   1.443  1.00  0.00     0.043 A 
HETATM   10  C   UNL     1      39.859 -13.724   0.075  1.00  0.00     0.033 A 
HETATM   11  C   UNL     1      38.689 -11.158   0.319  1.00  0.00     0.031 A 
HETATM   12  N   UNL     1      38.897 -11.623   2.781  1.00  0.00    -0.364 N 
HETATM   13  C   UNL     1      38.946 -11.709  -0.939  1.00  0.00     0.021 A 
HETATM   14  C   UNL     1      39.522 -12.971  -1.055  1.00  0.00     0.012 A 
HETATM   15 BR   UNL     1      39.861 -13.684  -2.775  1.00  0.00    -0.051 Br
HETATM   16  H   UNL     1      38.511 -10.765   3.147  1.00  0.00     0.165 HD
HETATM   17  C   UNL     1      39.382 -12.651   3.539  1.00  0.00     0.102 A 
ENDBRANCH   6   7
ENDBRANCH   2   5
BRANCH   1  18
HETATM   18  C   UNL     1      43.458 -18.222   3.203  1.00  0.00     0.067 A 
HETATM   19  C   UNL     1      43.946 -18.582   4.470  1.00  0.00     0.084 A 
HETATM   20  C   UNL     1      44.198 -19.932   4.757  1.00  0.00     0.038 A 
HETATM   21  C   UNL     1      44.011 -20.911   3.780  1.00  0.00     0.003 A 
HETATM   22  C   UNL     1      43.566 -20.555   2.511  1.00  0.00     0.001 A 
HETATM   23  C   UNL     1      43.289 -19.219   2.224  1.00  0.00     0.020 A 
BRANCH  19  24
HETATM   24  O   UNL     1      44.120 -17.607   5.422  1.00  0.00    -0.350 OA
BRANCH  24  25
HETATM   25  C   UNL     1      43.426 -17.867   6.649  1.00  0.00     0.171 C 
HETATM   26  C   UNL     1      42.813 -16.565   7.130  1.00  0.00     0.034 C 
ENDBRANCH  24  25
ENDBRANCH  19  24
ENDBRANCH   1  18
TORSDOF 5
ENDMDL
MODEL 2
REMARK VINA RESULT:      -7.7      5.220      8.457
REMARK  5 active torsions:
REMARK  status: ('A' for Active; 'I' for Inactive)
REMARK    1  A    between atoms: C_2  and  O_3 
REMARK    2  A    between atoms: O_3  and  C_4 
REMARK    3  A    between atoms: C_5  and  C_6 
REMARK       I    between atoms: C_6  and  N_7 
REMARK    4  A    between atoms: N_7  and  N_8 
REMARK    5  A    between atoms: C_9  and  C_10 
ROOT
HETATM    1  C   UNL     1      44.450 -11.338   7.593  1.00  0.00     0.274 C 
HETATM    2  N   UNL     1      43.617 -12.436   7.460  1.00  0.00    -0.243 N 
HETATM    3  O   UNL     1      45.476 -11.151   6.940  1.00  0.00    -0.266 OA
HETATM    4  H   UNL     1      42.784 -12.505   8.038  1.00  0.00     0.192 HD
ENDROOT
BRANCH   2   5
HETATM    5  N   UNL     1      43.959 -13.451   6.614  1.00  0.00    -0.183 NA
HETATM    6  C   UNL     1      43.281 -14.544   6.740  1.00  0.00     0.152 C 
BRANCH   6   7
HETATM    7  C   UNL     1      43.613 -15.681   5.904  1.00  0.00     0.011 A 
HETATM    8  C   UNL     1      42.992 -16.082   4.677  1.00  0.00     0.005 A 
HETATM    9  C   UNL     1      43.628 -17.249   4.248  1.00  0.00     0.043 A 
HETATM   10  C   UNL     1      41.934 -15.570   3.895  1.00  0.00     0.033 A 
HETATM   11  C   UNL     1      43.263 -17.934   3.083  1.00  0.00     0.031 A 
HETATM   12  N   UNL     1      44.606 -17.542   5.171  1.00  0.00    -0.364 N 
HETATM   13  C   UNL     1      42.211 -17.409   2.326  1.00  0.00     0.021 A 
HETATM   14  C   UNL     1      41.560 -16.246   2.728  1.00  0.00     0.012 A 
HETATM   15 BR   UNL     1      40.137 -15.567   1.681  1.00  0.00    -0.051 Br
HETATM   16  H   UNL     1      45.226 -18.338   5.123  1.00  0.00     0.165 HD
HETATM   17  C   UNL     1      44.602 -16.610   6.170  1.00  0.00     0.102 A 
ENDBRANCH   6   7
ENDBRANCH   2   5
BRANCH   1  18
HETATM   18  C   UNL     1      44.082 -10.361   8.663  1.00  0.00     0.067 A 
HETATM   19  C   UNL     1      42.867  -9.657   8.706  1.00  0.00     0.084 A 
HETATM   20  C   UNL     1      42.595  -8.810   9.791  1.00  0.00     0.038 A 
HETATM   21  C   UNL     1      43.540  -8.628  10.802  1.00  0.00     0.003 A 
HETATM   22  C   UNL     1      44.761  -9.293  10.744  1.00  0.00     0.001 A 
HETATM   23  C   UNL     1      45.030 -10.155   9.682  1.00  0.00     0.020 A 
BRANCH  19  24
HETATM   24  O   UNL     1      41.946  -9.850   7.705  1.00  0.00    -0.350 OA
BRANCH  24  25
HETATM   25  C   UNL     1      41.892  -8.779   6.754  1.00  0.00     0.171 C 
HETATM   26  C   UNL     1      41.771  -9.385   5.367  1.00  0.00     0.034 C 
ENDBRANCH  24  25
ENDBRANCH  19  24
ENDBRANCH   1  18
TORSDOF 5
ENDMDL
MODEL 3
REMARK VINA RESULT:      -7.6      3.158      8.389
REMARK  5 active torsions:
REMARK  status: ('A' for Active; 'I' for Inactive)
REMARK    1  A    between atoms: C_2  and  O_3 
REMARK    2  A    between atoms: O_3  and  C_4 
REMARK    3  A    between atoms: C_5  and  C_6 
REMARK       I    between atoms: C_6  and  N_7 
REMARK    4  A    between atoms: N_7  and  N_8 
REMARK    5  A    between atoms: C_9  and  C_10 
ROOT
HETATM    1  C   UNL     1      39.719 -12.438   0.649  1.00  0.00     0.274 C 
HETATM    2  N   UNL     1      39.536 -13.684   1.226  1.00  0.00    -0.243 N 
HETATM    3  O   UNL     1      40.584 -11.630   0.983  1.00  0.00    -0.266 OA
HETATM    4  H   UNL     1      38.798 -14.292   0.880  1.00  0.00     0.192 HD
ENDROOT
BRANCH   2   5
HETATM    5  N   UNL     1      40.291 -14.054   2.300  1.00  0.00    -0.183 NA
HETATM    6  C   UNL     1      41.342 -14.759   2.037  1.00  0.00     0.152 C 
BRANCH   6   7
HETATM    7  C   UNL     1      42.172 -15.224   3.131  1.00  0.00     0.011 A 
HETATM    8  C   UNL     1      42.806 -16.500   3.273  1.00  0.00     0.005 A 
HETATM    9  C   UNL     1      43.475 -16.501   4.500  1.00  0.00     0.043 A 
HETATM   10  C   UNL     1      42.863 -17.666   2.479  1.00  0.00     0.033 A 
HETATM   11  C   UNL     1      44.195 -17.604   4.976  1.00  0.00     0.031 A 
HETATM   12  N   UNL     1      43.267 -15.269   5.077  1.00  0.00    -0.364 N 
HETATM   13  C   UNL     1      44.234 -18.747   4.174  1.00  0.00     0.021 A 
HETATM   14  C   UNL     1      43.578 -18.774   2.946  1.00  0.00     0.012 A 
HETATM   15 BR   UNL     1      43.649 -20.342   1.888  1.00  0.00    -0.051 Br
HETATM   16  H   UNL     1      43.630 -14.984   5.976  1.00  0.00     0.165 HD
HETATM   17  C   UNL     1      42.483 -14.498   4.267  1.00  0.00     0.102 A 
ENDBRANCH   6   7
ENDBRANCH   2   5
BRANCH   1  18
HETATM   18  C   UNL     1      38.736 -12.055  -0.410  1.00  0.00     0.067 A 
HETATM   19  C   UNL     1      38.312 -12.910  -1.441  1.00  0.00     0.084 A 
HETATM   20  C   UNL     1      37.335 -12.470  -2.348  1.00  0.00     0.038 A 
HETATM   21  C   UNL     1      36.817 -11.177  -2.260  1.00  0.00     0.003 A 
HETATM   22  C   UNL     1      37.263 -10.313  -1.264  1.00  0.00     0.001 A 
HETATM   23  C   UNL     1      38.215 -10.750  -0.344  1.00  0.00     0.020 A 
BRANCH  19  24
HETATM   24  O   UNL     1      38.828 -14.181  -1.512  1.00  0.00    -0.350 OA
BRANCH  24  25
HETATM   25  C   UNL     1      39.427 -14.493  -2.776  1.00  0.00     0.171 C 
HETATM   26  C   UNL     1      40.723 -13.710  -2.890  1.00  0.00     0.034 C 
ENDBRANCH  24  25
ENDBRANCH  19  24
ENDBRANCH   1  18
TORSDOF 5
ENDMDL
MODEL 4
REMARK VINA RESULT:      -7.5      2.056      2.608
REMARK  5 active torsions:
REMARK  status: ('A' for Active; 'I' for Inactive)
REMARK    1  A    between atoms: C_2  and  O_3 
REMARK    2  A    between atoms: O_3  and  C_4 
REMARK    3  A    between atoms: C_5  and  C_6 
REMARK       I    between atoms: C_6  and  N_7 
REMARK    4  A    between atoms: N_7  and  N_8 
REMARK    5  A    between atoms: C_9  and  C_10 
ROOT
HETATM    1  C   UNL     1      43.014 -16.830   2.554  1.00  0.00     0.274 C 
HETATM    2  N   UNL     1      41.961 -16.220   3.216  1.00  0.00    -0.243 N 
HETATM    3  O   UNL     1      43.590 -16.364   1.572  1.00  0.00    -0.266 OA
HETATM    4  H   UNL     1      41.549 -16.675   4.026  1.00  0.00     0.192 HD
ENDROOT
BRANCH   2   5
HETATM    5  N   UNL     1      41.436 -15.057   2.732  1.00  0.00    -0.183 NA
HETATM    6  C   UNL     1      40.443 -15.184   1.914  1.00  0.00     0.152 C 
BRANCH   6   7
HETATM    7  C   UNL     1      39.858 -13.995   1.325  1.00  0.00     0.011 A 
HETATM    8  C   UNL     1      39.440 -12.798   1.992  1.00  0.00     0.005 A 
HETATM    9  C   UNL     1      38.911 -11.942   1.024  1.00  0.00     0.043 A 
HETATM   10  C   UNL     1      39.447 -12.365   3.336  1.00  0.00     0.033 A 
HETATM   11  C   UNL     1      38.387 -10.679   1.325  1.00  0.00     0.031 A 
HETATM   12  N   UNL     1      39.013 -12.587  -0.188  1.00  0.00    -0.364 N 
HETATM   13  C   UNL     1      38.403 -10.273   2.662  1.00  0.00     0.021 A 
HETATM   14  C   UNL     1      38.925 -11.105   3.649  1.00  0.00     0.012 A 
HETATM   15 BR   UNL     1      38.925 -10.525   5.450  1.00  0.00    -0.051 Br
HETATM   16  H   UNL     1      38.705 -12.207  -1.072  1.00  0.00     0.165 HD
HETATM   17  C   UNL     1      39.575 -13.820  -0.017  1.00  0.00     0.102 A 
ENDBRANCH   6   7
ENDBRANCH   2   5
BRANCH   1  18
HETATM   18  C   UNL     1      43.411 -18.180   3.058  1.00  0.00     0.067 A 
HETATM   19  C   UNL     1      43.935 -18.424   4.338  1.00  0.00     0.084 A 
HETATM   20  C   UNL     1      44.216 -19.740   4.733  1.00  0.00     0.038 A 
HETATM   21  C   UNL     1      44.020 -20.803   3.848  1.00  0.00     0.003 A 
HETATM   22  C   UNL     1      43.539 -20.562   2.566  1.00  0.00     0.001 A 
HETATM   23  C   UNL     1      43.235 -19.260   2.173  1.00  0.00     0.020 A 
BRANCH  19  24
HETATM   24  O   UNL     1      44.117 -17.368   5.199  1.00  0.00    -0.350 OA
BRANCH  24  25
HETATM   25  C   UNL     1      43.620 -17.608   6.522  1.00  0.00     0.171 C 
HETATM   26  C   UNL     1      42.482 -16.638   6.781  1.00  0.00     0.034 C 
ENDBRANCH  24  25
ENDBRANCH  19  24
ENDBRANCH   1  18
TORSDOF 5
ENDMDL
MODEL 5
REMARK VINA RESULT:      -7.3      4.110      5.523
REMARK  5 active torsions:
REMARK  status: ('A' for Active; 'I' for Inactive)
REMARK    1  A    between atoms: C_2  and  O_3 
REMARK    2  A    between atoms: O_3  and  C_4 
REMARK    3  A    between atoms: C_5  and  C_6 
REMARK       I    between atoms: C_6  and  N_7 
REMARK    4  A    between atoms: N_7  and  N_8 
REMARK    5  A    between atoms: C_9  and  C_10 
ROOT
HETATM    1  C   UNL     1      43.029 -16.341   5.252  1.00  0.00     0.274 C 
HETATM    2  N   UNL     1      41.746 -15.819   5.239  1.00  0.00    -0.243 N 
HETATM    3  O   UNL     1      43.978 -15.856   5.865  1.00  0.00    -0.266 OA
HETATM    4  H   UNL     1      41.018 -16.291   4.708  1.00  0.00     0.192 HD
ENDROOT
BRANCH   2   5
HETATM    5  N   UNL     1      41.486 -14.637   5.870  1.00  0.00    -0.183 NA
HETATM    6  C   UNL     1      41.403 -13.596   5.109  1.00  0.00     0.152 C 
BRANCH   6   7
HETATM    7  C   UNL     1      41.170 -12.298   5.711  1.00  0.00     0.011 A 
HETATM    8  C   UNL     1      42.121 -11.445   6.357  1.00  0.00     0.005 A 
HETATM    9  C   UNL     1      41.433 -10.315   6.805  1.00  0.00     0.043 A 
HETATM   10  C   UNL     1      43.505 -11.533   6.619  1.00  0.00     0.033 A 
HETATM   11  C   UNL     1      42.052  -9.270   7.503  1.00  0.00     0.031 A 
HETATM   12  N   UNL     1      40.116 -10.468   6.436  1.00  0.00    -0.364 N 
HETATM   13  C   UNL     1      43.422  -9.381   7.752  1.00  0.00     0.021 A 
HETATM   14  C   UNL     1      44.135 -10.495   7.316  1.00  0.00     0.012 A 
HETATM   15 BR   UNL     1      45.989 -10.613   7.676  1.00  0.00    -0.051 Br
HETATM   16  H   UNL     1      39.380  -9.804   6.632  1.00  0.00     0.165 HD
HETATM   17  C   UNL     1      39.947 -11.656   5.784  1.00  0.00     0.102 A 
ENDBRANCH   6   7
ENDBRANCH   2   5
BRANCH   1  18
HETATM   18  C   UNL     1      43.255 -17.545   4.395  1.00  0.00     0.067 A 
HETATM   19  C   UNL     1      42.872 -17.639   3.046  1.00  0.00     0.084 A 
HETATM   20  C   UNL     1      43.190 -18.793   2.315  1.00  0.00     0.038 A 
HETATM   21  C   UNL     1      43.842 -19.864   2.928  1.00  0.00     0.003 A 
HETATM   22  C   UNL     1      44.188 -19.792   4.274  1.00  0.00     0.001 A 
HETATM   23  C   UNL     1      43.898 -18.639   5.002  1.00  0.00     0.020 A 
BRANCH  19  24
HETATM   24  O   UNL     1      42.235 -16.574   2.456  1.00  0.00    -0.350 OA
BRANCH  24  25
HETATM   25  C   UNL     1      43.030 -15.898   1.473  1.00  0.00     0.171 C 
HETATM   26  C   UNL     1      43.359 -14.514   2.003  1.00  0.00     0.034 C 
ENDBRANCH  24  25
ENDBRANCH  19  24
ENDBRANCH   1  18
TORSDOF 5
ENDMDL
MODEL 6
REMARK VINA RESULT:      -7.3      2.349      3.838
REMARK  5 active torsions:
REMARK  status: ('A' for Active; 'I' for Inactive)
REMARK    1  A    between atoms: C_2  and  O_3 
REMARK    2  A    between atoms: O_3  and  C_4 
REMARK    3  A    between atoms: C_5  and  C_6 
REMARK       I    between atoms: C_6  and  N_7 
REMARK    4  A    between atoms: N_7  and  N_8 
REMARK    5  A    between atoms: C_9  and  C_10 
ROOT
HETATM    1  C   UNL     1      42.803 -15.207   2.708  1.00  0.00     0.274 C 
HETATM    2  N   UNL     1      41.667 -15.606   2.023  1.00  0.00    -0.243 N 
HETATM    3  O   UNL     1      43.595 -14.351   2.317  1.00  0.00    -0.266 OA
HETATM    4  H   UNL     1      41.064 -16.319   2.426  1.00  0.00     0.192 HD
ENDROOT
BRANCH   2   5
HETATM    5  N   UNL     1      41.409 -15.101   0.782  1.00  0.00    -0.183 NA
HETATM    6  C   UNL     1      40.263 -14.521   0.635  1.00  0.00     0.152 C 
BRANCH   6   7
HETATM    7  C   UNL     1      39.900 -13.995  -0.666  1.00  0.00     0.011 A 
HETATM    8  C   UNL     1      40.220 -12.712  -1.216  1.00  0.00     0.005 A 
HETATM    9  C   UNL     1      39.634 -12.641  -2.482  1.00  0.00     0.043 A 
HETATM   10  C   UNL     1      40.941 -11.591  -0.749  1.00  0.00     0.033 A 
HETATM   11  C   UNL     1      39.728 -11.512  -3.305  1.00  0.00     0.031 A 
HETATM   12  N   UNL     1      38.992 -13.839  -2.700  1.00  0.00    -0.364 N 
HETATM   13  C   UNL     1      40.446 -10.415  -2.821  1.00  0.00     0.021 A 
HETATM   14  C   UNL     1      41.042 -10.458  -1.563  1.00  0.00     0.012 A 
HETATM   15 BR   UNL     1      42.002  -8.951  -0.937  1.00  0.00    -0.051 Br
HETATM   16  H   UNL     1      38.475 -14.073  -3.535  1.00  0.00     0.165 HD
HETATM   17  C   UNL     1      39.142 -14.655  -1.615  1.00  0.00     0.102 A 
ENDBRANCH   6   7
ENDBRANCH   2   5
BRANCH   1  18
HETATM   18  C   UNL     1      43.092 -15.938   3.980  1.00  0.00     0.067 A 
HETATM   19  C   UNL     1      43.249 -17.332   4.073  1.00  0.00     0.084 A 
HETATM   20  C   UNL     1      43.582 -17.910   5.307  1.00  0.00     0.038 A 
HETATM   21  C   UNL     1      43.713 -17.118   6.449  1.00  0.00     0.003 A 
HETATM   22  C   UNL     1      43.519 -15.743   6.370  1.00  0.00     0.001 A 
HETATM   23  C   UNL     1      43.212 -15.156   5.143  1.00  0.00     0.020 A 
BRANCH  19  24
HETATM   24  O   UNL     1      43.121 -18.096   2.939  1.00  0.00    -0.350 OA
BRANCH  24  25
HETATM   25  C   UNL     1      43.938 -19.275   2.942  1.00  0.00     0.171 C 
HETATM   26  C   UNL     1      43.406 -20.220   1.880  1.00  0.00     0.034 C 
ENDBRANCH  24  25
ENDBRANCH  19  24
ENDBRANCH   1  18
TORSDOF 5
ENDMDL
MODEL 7
REMARK VINA RESULT:      -7.2      5.572      8.324
REMARK  5 active torsions:
REMARK  status: ('A' for Active; 'I' for Inactive)
REMARK    1  A    between atoms: C_2  and  O_3 
REMARK    2  A    between atoms: O_3  and  C_4 
REMARK    3  A    between atoms: C_5  and  C_6 
REMARK       I    between atoms: C_6  and  N_7 
REMARK    4  A    between atoms: N_7  and  N_8 
REMARK    5  A    between atoms: C_9  and  C_10 
ROOT
HETATM    1  C   UNL     1      44.480 -11.113   6.810  1.00  0.00     0.274 C 
HETATM    2  N   UNL     1      43.550 -12.126   6.643  1.00  0.00    -0.243 N 
HETATM    3  O   UNL     1      45.413 -10.883   6.043  1.00  0.00    -0.266 OA
HETATM    4  H   UNL     1      42.805 -12.239   7.326  1.00  0.00     0.192 HD
ENDROOT
BRANCH   2   5
HETATM    5  N   UNL     1      43.684 -13.009   5.612  1.00  0.00    -0.183 NA
HETATM    6  C   UNL     1      42.804 -12.917   4.670  1.00  0.00     0.152 C 
BRANCH   6   7
HETATM    7  C   UNL     1      42.858 -13.849   3.560  1.00  0.00     0.011 A 
HETATM    8  C   UNL     1      43.051 -15.267   3.611  1.00  0.00     0.005 A 
HETATM    9  C   UNL     1      43.060 -15.736   2.295  1.00  0.00     0.043 A 
HETATM   10  C   UNL     1      43.237 -16.199   4.655  1.00  0.00     0.033 A 
HETATM   11  C   UNL     1      43.245 -17.084   1.966  1.00  0.00     0.031 A 
HETATM   12  N   UNL     1      42.866 -14.647   1.475  1.00  0.00    -0.364 N 
HETATM   13  C   UNL     1      43.430 -17.987   3.016  1.00  0.00     0.021 A 
HETATM   14  C   UNL     1      43.425 -17.549   4.338  1.00  0.00     0.012 A 
HETATM   15 BR   UNL     1      43.682 -18.800   5.734  1.00  0.00    -0.051 Br
HETATM   16  H   UNL     1      42.831 -14.684   0.466  1.00  0.00     0.165 HD
HETATM   17  C   UNL     1      42.749 -13.511   2.224  1.00  0.00     0.102 A 
ENDBRANCH   6   7
ENDBRANCH   2   5
BRANCH   1  18
HETATM   18  C   UNL     1      44.348 -10.301   8.059  1.00  0.00     0.067 A 
HETATM   19  C   UNL     1      43.302  -9.396   8.306  1.00  0.00     0.084 A 
HETATM   20  C   UNL     1      43.239  -8.732   9.540  1.00  0.00     0.038 A 
HETATM   21  C   UNL     1      44.230  -8.928  10.503  1.00  0.00     0.003 A 
HETATM   22  C   UNL     1      45.289  -9.794  10.247  1.00  0.00     0.001 A 
HETATM   23  C   UNL     1      45.347 -10.477   9.033  1.00  0.00     0.020 A 
BRANCH  19  24
HETATM   24  O   UNL     1      42.331  -9.217   7.351  1.00  0.00    -0.350 OA
BRANCH  24  25
HETATM   25  C   UNL     1      41.006  -9.508   7.812  1.00  0.00     0.171 C 
HETATM   26  C   UNL     1      40.030  -8.682   6.994  1.00  0.00     0.034 C 
ENDBRANCH  24  25
ENDBRANCH  19  24
ENDBRANCH   1  18
TORSDOF 5
ENDMDL
MODEL 8
REMARK VINA RESULT:      -7.1      3.232      8.290
REMARK  5 active torsions:
REMARK  status: ('A' for Active; 'I' for Inactive)
REMARK    1  A    between atoms: C_2  and  O_3 
REMARK    2  A    between atoms: O_3  and  C_4 
REMARK    3  A    between atoms: C_5  and  C_6 
REMARK       I    between atoms: C_6  and  N_7 
REMARK    4  A    between atoms: N_7  and  N_8 
REMARK    5  A    between atoms: C_9  and  C_10 
ROOT
HETATM    1  C   UNL     1      40.276 -13.402  -0.363  1.00  0.00     0.274 C 
HETATM    2  N   UNL     1      40.244 -14.640   0.258  1.00  0.00    -0.243 N 
HETATM    3  O   UNL     1      41.191 -12.587  -0.258  1.00  0.00    -0.266 OA
HETATM    4  H   UNL     1      39.448 -15.254   0.109  1.00  0.00     0.192 HD
ENDROOT
BRANCH   2   5
HETATM    5  N   UNL     1      41.239 -14.993   1.123  1.00  0.00    -0.183 NA
HETATM    6  C   UNL     1      40.877 -15.202   2.345  1.00  0.00     0.152 C 
BRANCH   6   7
HETATM    7  C   UNL     1      41.885 -15.541   3.332  1.00  0.00     0.011 A 
HETATM    8  C   UNL     1      42.676 -16.732   3.406  1.00  0.00     0.005 A 
HETATM    9  C   UNL     1      43.486 -16.626   4.539  1.00  0.00     0.043 A 
HETATM   10  C   UNL     1      42.770 -17.904   2.624  1.00  0.00     0.033 A 
HETATM   11  C   UNL     1      44.383 -17.627   4.933  1.00  0.00     0.031 A 
HETATM   12  N   UNL     1      43.208 -15.412   5.125  1.00  0.00    -0.364 N 
HETATM   13  C   UNL     1      44.456 -18.778   4.145  1.00  0.00     0.021 A 
HETATM   14  C   UNL     1      43.662 -18.911   3.009  1.00  0.00     0.012 A 
HETATM   15 BR   UNL     1      43.784 -20.486   1.967  1.00  0.00    -0.051 Br
HETATM   16  H   UNL     1      43.643 -15.065   5.968  1.00  0.00     0.165 HD
HETATM   17  C   UNL     1      42.246 -14.756   4.412  1.00  0.00     0.102 A 
ENDBRANCH   6   7
ENDBRANCH   2   5
BRANCH   1  18
HETATM   18  C   UNL     1      39.063 -13.035  -1.157  1.00  0.00     0.067 A 
HETATM   19  C   UNL     1      38.328 -11.852  -0.976  1.00  0.00     0.084 A 
HETATM   20  C   UNL     1      37.242 -11.576  -1.820  1.00  0.00     0.038 A 
HETATM   21  C   UNL     1      36.860 -12.488  -2.805  1.00  0.00     0.003 A 
HETATM   22  C   UNL     1      37.560 -13.680  -2.962  1.00  0.00     0.001 A 
HETATM   23  C   UNL     1      38.656 -13.951  -2.144  1.00  0.00     0.020 A 
BRANCH  19  24
HETATM   24  O   UNL     1      38.720 -10.962  -0.005  1.00  0.00    -0.350 OA
BRANCH  24  25
HETATM   25  C   UNL     1      39.002  -9.648  -0.505  1.00  0.00     0.171 C 
HETATM   26  C   UNL     1      38.451  -8.639   0.485  1.00  0.00     0.034 C 
ENDBRANCH  24  25
ENDBRANCH  19  24
ENDBRANCH   1  18
TORSDOF 5
ENDMDL
MODEL 9
REMARK VINA RESULT:      -7.1      3.449      8.531
REMARK  5 active torsions:
REMARK  status: ('A' for Active; 'I' for Inactive)
REMARK    1  A    between atoms: C_2  and  O_3 
REMARK    2  A    between atoms: O_3  and  C_4 
REMARK    3  A    between atoms: C_5  and  C_6 
REMARK       I    between atoms: C_6  and  N_7 
REMARK    4  A    between atoms: N_7  and  N_8 
REMARK    5  A    between atoms: C_9  and  C_10 
ROOT
HETATM    1  C   UNL     1      41.160 -12.892   0.653  1.00  0.00     0.274 C 
HETATM    2  N   UNL     1      41.504 -14.205   0.379  1.00  0.00    -0.243 N 
HETATM    3  O   UNL     1      41.099 -12.402   1.780  1.00  0.00    -0.266 OA
HETATM    4  H   UNL     1      41.535 -14.523  -0.586  1.00  0.00     0.192 HD
ENDROOT
BRANCH   2   5
HETATM    5  N   UNL     1      41.719 -15.080   1.404  1.00  0.00    -0.183 NA
HETATM    6  C   UNL     1      42.819 -15.755   1.349  1.00  0.00     0.152 C 
BRANCH   6   7
HETATM    7  C   UNL     1      43.099 -16.734   2.381  1.00  0.00     0.011 A 
HETATM    8  C   UNL     1      43.253 -16.510   3.787  1.00  0.00     0.005 A 
HETATM    9  C   UNL     1      43.542 -17.742   4.379  1.00  0.00     0.043 A 
HETATM   10  C   UNL     1      43.189 -15.368   4.616  1.00  0.00     0.033 A 
HETATM   11  C   UNL     1      43.773 -17.895   5.751  1.00  0.00     0.031 A 
HETATM   12  N   UNL     1      43.552 -18.682   3.374  1.00  0.00    -0.364 N 
HETATM   13  C   UNL     1      43.706 -16.750   6.550  1.00  0.00     0.021 A 
HETATM   14  C   UNL     1      43.419 -15.509   5.989  1.00  0.00     0.012 A 
HETATM   15 BR   UNL     1      43.342 -13.980   7.101  1.00  0.00    -0.051 Br
HETATM   16  H   UNL     1      43.738 -19.666   3.506  1.00  0.00     0.165 HD
HETATM   17  C   UNL     1      43.293 -18.088   2.172  1.00  0.00     0.102 A 
ENDBRANCH   6   7
ENDBRANCH   2   5
BRANCH   1  18
HETATM   18  C   UNL     1      40.778 -12.054  -0.525  1.00  0.00     0.067 A 
HETATM   19  C   UNL     1      39.864 -12.453  -1.515  1.00  0.00     0.084 A 
HETATM   20  C   UNL     1      39.528 -11.563  -2.547  1.00  0.00     0.038 A 
HETATM   21  C   UNL     1      40.129 -10.305  -2.621  1.00  0.00     0.003 A 
HETATM   22  C   UNL     1      41.064  -9.921  -1.665  1.00  0.00     0.001 A 
HETATM   23  C   UNL     1      41.385 -10.789  -0.623  1.00  0.00     0.020 A 
BRANCH  19  24
HETATM   24  O   UNL     1      39.279 -13.693  -1.425  1.00  0.00    -0.350 OA
BRANCH  24  25
HETATM   25  C   UNL     1      38.137 -13.856  -2.277  1.00  0.00     0.171 C 
HETATM   26  C   UNL     1      38.415 -15.010  -3.223  1.00  0.00     0.034 C 
ENDBRANCH  24  25
ENDBRANCH  19  24
ENDBRANCH   1  18
TORSDOF 5
ENDMDL
MODEL 10
REMARK VINA RESULT:      -7.0      5.302      6.906
REMARK  5 active torsions:
REMARK  status: ('A' for Active; 'I' for Inactive)
REMARK    1  A    between atoms: C_2  and  O_3 
REMARK    2  A    between atoms: O_3  and  C_4 
REMARK    3  A    between atoms: C_5  and  C_6 
REMARK       I    between atoms: C_6  and  N_7 
REMARK    4  A    between atoms: N_7  and  N_8 
REMARK    5  A    between atoms: C_9  and  C_10 
ROOT
HETATM    1  C   UNL     1      43.440 -15.353   6.029  1.00  0.00     0.274 C 
HETATM    2  N   UNL     1      43.479 -14.042   5.584  1.00  0.00    -0.243 N 
HETATM    3  O   UNL     1      43.444 -15.694   7.210  1.00  0.00    -0.266 OA
HETATM    4  H   UNL     1      43.466 -13.851   4.586  1.00  0.00     0.192 HD
ENDROOT
BRANCH   2   5
HETATM    5  N   UNL     1      43.614 -13.023   6.482  1.00  0.00    -0.183 NA
HETATM    6  C   UNL     1      44.529 -12.150   6.213  1.00  0.00     0.152 C 
BRANCH   6   7
HETATM    7  C   UNL     1      44.759 -11.060   7.141  1.00  0.00     0.011 A 
HETATM    8  C   UNL     1      43.808 -10.111   7.636  1.00  0.00     0.005 A 
HETATM    9  C   UNL     1      44.493  -9.233   8.480  1.00  0.00     0.043 A 
HETATM   10  C   UNL     1      42.427  -9.903   7.433  1.00  0.00     0.033 A 
HETATM   11  C   UNL     1      43.874  -8.159   9.130  1.00  0.00     0.031 A 
HETATM   12  N   UNL     1      45.808  -9.640   8.508  1.00  0.00    -0.364 N 
HETATM   13  C   UNL     1      42.506  -7.972   8.913  1.00  0.00     0.021 A 
HETATM   14  C   UNL     1      41.797  -8.832   8.077  1.00  0.00     0.012 A 
HETATM   15 BR   UNL     1      39.947  -8.545   7.802  1.00  0.00    -0.051 Br
HETATM   16  H   UNL     1      46.541  -9.187   9.035  1.00  0.00     0.165 HD
HETATM   17  C   UNL     1      45.979 -10.731   7.705  1.00  0.00     0.102 A 
ENDBRANCH   6   7
ENDBRANCH   2   5
BRANCH   1  18
HETATM   18  C   UNL     1      43.462 -16.406   4.968  1.00  0.00     0.067 A 
HETATM   19  C   UNL     1      42.686 -16.365   3.798  1.00  0.00     0.084 A 
HETATM   20  C   UNL     1      42.830 -17.375   2.835  1.00  0.00     0.038 A 
HETATM   21  C   UNL     1      43.704 -18.442   3.052  1.00  0.00     0.003 A 
HETATM   22  C   UNL     1      44.446 -18.507   4.227  1.00  0.00     0.001 A 
HETATM   23  C   UNL     1      44.327 -17.495   5.178  1.00  0.00     0.020 A 
BRANCH  19  24
HETATM   24  O   UNL     1      41.834 -15.306   3.597  1.00  0.00    -0.350 OA
BRANCH  24  25
HETATM   25  C   UNL     1      41.340 -15.208   2.254  1.00  0.00     0.171 C 
HETATM   26  C   UNL     1      39.835 -15.405   2.290  1.00  0.00     0.034 C 
ENDBRANCH  24  25
ENDBRANCH  19  24
ENDBRANCH   1  18
TORSDOF 5
ENDMDL
