MODEL 1
REMARK VINA RESULT:     -10.8      0.000      0.000
REMARK  7 active torsions:
REMARK  status: ('A' for Active; 'I' for Inactive)
REMARK    1  A    between atoms: C_3  and  C_4 
REMARK       I    between atoms: C_4  and  N_5 
REMARK    2  A    between atoms: N_5  and  C_6 
REMARK    3  A    between atoms: C_6  and  C_7 
REMARK    4  A    between atoms: N_23  and  C_24 
REMARK    5  A    between atoms: C_24  and  C_25 
REMARK       I    between atoms: C_25  and  N_26 
REMARK    6  A    between atoms: N_26  and  C_27 
REMARK    7  A    between atoms: C_29  and  C_30 
ROOT
HETATM    1  C   UNL     1      44.847 -11.341   5.660  1.00  0.00     0.051 C 
HETATM    2  C   UNL     1      43.401 -11.020   5.888  1.00  0.00    -0.021 C 
HETATM    3  C   UNL     1      42.907 -10.333   6.998  1.00  0.00     0.081 C 
HETATM    4  S   UNL     1      41.217 -10.054   6.858  1.00  0.00    -0.063 SA
HETATM    5  C   UNL     1      41.099 -10.967   5.433  1.00  0.00     0.116 A 
HETATM    6  C   UNL     1      42.323 -11.452   5.031  1.00  0.00     0.075 A 
HETATM    7  C   UNL     1      42.341 -12.320   3.863  1.00  0.00     0.262 A 
HETATM    8  O   UNL     1      43.370 -12.784   3.372  1.00  0.00    -0.267 OA
HETATM    9  N   UNL     1      41.080 -12.602   3.342  1.00  0.00    -0.299 N 
HETATM   10  C   UNL     1      39.942 -11.984   3.822  1.00  0.00     0.214 A 
HETATM   11  N   UNL     1      39.900 -11.176   4.832  1.00  0.00    -0.235 NA
ENDROOT
BRANCH   3  12
HETATM   12  C   UNL     1      43.636  -9.895   8.190  1.00  0.00     0.259 C 
HETATM   13  N   UNL     1      43.390 -10.605   9.347  1.00  0.00    -0.354 N 
HETATM   14  H   UNL     1      42.636 -11.283   9.342  1.00  0.00     0.162 HD
HETATM   15  O   UNL     1      44.455  -8.977   8.186  1.00  0.00    -0.267 OA
BRANCH  13  16
HETATM   16  C   UNL     1      44.088 -10.337  10.591  1.00  0.00     0.157 C 
BRANCH  16  17
HETATM   17  C   UNL     1      43.148  -9.965  11.743  1.00  0.00     0.171 C 
HETATM   18  O   UNL     1      43.652  -8.763  12.356  1.00  0.00    -0.339 OA
HETATM   19  C   UNL     1      42.722  -8.192  13.185  1.00  0.00     0.102 A 
HETATM   20  C   UNL     1      41.362  -8.514  13.147  1.00  0.00     0.102 A 
HETATM   21  C   UNL     1      43.187  -7.238  14.088  1.00  0.00     0.039 A 
HETATM   22  O   UNL     1      40.827  -9.420  12.267  1.00  0.00    -0.346 OA
HETATM   23  C   UNL     1      40.476  -7.910  14.036  1.00  0.00     0.039 A 
HETATM   24  C   UNL     1      41.740  -9.719  11.205  1.00  0.00     0.209 C 
HETATM   25  C   UNL     1      40.944  -6.964  14.950  1.00  0.00     0.003 A 
HETATM   26  C   UNL     1      42.298  -6.626  14.973  1.00  0.00     0.003 A 
ENDBRANCH  16  17
ENDBRANCH  13  16
ENDBRANCH   3  12
BRANCH   9  27
HETATM   27  C   UNL     1      40.976 -13.601   2.296  1.00  0.00     0.236 C 
BRANCH  27  28
HETATM   28  C   UNL     1      41.205 -15.002   2.855  1.00  0.00     0.240 C 
HETATM   29  N   UNL     1      42.474 -15.487   2.590  1.00  0.00    -0.326 N 
HETATM   30  H   UNL     1      43.015 -14.982   1.886  1.00  0.00     0.169 HD
HETATM   31  O   UNL     1      40.301 -15.596   3.434  1.00  0.00    -0.271 OA
BRANCH  29  32
HETATM   32  C   UNL     1      43.069 -16.651   3.113  1.00  0.00     0.035 A 
HETATM   33  C   UNL     1      43.050 -17.889   2.467  1.00  0.00     0.045 A 
HETATM   34  C   UNL     1      43.619 -19.025   3.070  1.00  0.00     0.050 A 
HETATM   35  C   UNL     1      44.222 -18.900   4.330  1.00  0.00     0.016 A 
HETATM   36  C   UNL     1      44.247 -17.667   4.978  1.00  0.00     0.003 A 
HETATM   37  C   UNL     1      43.668 -16.551   4.374  1.00  0.00     0.029 A 
BRANCH  34  38
HETATM   38  C   UNL     1      43.582 -20.370   2.387  1.00  0.00     0.417 C 
HETATM   39  F   UNL     1      42.408 -20.638   1.752  1.00  0.00    -0.166 F 
HETATM   40  F   UNL     1      44.556 -20.503   1.444  1.00  0.00    -0.166 F 
HETATM   41  F   UNL     1      43.772 -21.399   3.262  1.00  0.00    -0.166 F 
ENDBRANCH  34  38
ENDBRANCH  29  32
ENDBRANCH  27  28
ENDBRANCH   9  27
TORSDOF 7
ENDMDL
MODEL 2
REMARK VINA RESULT:     -10.2      1.815      2.263
REMARK  7 active torsions:
REMARK  status: ('A' for Active; 'I' for Inactive)
REMARK    1  A    between atoms: C_3  and  C_4 
REMARK       I    between atoms: C_4  and  N_5 
REMARK    2  A    between atoms: N_5  and  C_6 
REMARK    3  A    between atoms: C_6  and  C_7 
REMARK    4  A    between atoms: N_23  and  C_24 
REMARK    5  A    between atoms: C_24  and  C_25 
REMARK       I    between atoms: C_25  and  N_26 
REMARK    6  A    between atoms: N_26  and  C_27 
REMARK    7  A    between atoms: C_29  and  C_30 
ROOT
HETATM    1  C   UNL     1      45.587 -11.293   6.537  1.00  0.00     0.051 C 
HETATM    2  C   UNL     1      44.186 -10.774   6.659  1.00  0.00    -0.021 C 
HETATM    3  C   UNL     1      43.587 -10.380   7.857  1.00  0.00     0.081 C 
HETATM    4  S   UNL     1      42.017  -9.736   7.587  1.00  0.00    -0.063 SA
HETATM    5  C   UNL     1      42.051 -10.119   5.934  1.00  0.00     0.116 A 
HETATM    6  C   UNL     1      43.248 -10.692   5.566  1.00  0.00     0.075 A 
HETATM    7  C   UNL     1      43.369 -11.140   4.186  1.00  0.00     0.262 A 
HETATM    8  O   UNL     1      44.397 -11.627   3.715  1.00  0.00    -0.267 OA
HETATM    9  N   UNL     1      42.209 -10.986   3.432  1.00  0.00    -0.299 N 
HETATM   10  C   UNL     1      41.101 -10.332   3.931  1.00  0.00     0.214 A 
HETATM   11  N   UNL     1      40.978  -9.885   5.138  1.00  0.00    -0.235 NA
ENDROOT
BRANCH   3  12
HETATM   12  C   UNL     1      44.123 -10.488   9.215  1.00  0.00     0.259 C 
HETATM   13  N   UNL     1      43.191 -10.566  10.230  1.00  0.00    -0.354 N 
HETATM   14  H   UNL     1      42.217 -10.409   9.999  1.00  0.00     0.162 HD
HETATM   15  O   UNL     1      45.325 -10.548   9.469  1.00  0.00    -0.267 OA
BRANCH  13  16
HETATM   16  C   UNL     1      43.565 -10.749  11.621  1.00  0.00     0.157 C 
BRANCH  16  17
HETATM   17  C   UNL     1      42.586 -10.093  12.600  1.00  0.00     0.171 C 
HETATM   18  O   UNL     1      43.207  -8.899  13.113  1.00  0.00    -0.339 OA
HETATM   19  C   UNL     1      42.299  -8.093  13.751  1.00  0.00     0.102 A 
HETATM   20  C   UNL     1      40.916  -8.225  13.594  1.00  0.00     0.102 A 
HETATM   21  C   UNL     1      42.815  -7.097  14.576  1.00  0.00     0.039 A 
HETATM   22  O   UNL     1      40.336  -9.162  12.778  1.00  0.00    -0.346 OA
HETATM   23  C   UNL     1      40.051  -7.385  14.292  1.00  0.00     0.039 A 
HETATM   24  C   UNL     1      41.291  -9.731  11.875  1.00  0.00     0.209 C 
HETATM   25  C   UNL     1      40.568  -6.395  15.130  1.00  0.00     0.003 A 
HETATM   26  C   UNL     1      41.949  -6.249  15.268  1.00  0.00     0.003 A 
ENDBRANCH  16  17
ENDBRANCH  13  16
ENDBRANCH   3  12
BRANCH   9  27
HETATM   27  C   UNL     1      42.170 -11.570   2.104  1.00  0.00     0.236 C 
BRANCH  27  28
HETATM   28  C   UNL     1      41.909 -13.071   2.175  1.00  0.00     0.240 C 
HETATM   29  N   UNL     1      43.049 -13.804   2.459  1.00  0.00    -0.326 N 
HETATM   30  H   UNL     1      43.939 -13.312   2.364  1.00  0.00     0.169 HD
HETATM   31  O   UNL     1      40.788 -13.520   1.954  1.00  0.00    -0.271 OA
BRANCH  29  32
HETATM   32  C   UNL     1      43.127 -15.173   2.774  1.00  0.00     0.035 A 
HETATM   33  C   UNL     1      43.186 -15.667   4.080  1.00  0.00     0.045 A 
HETATM   34  C   UNL     1      43.316 -17.046   4.324  1.00  0.00     0.050 A 
HETATM   35  C   UNL     1      43.372 -17.929   3.237  1.00  0.00     0.016 A 
HETATM   36  C   UNL     1      43.311 -17.444   1.933  1.00  0.00     0.003 A 
HETATM   37  C   UNL     1      43.195 -16.072   1.704  1.00  0.00     0.029 A 
BRANCH  34  38
HETATM   38  C   UNL     1      43.402 -17.583   5.732  1.00  0.00     0.417 C 
HETATM   39  F   UNL     1      42.350 -17.237   6.523  1.00  0.00    -0.166 F 
HETATM   40  F   UNL     1      43.466 -18.943   5.767  1.00  0.00    -0.166 F 
HETATM   41  F   UNL     1      44.516 -17.143   6.385  1.00  0.00    -0.166 F 
ENDBRANCH  34  38
ENDBRANCH  29  32
ENDBRANCH  27  28
ENDBRANCH   9  27
TORSDOF 7
ENDMDL
MODEL 3
REMARK VINA RESULT:     -10.2      1.742      2.639
REMARK  7 active torsions:
REMARK  status: ('A' for Active; 'I' for Inactive)
REMARK    1  A    between atoms: C_3  and  C_4 
REMARK       I    between atoms: C_4  and  N_5 
REMARK    2  A    between atoms: N_5  and  C_6 
REMARK    3  A    between atoms: C_6  and  C_7 
REMARK    4  A    between atoms: N_23  and  C_24 
REMARK    5  A    between atoms: C_24  and  C_25 
REMARK       I    between atoms: C_25  and  N_26 
REMARK    6  A    between atoms: N_26  and  C_27 
REMARK    7  A    between atoms: C_29  and  C_30 
ROOT
HETATM    1  C   UNL     1      38.983 -12.081   6.227  1.00  0.00     0.051 C 
HETATM    2  C   UNL     1      40.279 -11.347   6.062  1.00  0.00    -0.021 C 
HETATM    3  C   UNL     1      40.652 -10.220   6.795  1.00  0.00     0.081 C 
HETATM    4  S   UNL     1      42.252  -9.724   6.408  1.00  0.00    -0.063 SA
HETATM    5  C   UNL     1      42.400 -10.876   5.171  1.00  0.00     0.116 A 
HETATM    6  C   UNL     1      41.275 -11.662   5.065  1.00  0.00     0.075 A 
HETATM    7  C   UNL     1      41.248 -12.637   3.984  1.00  0.00     0.262 A 
HETATM    8  O   UNL     1      40.325 -13.432   3.804  1.00  0.00    -0.267 OA
HETATM    9  N   UNL     1      42.359 -12.591   3.146  1.00  0.00    -0.299 N 
HETATM   10  C   UNL     1      43.443 -11.781   3.423  1.00  0.00     0.214 A 
HETATM   11  N   UNL     1      43.514 -10.936   4.399  1.00  0.00    -0.235 NA
ENDROOT
BRANCH   3  12
HETATM   12  C   UNL     1      39.854  -9.465   7.762  1.00  0.00     0.259 C 
HETATM   13  N   UNL     1      39.995  -9.833   9.085  1.00  0.00    -0.354 N 
HETATM   14  H   UNL     1      40.524 -10.671   9.295  1.00  0.00     0.162 HD
HETATM   15  O   UNL     1      39.119  -8.527   7.453  1.00  0.00    -0.267 OA
BRANCH  13  16
HETATM   16  C   UNL     1      39.326  -9.132  10.166  1.00  0.00     0.157 C 
BRANCH  16  17
HETATM   17  C   UNL     1      40.280  -8.289  11.019  1.00  0.00     0.171 C 
HETATM   18  O   UNL     1      39.916  -8.472  12.402  1.00  0.00    -0.339 OA
HETATM   19  C   UNL     1      40.893  -8.007  13.244  1.00  0.00     0.102 A 
HETATM   20  C   UNL     1      42.202  -7.746  12.829  1.00  0.00     0.102 A 
HETATM   21  C   UNL     1      40.530  -7.811  14.575  1.00  0.00     0.039 A 
HETATM   22  O   UNL     1      42.638  -7.943  11.544  1.00  0.00    -0.346 OA
HETATM   23  C   UNL     1      43.136  -7.252  13.737  1.00  0.00     0.039 A 
HETATM   24  C   UNL     1      41.719  -8.749  10.798  1.00  0.00     0.209 C 
HETATM   25  C   UNL     1      42.770  -7.042  15.068  1.00  0.00     0.003 A 
HETATM   26  C   UNL     1      41.469  -7.325  15.487  1.00  0.00     0.003 A 
ENDBRANCH  16  17
ENDBRANCH  13  16
ENDBRANCH   3  12
BRANCH   9  27
HETATM   27  C   UNL     1      42.341 -13.392   1.936  1.00  0.00     0.236 C 
BRANCH  27  28
HETATM   28  C   UNL     1      43.158 -14.667   2.114  1.00  0.00     0.240 C 
HETATM   29  N   UNL     1      42.881 -15.323   3.301  1.00  0.00    -0.326 N 
HETATM   30  H   UNL     1      42.361 -14.793   4.002  1.00  0.00     0.169 HD
HETATM   31  O   UNL     1      43.988 -14.998   1.272  1.00  0.00    -0.271 OA
BRANCH  29  32
HETATM   32  C   UNL     1      43.314 -16.605   3.689  1.00  0.00     0.035 A 
HETATM   33  C   UNL     1      43.249 -17.729   2.861  1.00  0.00     0.045 A 
HETATM   34  C   UNL     1      43.651 -18.993   3.329  1.00  0.00     0.050 A 
HETATM   35  C   UNL     1      44.133 -19.114   4.640  1.00  0.00     0.016 A 
HETATM   36  C   UNL     1      44.203 -17.997   5.470  1.00  0.00     0.003 A 
HETATM   37  C   UNL     1      43.789 -16.751   4.997  1.00  0.00     0.029 A 
BRANCH  34  38
HETATM   38  C   UNL     1      43.563 -20.214   2.447  1.00  0.00     0.417 C 
HETATM   39  F   UNL     1      44.373 -20.168   1.354  1.00  0.00    -0.166 F 
HETATM   40  F   UNL     1      43.892 -21.359   3.108  1.00  0.00    -0.166 F 
HETATM   41  F   UNL     1      42.303 -20.414   1.965  1.00  0.00    -0.166 F 
ENDBRANCH  34  38
ENDBRANCH  29  32
ENDBRANCH  27  28
ENDBRANCH   9  27
TORSDOF 7
ENDMDL
MODEL 4
REMARK VINA RESULT:     -10.0      3.080      4.193
REMARK  7 active torsions:
REMARK  status: ('A' for Active; 'I' for Inactive)
REMARK    1  A    between atoms: C_3  and  C_4 
REMARK       I    between atoms: C_4  and  N_5 
REMARK    2  A    between atoms: N_5  and  C_6 
REMARK    3  A    between atoms: C_6  and  C_7 
REMARK    4  A    between atoms: N_23  and  C_24 
REMARK    5  A    between atoms: C_24  and  C_25 
REMARK       I    between atoms: C_25  and  N_26 
REMARK    6  A    between atoms: N_26  and  C_27 
REMARK    7  A    between atoms: C_29  and  C_30 
ROOT
HETATM    1  C   UNL     1      42.321 -10.442   4.104  1.00  0.00     0.051 C 
HETATM    2  C   UNL     1      40.903 -10.359   3.624  1.00  0.00    -0.021 C 
HETATM    3  C   UNL     1      39.898  -9.615   4.243  1.00  0.00     0.081 C 
HETATM    4  S   UNL     1      38.435  -9.673   3.344  1.00  0.00    -0.063 SA
HETATM    5  C   UNL     1      39.060 -10.797   2.237  1.00  0.00     0.116 A 
HETATM    6  C   UNL     1      40.374 -11.105   2.507  1.00  0.00     0.075 A 
HETATM    7  C   UNL     1      41.000 -12.122   1.674  1.00  0.00     0.262 A 
HETATM    8  O   UNL     1      42.180 -12.459   1.778  1.00  0.00    -0.267 OA
HETATM    9  N   UNL     1      40.143 -12.704   0.744  1.00  0.00    -0.299 N 
HETATM   10  C   UNL     1      38.858 -12.239   0.551  1.00  0.00     0.214 A 
HETATM   11  N   UNL     1      38.287 -11.309   1.247  1.00  0.00    -0.235 NA
ENDROOT
BRANCH   3  12
HETATM   12  C   UNL     1      39.967  -8.875   5.505  1.00  0.00     0.259 C 
HETATM   13  N   UNL     1      40.031  -9.639   6.652  1.00  0.00    -0.354 N 
HETATM   14  H   UNL     1      39.893 -10.640   6.570  1.00  0.00     0.162 HD
HETATM   15  O   UNL     1      40.004  -7.648   5.573  1.00  0.00    -0.267 OA
BRANCH  13  16
HETATM   16  C   UNL     1      40.175  -9.054   7.973  1.00  0.00     0.157 C 
BRANCH  16  17
HETATM   17  C   UNL     1      41.624  -9.046   8.474  1.00  0.00     0.171 C 
HETATM   18  O   UNL     1      42.375  -9.978   7.673  1.00  0.00    -0.339 OA
HETATM   19  C   UNL     1      43.725  -9.814   7.843  1.00  0.00     0.102 A 
HETATM   20  C   UNL     1      44.292  -8.669   8.411  1.00  0.00     0.102 A 
HETATM   21  C   UNL     1      44.543 -10.853   7.404  1.00  0.00     0.039 A 
HETATM   22  O   UNL     1      43.553  -7.596   8.838  1.00  0.00    -0.346 OA
HETATM   23  C   UNL     1      45.673  -8.581   8.574  1.00  0.00     0.039 A 
HETATM   24  C   UNL     1      42.216  -7.645   8.329  1.00  0.00     0.209 C 
HETATM   25  C   UNL     1      46.492  -9.628   8.146  1.00  0.00     0.003 A 
HETATM   26  C   UNL     1      45.927 -10.761   7.558  1.00  0.00     0.003 A 
ENDBRANCH  16  17
ENDBRANCH  13  16
ENDBRANCH   3  12
BRANCH   9  27
HETATM   27  C   UNL     1      40.619 -13.853  -0.005  1.00  0.00     0.236 C 
BRANCH  27  28
HETATM   28  C   UNL     1      40.826 -15.053   0.912  1.00  0.00     0.240 C 
HETATM   29  N   UNL     1      42.160 -15.384   1.076  1.00  0.00    -0.326 N 
HETATM   30  H   UNL     1      42.816 -14.961   0.416  1.00  0.00     0.169 HD
HETATM   31  O   UNL     1      39.862 -15.645   1.391  1.00  0.00    -0.271 OA
BRANCH  29  32
HETATM   32  C   UNL     1      42.705 -16.308   1.987  1.00  0.00     0.035 A 
HETATM   33  C   UNL     1      42.807 -17.678   1.735  1.00  0.00     0.045 A 
HETATM   34  C   UNL     1      43.314 -18.555   2.710  1.00  0.00     0.050 A 
HETATM   35  C   UNL     1      43.734 -18.035   3.944  1.00  0.00     0.016 A 
HETATM   36  C   UNL     1      43.638 -16.669   4.200  1.00  0.00     0.003 A 
HETATM   37  C   UNL     1      43.120 -15.812   3.228  1.00  0.00     0.029 A 
BRANCH  34  38
HETATM   38  C   UNL     1      43.406 -20.039   2.453  1.00  0.00     0.417 C 
HETATM   39  F   UNL     1      44.466 -20.402   1.679  1.00  0.00    -0.166 F 
HETATM   40  F   UNL     1      43.516 -20.761   3.602  1.00  0.00    -0.166 F 
HETATM   41  F   UNL     1      42.301 -20.522   1.816  1.00  0.00    -0.166 F 
ENDBRANCH  34  38
ENDBRANCH  29  32
ENDBRANCH  27  28
ENDBRANCH   9  27
TORSDOF 7
ENDMDL
MODEL 5
REMARK VINA RESULT:      -9.9      1.350      1.755
REMARK  7 active torsions:
REMARK  status: ('A' for Active; 'I' for Inactive)
REMARK    1  A    between atoms: C_3  and  C_4 
REMARK       I    between atoms: C_4  and  N_5 
REMARK    2  A    between atoms: N_5  and  C_6 
REMARK    3  A    between atoms: C_6  and  C_7 
REMARK    4  A    between atoms: N_23  and  C_24 
REMARK    5  A    between atoms: C_24  and  C_25 
REMARK       I    between atoms: C_25  and  N_26 
REMARK    6  A    between atoms: N_26  and  C_27 
REMARK    7  A    between atoms: C_29  and  C_30 
ROOT
HETATM    1  C   UNL     1      45.042 -11.562   5.602  1.00  0.00     0.051 C 
HETATM    2  C   UNL     1      43.587 -11.249   5.777  1.00  0.00    -0.021 C 
HETATM    3  C   UNL     1      43.034 -10.654   6.912  1.00  0.00     0.081 C 
HETATM    4  S   UNL     1      41.355 -10.349   6.703  1.00  0.00    -0.063 SA
HETATM    5  C   UNL     1      41.313 -11.139   5.202  1.00  0.00     0.116 A 
HETATM    6  C   UNL     1      42.556 -11.598   4.829  1.00  0.00     0.075 A 
HETATM    7  C   UNL     1      42.635 -12.365   3.594  1.00  0.00     0.262 A 
HETATM    8  O   UNL     1      43.689 -12.795   3.123  1.00  0.00    -0.267 OA
HETATM    9  N   UNL     1      41.404 -12.591   2.983  1.00  0.00    -0.299 N 
HETATM   10  C   UNL     1      40.245 -12.007   3.450  1.00  0.00     0.214 A 
HETATM   11  N   UNL     1      40.149 -11.286   4.520  1.00  0.00    -0.235 NA
ENDROOT
BRANCH   3  12
HETATM   12  C   UNL     1      43.697 -10.323   8.175  1.00  0.00     0.259 C 
HETATM   13  N   UNL     1      43.509  -9.038   8.641  1.00  0.00    -0.354 N 
HETATM   14  H   UNL     1      43.048  -8.371   8.032  1.00  0.00     0.162 HD
HETATM   15  O   UNL     1      44.360 -11.129   8.827  1.00  0.00    -0.267 OA
BRANCH  13  16
HETATM   16  C   UNL     1      44.042  -8.582   9.912  1.00  0.00     0.157 C 
BRANCH  16  17
HETATM   17  C   UNL     1      42.953  -8.246  10.937  1.00  0.00     0.171 C 
HETATM   18  O   UNL     1      41.860  -7.623  10.234  1.00  0.00    -0.339 OA
HETATM   19  C   UNL     1      40.730  -7.569  11.008  1.00  0.00     0.102 A 
HETATM   20  C   UNL     1      40.552  -8.341  12.160  1.00  0.00     0.102 A 
HETATM   21  C   UNL     1      39.724  -6.701  10.588  1.00  0.00     0.039 A 
HETATM   22  O   UNL     1      41.485  -9.236  12.617  1.00  0.00    -0.346 OA
HETATM   23  C   UNL     1      39.386  -8.217  12.911  1.00  0.00     0.039 A 
HETATM   24  C   UNL     1      42.468  -9.525  11.617  1.00  0.00     0.209 C 
HETATM   25  C   UNL     1      38.383  -7.337  12.498  1.00  0.00     0.003 A 
HETATM   26  C   UNL     1      38.551  -6.584  11.335  1.00  0.00     0.003 A 
ENDBRANCH  16  17
ENDBRANCH  13  16
ENDBRANCH   3  12
BRANCH   9  27
HETATM   27  C   UNL     1      41.355 -13.499   1.852  1.00  0.00     0.236 C 
BRANCH  27  28
HETATM   28  C   UNL     1      41.454 -14.949   2.311  1.00  0.00     0.240 C 
HETATM   29  N   UNL     1      42.761 -15.374   2.481  1.00  0.00    -0.326 N 
HETATM   30  H   UNL     1      43.486 -14.780   2.077  1.00  0.00     0.169 HD
HETATM   31  O   UNL     1      40.441 -15.626   2.459  1.00  0.00    -0.271 OA
BRANCH  29  32
HETATM   32  C   UNL     1      43.198 -16.578   3.064  1.00  0.00     0.035 A 
HETATM   33  C   UNL     1      43.195 -17.808   2.401  1.00  0.00     0.045 A 
HETATM   34  C   UNL     1      43.597 -18.983   3.061  1.00  0.00     0.050 A 
HETATM   35  C   UNL     1      44.018 -18.906   4.397  1.00  0.00     0.016 A 
HETATM   36  C   UNL     1      44.026 -17.683   5.062  1.00  0.00     0.003 A 
HETATM   37  C   UNL     1      43.612 -16.526   4.400  1.00  0.00     0.029 A 
BRANCH  34  38
HETATM   38  C   UNL     1      43.575 -20.317   2.357  1.00  0.00     0.417 C 
HETATM   39  F   UNL     1      44.410 -20.392   1.284  1.00  0.00    -0.166 F 
HETATM   40  F   UNL     1      43.929 -21.345   3.178  1.00  0.00    -0.166 F 
HETATM   41  F   UNL     1      42.335 -20.631   1.883  1.00  0.00    -0.166 F 
ENDBRANCH  34  38
ENDBRANCH  29  32
ENDBRANCH  27  28
ENDBRANCH   9  27
TORSDOF 7
ENDMDL
MODEL 6
REMARK VINA RESULT:      -9.9      1.867      2.573
REMARK  7 active torsions:
REMARK  status: ('A' for Active; 'I' for Inactive)
REMARK    1  A    between atoms: C_3  and  C_4 
REMARK       I    between atoms: C_4  and  N_5 
REMARK    2  A    between atoms: N_5  and  C_6 
REMARK    3  A    between atoms: C_6  and  C_7 
REMARK    4  A    between atoms: N_23  and  C_24 
REMARK    5  A    between atoms: C_24  and  C_25 
REMARK       I    between atoms: C_25  and  N_26 
REMARK    6  A    between atoms: N_26  and  C_27 
REMARK    7  A    between atoms: C_29  and  C_30 
ROOT
HETATM    1  C   UNL     1      42.019 -11.196   6.111  1.00  0.00     0.051 C 
HETATM    2  C   UNL     1      40.767 -10.970   5.319  1.00  0.00    -0.021 C 
HETATM    3  C   UNL     1      39.602 -10.391   5.824  1.00  0.00     0.081 C 
HETATM    4  S   UNL     1      38.419 -10.192   4.594  1.00  0.00    -0.063 SA
HETATM    5  C   UNL     1      39.360 -11.007   3.440  1.00  0.00     0.116 A 
HETATM    6  C   UNL     1      40.577 -11.395   3.953  1.00  0.00     0.075 A 
HETATM    7  C   UNL     1      41.443 -12.176   3.082  1.00  0.00     0.262 A 
HETATM    8  O   UNL     1      42.573 -12.548   3.398  1.00  0.00    -0.267 OA
HETATM    9  N   UNL     1      40.880 -12.486   1.846  1.00  0.00    -0.299 N 
HETATM   10  C   UNL     1      39.664 -11.966   1.452  1.00  0.00     0.214 A 
HETATM   11  N   UNL     1      38.890 -11.235   2.188  1.00  0.00    -0.235 NA
ENDROOT
BRANCH   3  12
HETATM   12  C   UNL     1      39.311 -10.001   7.205  1.00  0.00     0.259 C 
HETATM   13  N   UNL     1      39.698  -8.727   7.570  1.00  0.00    -0.354 N 
HETATM   14  H   UNL     1      40.269  -8.196   6.922  1.00  0.00     0.162 HD
HETATM   15  O   UNL     1      38.725 -10.726   8.008  1.00  0.00    -0.267 OA
BRANCH  13  16
HETATM   16  C   UNL     1      39.414  -8.170   8.880  1.00  0.00     0.157 C 
BRANCH  16  17
HETATM   17  C   UNL     1      40.618  -8.215   9.828  1.00  0.00     0.171 C 
HETATM   18  O   UNL     1      40.560  -7.051  10.674  1.00  0.00    -0.339 OA
HETATM   19  C   UNL     1      41.410  -7.163  11.743  1.00  0.00     0.102 A 
HETATM   20  C   UNL     1      41.964  -8.378  12.157  1.00  0.00     0.102 A 
HETATM   21  C   UNL     1      41.703  -5.990  12.436  1.00  0.00     0.039 A 
HETATM   22  O   UNL     1      41.698  -9.575  11.543  1.00  0.00    -0.346 OA
HETATM   23  C   UNL     1      42.840  -8.413  13.240  1.00  0.00     0.039 A 
HETATM   24  C   UNL     1      40.558  -9.480  10.683  1.00  0.00     0.209 C 
HETATM   25  C   UNL     1      43.145  -7.236  13.926  1.00  0.00     0.003 A 
HETATM   26  C   UNL     1      42.574  -6.026  13.527  1.00  0.00     0.003 A 
ENDBRANCH  16  17
ENDBRANCH  13  16
ENDBRANCH   3  12
BRANCH   9  27
HETATM   27  C   UNL     1      41.587 -13.413   0.982  1.00  0.00     0.236 C 
BRANCH  27  28
HETATM   28  C   UNL     1      41.597 -14.816   1.579  1.00  0.00     0.240 C 
HETATM   29  N   UNL     1      42.867 -15.245   1.927  1.00  0.00    -0.326 N 
HETATM   30  H   UNL     1      43.647 -14.703   1.552  1.00  0.00     0.169 HD
HETATM   31  O   UNL     1      40.557 -15.459   1.676  1.00  0.00    -0.271 OA
BRANCH  29  32
HETATM   32  C   UNL     1      43.208 -16.396   2.661  1.00  0.00     0.035 A 
HETATM   33  C   UNL     1      43.177 -17.690   2.134  1.00  0.00     0.045 A 
HETATM   34  C   UNL     1      43.480 -18.803   2.938  1.00  0.00     0.050 A 
HETATM   35  C   UNL     1      43.828 -18.600   4.282  1.00  0.00     0.016 A 
HETATM   36  C   UNL     1      43.863 -17.313   4.812  1.00  0.00     0.003 A 
HETATM   37  C   UNL     1      43.548 -16.218   4.007  1.00  0.00     0.029 A 
BRANCH  34  38
HETATM   38  C   UNL     1      43.428 -20.204   2.381  1.00  0.00     0.417 C 
HETATM   39  F   UNL     1      44.381 -20.464   1.444  1.00  0.00    -0.166 F 
HETATM   40  F   UNL     1      43.581 -21.154   3.345  1.00  0.00    -0.166 F 
HETATM   41  F   UNL     1      42.234 -20.476   1.779  1.00  0.00    -0.166 F 
ENDBRANCH  34  38
ENDBRANCH  29  32
ENDBRANCH  27  28
ENDBRANCH   9  27
TORSDOF 7
ENDMDL
MODEL 7
REMARK VINA RESULT:      -9.7      2.189      3.082
REMARK  7 active torsions:
REMARK  status: ('A' for Active; 'I' for Inactive)
REMARK    1  A    between atoms: C_3  and  C_4 
REMARK       I    between atoms: C_4  and  N_5 
REMARK    2  A    between atoms: N_5  and  C_6 
REMARK    3  A    between atoms: C_6  and  C_7 
REMARK    4  A    between atoms: N_23  and  C_24 
REMARK    5  A    between atoms: C_24  and  C_25 
REMARK       I    between atoms: C_25  and  N_26 
REMARK    6  A    between atoms: N_26  and  C_27 
REMARK    7  A    between atoms: C_29  and  C_30 
ROOT
HETATM    1  C   UNL     1      39.215 -11.516   6.489  1.00  0.00     0.051 C 
HETATM    2  C   UNL     1      39.822 -10.592   5.477  1.00  0.00    -0.021 C 
HETATM    3  C   UNL     1      39.774  -9.198   5.546  1.00  0.00     0.081 C 
HETATM    4  S   UNL     1      40.675  -8.479   4.272  1.00  0.00    -0.063 SA
HETATM    5  C   UNL     1      40.993  -9.975   3.538  1.00  0.00     0.116 A 
HETATM    6  C   UNL     1      40.464 -11.022   4.259  1.00  0.00     0.075 A 
HETATM    7  C   UNL     1      40.600 -12.354   3.688  1.00  0.00     0.262 A 
HETATM    8  O   UNL     1      40.214 -13.380   4.248  1.00  0.00    -0.267 OA
HETATM    9  N   UNL     1      41.200 -12.378   2.430  1.00  0.00    -0.299 N 
HETATM   10  C   UNL     1      41.738 -11.241   1.862  1.00  0.00     0.214 A 
HETATM   11  N   UNL     1      41.670 -10.050   2.364  1.00  0.00    -0.235 NA
ENDROOT
BRANCH   3  12
HETATM   12  C   UNL     1      39.054  -8.364   6.511  1.00  0.00     0.259 C 
HETATM   13  N   UNL     1      39.581  -8.320   7.785  1.00  0.00    -0.354 N 
HETATM   14  H   UNL     1      40.335  -8.957   8.015  1.00  0.00     0.162 HD
HETATM   15  O   UNL     1      38.059  -7.700   6.226  1.00  0.00    -0.267 OA
BRANCH  13  16
HETATM   16  C   UNL     1      39.023  -7.482   8.832  1.00  0.00     0.157 C 
BRANCH  16  17
HETATM   17  C   UNL     1      39.989  -7.252   9.999  1.00  0.00     0.171 C 
HETATM   18  O   UNL     1      39.647  -8.180  11.046  1.00  0.00    -0.339 OA
HETATM   19  C   UNL     1      40.636  -8.258  11.993  1.00  0.00     0.102 A 
HETATM   20  C   UNL     1      41.939  -7.797  11.779  1.00  0.00     0.102 A 
HETATM   21  C   UNL     1      40.295  -8.843  13.210  1.00  0.00     0.039 A 
HETATM   22  O   UNL     1      42.355  -7.237  10.598  1.00  0.00    -0.346 OA
HETATM   23  C   UNL     1      42.887  -7.886  12.795  1.00  0.00     0.039 A 
HETATM   24  C   UNL     1      41.425  -7.495   9.540  1.00  0.00     0.209 C 
HETATM   25  C   UNL     1      42.541  -8.460  14.020  1.00  0.00     0.003 A 
HETATM   26  C   UNL     1      41.247  -8.942  14.226  1.00  0.00     0.003 A 
ENDBRANCH  16  17
ENDBRANCH  13  16
ENDBRANCH   3  12
BRANCH   9  27
HETATM   27  C   UNL     1      41.214 -13.631   1.699  1.00  0.00     0.236 C 
BRANCH  27  28
HETATM   28  C   UNL     1      42.383 -14.506   2.138  1.00  0.00     0.240 C 
HETATM   29  N   UNL     1      41.989 -15.588   2.906  1.00  0.00    -0.326 N 
HETATM   30  H   UNL     1      41.037 -15.560   3.274  1.00  0.00     0.169 HD
HETATM   31  O   UNL     1      43.535 -14.201   1.841  1.00  0.00    -0.271 OA
BRANCH  29  32
HETATM   32  C   UNL     1      42.780 -16.679   3.313  1.00  0.00     0.035 A 
HETATM   33  C   UNL     1      42.810 -17.907   2.646  1.00  0.00     0.045 A 
HETATM   34  C   UNL     1      43.584 -18.974   3.137  1.00  0.00     0.050 A 
HETATM   35  C   UNL     1      44.340 -18.789   4.303  1.00  0.00     0.016 A 
HETATM   36  C   UNL     1      44.316 -17.567   4.971  1.00  0.00     0.003 A 
HETATM   37  C   UNL     1      43.535 -16.520   4.480  1.00  0.00     0.029 A 
BRANCH  34  38
HETATM   38  C   UNL     1      43.604 -20.309   2.434  1.00  0.00     0.417 C 
HETATM   39  F   UNL     1      44.550 -20.408   1.460  1.00  0.00    -0.166 F 
HETATM   40  F   UNL     1      43.836 -21.344   3.288  1.00  0.00    -0.166 F 
HETATM   41  F   UNL     1      42.416 -20.590   1.825  1.00  0.00    -0.166 F 
ENDBRANCH  34  38
ENDBRANCH  29  32
ENDBRANCH  27  28
ENDBRANCH   9  27
TORSDOF 7
ENDMDL
MODEL 8
REMARK VINA RESULT:      -9.7      6.033     12.459
REMARK  7 active torsions:
REMARK  status: ('A' for Active; 'I' for Inactive)
REMARK    1  A    between atoms: C_3  and  C_4 
REMARK       I    between atoms: C_4  and  N_5 
REMARK    2  A    between atoms: N_5  and  C_6 
REMARK    3  A    between atoms: C_6  and  C_7 
REMARK    4  A    between atoms: N_23  and  C_24 
REMARK    5  A    between atoms: C_24  and  C_25 
REMARK       I    between atoms: C_25  and  N_26 
REMARK    6  A    between atoms: N_26  and  C_27 
REMARK    7  A    between atoms: C_29  and  C_30 
ROOT
HETATM    1  C   UNL     1      44.988 -12.228   6.784  1.00  0.00     0.051 C 
HETATM    2  C   UNL     1      43.819 -11.290   6.755  1.00  0.00    -0.021 C 
HETATM    3  C   UNL     1      43.022 -11.049   5.635  1.00  0.00     0.081 C 
HETATM    4  S   UNL     1      41.712 -10.003   6.013  1.00  0.00    -0.063 SA
HETATM    5  C   UNL     1      42.274  -9.733   7.592  1.00  0.00     0.116 A 
HETATM    6  C   UNL     1      43.417 -10.451   7.859  1.00  0.00     0.075 A 
HETATM    7  C   UNL     1      44.043 -10.241   9.156  1.00  0.00     0.262 A 
HETATM    8  O   UNL     1      45.041 -10.851   9.540  1.00  0.00    -0.267 OA
HETATM    9  N   UNL     1      43.423  -9.270   9.938  1.00  0.00    -0.299 N 
HETATM   10  C   UNL     1      42.237  -8.677   9.553  1.00  0.00     0.214 A 
HETATM   11  N   UNL     1      41.635  -8.874   8.425  1.00  0.00    -0.235 NA
ENDROOT
BRANCH   3  12
HETATM   12  C   UNL     1      43.208 -11.544   4.269  1.00  0.00     0.259 C 
HETATM   13  N   UNL     1      42.372 -12.570   3.878  1.00  0.00    -0.354 N 
HETATM   14  H   UNL     1      41.786 -13.006   4.580  1.00  0.00     0.162 HD
HETATM   15  O   UNL     1      44.024 -11.071   3.479  1.00  0.00    -0.267 OA
BRANCH  13  16
HETATM   16  C   UNL     1      42.385 -13.118   2.533  1.00  0.00     0.157 C 
BRANCH  16  17
HETATM   17  C   UNL     1      43.061 -14.491   2.448  1.00  0.00     0.171 C 
HETATM   18  O   UNL     1      43.075 -15.061   3.771  1.00  0.00    -0.339 OA
HETATM   19  C   UNL     1      43.377 -16.397   3.740  1.00  0.00     0.102 A 
HETATM   20  C   UNL     1      43.307 -17.172   2.578  1.00  0.00     0.102 A 
HETATM   21  C   UNL     1      43.756 -16.982   4.946  1.00  0.00     0.039 A 
HETATM   22  O   UNL     1      42.915 -16.672   1.363  1.00  0.00    -0.346 OA
HETATM   23  C   UNL     1      43.652 -18.521   2.616  1.00  0.00     0.039 A 
HETATM   24  C   UNL     1      42.276 -15.398   1.502  1.00  0.00     0.209 C 
HETATM   25  C   UNL     1      44.044 -19.105   3.823  1.00  0.00     0.003 A 
HETATM   26  C   UNL     1      44.092 -18.336   4.987  1.00  0.00     0.003 A 
ENDBRANCH  16  17
ENDBRANCH  13  16
ENDBRANCH   3  12
BRANCH   9  27
HETATM   27  C   UNL     1      44.075  -8.856  11.167  1.00  0.00     0.236 C 
BRANCH  27  28
HETATM   28  C   UNL     1      43.090  -8.842  12.330  1.00  0.00     0.240 C 
HETATM   29  N   UNL     1      42.883  -7.574  12.847  1.00  0.00    -0.326 N 
HETATM   30  H   UNL     1      43.553  -6.856  12.566  1.00  0.00     0.169 HD
HETATM   31  O   UNL     1      42.597  -9.888  12.742  1.00  0.00    -0.271 OA
BRANCH  29  32
HETATM   32  C   UNL     1      41.912  -7.184  13.788  1.00  0.00     0.035 A 
HETATM   33  C   UNL     1      42.121  -7.198  15.169  1.00  0.00     0.045 A 
HETATM   34  C   UNL     1      41.089  -6.845  16.057  1.00  0.00     0.050 A 
HETATM   35  C   UNL     1      39.843  -6.461  15.539  1.00  0.00     0.016 A 
HETATM   36  C   UNL     1      39.630  -6.442  14.163  1.00  0.00     0.003 A 
HETATM   37  C   UNL     1      40.658  -6.808  13.293  1.00  0.00     0.029 A 
BRANCH  34  38
HETATM   38  C   UNL     1      41.301  -6.879  17.551  1.00  0.00     0.417 C 
HETATM   39  F   UNL     1      41.777  -8.067  18.016  1.00  0.00    -0.166 F 
HETATM   40  F   UNL     1      42.182  -5.931  17.974  1.00  0.00    -0.166 F 
HETATM   41  F   UNL     1      40.147  -6.648  18.242  1.00  0.00    -0.166 F 
ENDBRANCH  34  38
ENDBRANCH  29  32
ENDBRANCH  27  28
ENDBRANCH   9  27
TORSDOF 7
ENDMDL
MODEL 9
REMARK VINA RESULT:      -9.6      5.241      8.680
REMARK  7 active torsions:
REMARK  status: ('A' for Active; 'I' for Inactive)
REMARK    1  A    between atoms: C_3  and  C_4 
REMARK       I    between atoms: C_4  and  N_5 
REMARK    2  A    between atoms: N_5  and  C_6 
REMARK    3  A    between atoms: C_6  and  C_7 
REMARK    4  A    between atoms: N_23  and  C_24 
REMARK    5  A    between atoms: C_24  and  C_25 
REMARK       I    between atoms: C_25  and  N_26 
REMARK    6  A    between atoms: N_26  and  C_27 
REMARK    7  A    between atoms: C_29  and  C_30 
ROOT
HETATM    1  C   UNL     1      43.446 -12.529   3.197  1.00  0.00     0.051 C 
HETATM    2  C   UNL     1      42.837 -11.529   4.133  1.00  0.00    -0.021 C 
HETATM    3  C   UNL     1      42.855 -11.633   5.525  1.00  0.00     0.081 C 
HETATM    4  S   UNL     1      42.159 -10.245   6.263  1.00  0.00    -0.063 SA
HETATM    5  C   UNL     1      41.689  -9.584   4.773  1.00  0.00     0.116 A 
HETATM    6  C   UNL     1      42.082 -10.373   3.715  1.00  0.00     0.075 A 
HETATM    7  C   UNL     1      41.666  -9.952   2.385  1.00  0.00     0.262 A 
HETATM    8  O   UNL     1      41.986 -10.539   1.352  1.00  0.00    -0.267 OA
HETATM    9  N   UNL     1      40.851  -8.822   2.373  1.00  0.00    -0.299 N 
HETATM   10  C   UNL     1      40.595  -8.101   3.521  1.00  0.00     0.214 A 
HETATM   11  N   UNL     1      40.985  -8.425   4.711  1.00  0.00    -0.235 NA
ENDROOT
BRANCH   3  12
HETATM   12  C   UNL     1      43.344 -12.744   6.344  1.00  0.00     0.259 C 
HETATM   13  N   UNL     1      42.418 -13.717   6.661  1.00  0.00    -0.354 N 
HETATM   14  H   UNL     1      41.445 -13.546   6.433  1.00  0.00     0.162 HD
HETATM   15  O   UNL     1      44.512 -12.854   6.713  1.00  0.00    -0.267 OA
BRANCH  13  16
HETATM   16  C   UNL     1      42.767 -14.915   7.404  1.00  0.00     0.157 C 
BRANCH  16  17
HETATM   17  C   UNL     1      42.768 -16.181   6.540  1.00  0.00     0.171 C 
HETATM   18  O   UNL     1      42.827 -15.775   5.159  1.00  0.00    -0.339 OA
HETATM   19  C   UNL     1      43.139 -16.827   4.338  1.00  0.00     0.102 A 
HETATM   20  C   UNL     1      43.690 -18.025   4.804  1.00  0.00     0.102 A 
HETATM   21  C   UNL     1      42.894 -16.655   2.978  1.00  0.00     0.039 A 
HETATM   22  O   UNL     1      43.985 -18.255   6.123  1.00  0.00    -0.346 OA
HETATM   23  C   UNL     1      43.961 -19.062   3.914  1.00  0.00     0.039 A 
HETATM   24  C   UNL     1      43.986 -17.039   6.879  1.00  0.00     0.209 C 
HETATM   25  C   UNL     1      43.703 -18.894   2.552  1.00  0.00     0.003 A 
HETATM   26  C   UNL     1      43.174 -17.691   2.084  1.00  0.00     0.003 A 
ENDBRANCH  16  17
ENDBRANCH  13  16
ENDBRANCH   3  12
BRANCH   9  27
HETATM   27  C   UNL     1      40.234  -8.434   1.118  1.00  0.00     0.236 C 
BRANCH  27  28
HETATM   28  C   UNL     1      39.191  -9.457   0.683  1.00  0.00     0.240 C 
HETATM   29  N   UNL     1      39.391  -9.915  -0.608  1.00  0.00    -0.326 N 
HETATM   30  H   UNL     1      40.040  -9.376  -1.185  1.00  0.00     0.169 HD
HETATM   31  O   UNL     1      38.273  -9.769   1.435  1.00  0.00    -0.271 OA
BRANCH  29  32
HETATM   32  C   UNL     1      38.733 -10.983  -1.247  1.00  0.00     0.035 A 
HETATM   33  C   UNL     1      39.233 -12.287  -1.289  1.00  0.00     0.045 A 
HETATM   34  C   UNL     1      38.550 -13.298  -1.990  1.00  0.00     0.050 A 
HETATM   35  C   UNL     1      37.347 -12.985  -2.639  1.00  0.00     0.016 A 
HETATM   36  C   UNL     1      36.842 -11.687  -2.598  1.00  0.00     0.003 A 
HETATM   37  C   UNL     1      37.536 -10.691  -1.910  1.00  0.00     0.029 A 
BRANCH  34  38
HETATM   38  C   UNL     1      39.095 -14.703  -2.058  1.00  0.00     0.417 C 
HETATM   39  F   UNL     1      38.306 -15.570  -2.750  1.00  0.00    -0.166 F 
HETATM   40  F   UNL     1      40.321 -14.759  -2.649  1.00  0.00    -0.166 F 
HETATM   41  F   UNL     1      39.254 -15.256  -0.821  1.00  0.00    -0.166 F 
ENDBRANCH  34  38
ENDBRANCH  29  32
ENDBRANCH  27  28
ENDBRANCH   9  27
TORSDOF 7
ENDMDL
MODEL 10
REMARK VINA RESULT:      -9.6      4.197     10.334
REMARK  7 active torsions:
REMARK  status: ('A' for Active; 'I' for Inactive)
REMARK    1  A    between atoms: C_3  and  C_4 
REMARK       I    between atoms: C_4  and  N_5 
REMARK    2  A    between atoms: N_5  and  C_6 
REMARK    3  A    between atoms: C_6  and  C_7 
REMARK    4  A    between atoms: N_23  and  C_24 
REMARK    5  A    between atoms: C_24  and  C_25 
REMARK       I    between atoms: C_25  and  N_26 
REMARK    6  A    between atoms: N_26  and  C_27 
REMARK    7  A    between atoms: C_29  and  C_30 
ROOT
HETATM    1  C   UNL     1      39.711 -13.525   5.806  1.00  0.00     0.051 C 
HETATM    2  C   UNL     1      39.591 -12.381   4.846  1.00  0.00    -0.021 C 
HETATM    3  C   UNL     1      39.798 -12.476   3.469  1.00  0.00     0.081 C 
HETATM    4  S   UNL     1      39.460 -10.985   2.683  1.00  0.00    -0.063 SA
HETATM    5  C   UNL     1      39.202 -10.173   4.150  1.00  0.00     0.116 A 
HETATM    6  C   UNL     1      39.327 -11.016   5.231  1.00  0.00     0.075 A 
HETATM    7  C   UNL     1      39.207 -10.418   6.553  1.00  0.00     0.262 A 
HETATM    8  O   UNL     1      39.253 -11.063   7.601  1.00  0.00    -0.267 OA
HETATM    9  N   UNL     1      39.049  -9.034   6.542  1.00  0.00    -0.299 N 
HETATM   10  C   UNL     1      38.878  -8.333   5.365  1.00  0.00     0.214 A 
HETATM   11  N   UNL     1      38.937  -8.842   4.177  1.00  0.00    -0.235 NA
ENDROOT
BRANCH   3  12
HETATM   12  C   UNL     1      40.271 -13.630   2.702  1.00  0.00     0.259 C 
HETATM   13  N   UNL     1      41.637 -13.820   2.672  1.00  0.00    -0.354 N 
HETATM   14  H   UNL     1      42.231 -13.093   3.056  1.00  0.00     0.162 HD
HETATM   15  O   UNL     1      39.521 -14.425   2.138  1.00  0.00    -0.267 OA
BRANCH  13  16
HETATM   16  C   UNL     1      42.254 -14.958   2.015  1.00  0.00     0.157 C 
BRANCH  16  17
HETATM   17  C   UNL     1      42.396 -16.179   2.931  1.00  0.00     0.171 C 
HETATM   18  O   UNL     1      42.816 -17.294   2.121  1.00  0.00    -0.339 OA
HETATM   19  C   UNL     1      43.260 -18.337   2.892  1.00  0.00     0.102 A 
HETATM   20  C   UNL     1      43.611 -18.199   4.238  1.00  0.00     0.102 A 
HETATM   21  C   UNL     1      43.368 -19.577   2.267  1.00  0.00     0.039 A 
HETATM   22  O   UNL     1      43.558 -17.005   4.912  1.00  0.00    -0.346 OA
HETATM   23  C   UNL     1      44.033 -19.309   4.967  1.00  0.00     0.039 A 
HETATM   24  C   UNL     1      43.442 -15.900   4.009  1.00  0.00     0.209 C 
HETATM   25  C   UNL     1      44.128 -20.555   4.344  1.00  0.00     0.003 A 
HETATM   26  C   UNL     1      43.800 -20.687   2.994  1.00  0.00     0.003 A 
ENDBRANCH  16  17
ENDBRANCH  13  16
ENDBRANCH   3  12
BRANCH   9  27
HETATM   27  C   UNL     1      39.106  -8.325   7.806  1.00  0.00     0.236 C 
BRANCH  27  28
HETATM   28  C   UNL     1      40.549  -8.038   8.206  1.00  0.00     0.240 C 
HETATM   29  N   UNL     1      41.118  -9.062   8.945  1.00  0.00    -0.326 N 
HETATM   30  H   UNL     1      40.475  -9.758   9.325  1.00  0.00     0.169 HD
HETATM   31  O   UNL     1      41.079  -6.973   7.905  1.00  0.00    -0.271 OA
BRANCH  29  32
HETATM   32  C   UNL     1      42.470  -9.201   9.310  1.00  0.00     0.035 A 
HETATM   33  C   UNL     1      43.495  -9.478   8.401  1.00  0.00     0.045 A 
HETATM   34  C   UNL     1      44.819  -9.657   8.841  1.00  0.00     0.050 A 
HETATM   35  C   UNL     1      45.106  -9.541  10.209  1.00  0.00     0.016 A 
HETATM   36  C   UNL     1      44.089  -9.263  11.119  1.00  0.00     0.003 A 
HETATM   37  C   UNL     1      42.778  -9.100  10.672  1.00  0.00     0.029 A 
BRANCH  34  38
HETATM   38  C   UNL     1      45.926  -9.977   7.867  1.00  0.00     0.417 C 
HETATM   39  F   UNL     1      46.741  -8.923   7.589  1.00  0.00    -0.166 F 
HETATM   40  F   UNL     1      46.741 -10.973   8.314  1.00  0.00    -0.166 F 
HETATM   41  F   UNL     1      45.448 -10.402   6.663  1.00  0.00    -0.166 F 
ENDBRANCH  34  38
ENDBRANCH  29  32
ENDBRANCH  27  28
ENDBRANCH   9  27
TORSDOF 7
ENDMDL
