MODEL 1
REMARK VINA RESULT:      -8.1      0.000      0.000
REMARK  5 active torsions:
REMARK  status: ('A' for Active; 'I' for Inactive)
REMARK    1  A    between atoms: C_2  and  N_3 
REMARK    2  A    between atoms: C_2  and  C_19 
REMARK       I    between atoms: N_3  and  C_4 
REMARK    3  A    between atoms: C_4  and  C_5 
REMARK    4  A    between atoms: C_6  and  O_7 
REMARK    5  A    between atoms: O_7  and  C_8 
ROOT
HETATM    1  C   UNL     1      44.015 -18.328   4.510  1.00  0.00     0.065 A 
HETATM    2  C   UNL     1      43.868 -18.258   3.119  1.00  0.00     0.091 A 
HETATM    3  C   UNL     1      43.748 -19.441   2.376  1.00  0.00     0.038 A 
HETATM    4  C   UNL     1      43.728 -20.680   3.022  1.00  0.00     0.003 A 
HETATM    5  C   UNL     1      43.846 -20.747   4.408  1.00  0.00     0.001 A 
HETATM    6  C   UNL     1      43.990 -19.576   5.153  1.00  0.00     0.020 A 
ENDROOT
BRANCH   1   7
HETATM    7  C   UNL     1      44.153 -17.096   5.327  1.00  0.00     0.255 C 
HETATM    8  N   UNL     1      42.982 -16.400   5.542  1.00  0.00    -0.348 N 
HETATM    9  H   UNL     1      42.099 -16.827   5.292  1.00  0.00     0.163 HD
HETATM   10  O   UNL     1      45.245 -16.735   5.747  1.00  0.00    -0.268 OA
BRANCH   8  11
HETATM   11  C   UNL     1      42.942 -15.203   6.375  1.00  0.00     0.115 C 
HETATM   12  C   UNL     1      42.833 -15.625   7.843  1.00  0.00     0.037 C 
BRANCH  11  13
HETATM   13  C   UNL     1      41.854 -14.270   5.877  1.00  0.00    -0.018 A 
HETATM   14  C   UNL     1      40.583 -14.191   6.438  1.00  0.00     0.125 A 
HETATM   15  N   UNL     1      39.609 -13.346   6.021  1.00  0.00    -0.273 NA
HETATM   16  C   UNL     1      39.913 -12.522   4.998  1.00  0.00     0.116 A 
HETATM   17  C   UNL     1      41.144 -12.503   4.370  1.00  0.00     0.020 A 
HETATM   18  C   UNL     1      42.123 -13.383   4.822  1.00  0.00     0.012 A 
ENDBRANCH  11  13
ENDBRANCH   8  11
ENDBRANCH   1   7
BRANCH   2  19
HETATM   19  O   UNL     1      43.956 -17.035   2.490  1.00  0.00    -0.310 OA
BRANCH  19  20
HETATM   20  C   UNL     1      42.774 -16.399   2.183  1.00  0.00     0.076 A 
HETATM   21  C   UNL     1      41.525 -16.923   2.525  1.00  0.00     0.037 A 
HETATM   22  C   UNL     1      40.366 -16.219   2.198  1.00  0.00     0.003 A 
HETATM   23  C   UNL     1      40.456 -14.985   1.552  1.00  0.00     0.000 A 
HETATM   24  C   UNL     1      41.706 -14.449   1.240  1.00  0.00     0.003 A 
HETATM   25  C   UNL     1      42.866 -15.152   1.563  1.00  0.00     0.037 A 
ENDBRANCH  19  20
ENDBRANCH   2  19
TORSDOF 5
ENDMDL
MODEL 2
REMARK VINA RESULT:      -7.6      2.114      4.622
REMARK  5 active torsions:
REMARK  status: ('A' for Active; 'I' for Inactive)
REMARK    1  A    between atoms: C_2  and  N_3 
REMARK    2  A    between atoms: C_2  and  C_19 
REMARK       I    between atoms: N_3  and  C_4 
REMARK    3  A    between atoms: C_4  and  C_5 
REMARK    4  A    between atoms: C_6  and  O_7 
REMARK    5  A    between atoms: O_7  and  C_8 
ROOT
HETATM    1  C   UNL     1      42.124 -16.056   5.789  1.00  0.00     0.065 A 
HETATM    2  C   UNL     1      43.367 -16.502   5.324  1.00  0.00     0.091 A 
HETATM    3  C   UNL     1      44.464 -16.526   6.197  1.00  0.00     0.038 A 
HETATM    4  C   UNL     1      44.310 -16.152   7.534  1.00  0.00     0.003 A 
HETATM    5  C   UNL     1      43.066 -15.735   8.003  1.00  0.00     0.001 A 
HETATM    6  C   UNL     1      41.974 -15.685   7.136  1.00  0.00     0.020 A 
ENDROOT
BRANCH   1   7
HETATM    7  C   UNL     1      40.943 -16.010   4.891  1.00  0.00     0.255 C 
HETATM    8  N   UNL     1      41.086 -15.218   3.772  1.00  0.00    -0.348 N 
HETATM    9  H   UNL     1      42.002 -14.857   3.534  1.00  0.00     0.163 HD
HETATM   10  O   UNL     1      39.918 -16.623   5.163  1.00  0.00    -0.268 OA
BRANCH   8  11
HETATM   11  C   UNL     1      40.038 -15.117   2.763  1.00  0.00     0.115 C 
HETATM   12  C   UNL     1      40.424 -15.982   1.559  1.00  0.00     0.037 C 
BRANCH  11  13
HETATM   13  C   UNL     1      39.758 -13.657   2.460  1.00  0.00    -0.018 A 
HETATM   14  C   UNL     1      39.787 -13.110   1.180  1.00  0.00     0.125 A 
HETATM   15  N   UNL     1      39.516 -11.815   0.891  1.00  0.00    -0.273 NA
HETATM   16  C   UNL     1      39.184 -11.015   1.925  1.00  0.00     0.116 A 
HETATM   17  C   UNL     1      39.112 -11.449   3.235  1.00  0.00     0.020 A 
HETATM   18  C   UNL     1      39.396 -12.785   3.500  1.00  0.00     0.012 A 
ENDBRANCH  11  13
ENDBRANCH   8  11
ENDBRANCH   1   7
BRANCH   2  19
HETATM   19  O   UNL     1      43.521 -16.804   3.988  1.00  0.00    -0.310 OA
BRANCH  19  20
HETATM   20  C   UNL     1      43.611 -18.137   3.651  1.00  0.00     0.076 A 
HETATM   21  C   UNL     1      44.060 -19.111   4.545  1.00  0.00     0.037 A 
HETATM   22  C   UNL     1      44.112 -20.447   4.144  1.00  0.00     0.003 A 
HETATM   23  C   UNL     1      43.697 -20.809   2.862  1.00  0.00     0.000 A 
HETATM   24  C   UNL     1      43.218 -19.837   1.982  1.00  0.00     0.003 A 
HETATM   25  C   UNL     1      43.168 -18.501   2.379  1.00  0.00     0.037 A 
ENDBRANCH  19  20
ENDBRANCH   2  19
TORSDOF 5
ENDMDL
MODEL 3
REMARK VINA RESULT:      -7.5      2.584      3.361
REMARK  5 active torsions:
REMARK  status: ('A' for Active; 'I' for Inactive)
REMARK    1  A    between atoms: C_2  and  N_3 
REMARK    2  A    between atoms: C_2  and  C_19 
REMARK       I    between atoms: N_3  and  C_4 
REMARK    3  A    between atoms: C_4  and  C_5 
REMARK    4  A    between atoms: C_6  and  O_7 
REMARK    5  A    between atoms: O_7  and  C_8 
ROOT
HETATM    1  C   UNL     1      42.784 -16.563   4.645  1.00  0.00     0.065 A 
HETATM    2  C   UNL     1      41.963 -16.787   3.533  1.00  0.00     0.091 A 
HETATM    3  C   UNL     1      42.363 -17.704   2.551  1.00  0.00     0.038 A 
HETATM    4  C   UNL     1      43.549 -18.426   2.702  1.00  0.00     0.003 A 
HETATM    5  C   UNL     1      44.352 -18.224   3.823  1.00  0.00     0.001 A 
HETATM    6  C   UNL     1      43.974 -17.295   4.793  1.00  0.00     0.020 A 
ENDROOT
BRANCH   1   7
HETATM    7  C   UNL     1      42.396 -15.594   5.700  1.00  0.00     0.255 C 
HETATM    8  N   UNL     1      42.701 -14.277   5.429  1.00  0.00    -0.348 N 
HETATM    9  H   UNL     1      43.006 -14.020   4.498  1.00  0.00     0.163 HD
HETATM   10  O   UNL     1      41.865 -15.968   6.738  1.00  0.00    -0.268 OA
BRANCH   8  11
HETATM   11  C   UNL     1      42.330 -13.199   6.339  1.00  0.00     0.115 C 
HETATM   12  C   UNL     1      41.146 -12.433   5.742  1.00  0.00     0.037 C 
BRANCH  11  13
HETATM   13  C   UNL     1      43.553 -12.365   6.669  1.00  0.00    -0.018 A 
HETATM   14  C   UNL     1      43.866 -11.919   7.950  1.00  0.00     0.125 A 
HETATM   15  N   UNL     1      44.967 -11.194   8.266  1.00  0.00    -0.273 NA
HETATM   16  C   UNL     1      45.815 -10.903   7.259  1.00  0.00     0.116 A 
HETATM   17  C   UNL     1      45.614 -11.301   5.951  1.00  0.00     0.020 A 
HETATM   18  C   UNL     1      44.474 -12.044   5.659  1.00  0.00     0.012 A 
ENDBRANCH  11  13
ENDBRANCH   8  11
ENDBRANCH   1   7
BRANCH   2  19
HETATM   19  O   UNL     1      40.830 -16.021   3.364  1.00  0.00    -0.310 OA
BRANCH  19  20
HETATM   20  C   UNL     1      40.781 -15.207   2.254  1.00  0.00     0.076 A 
HETATM   21  C   UNL     1      41.544 -14.042   2.140  1.00  0.00     0.037 A 
HETATM   22  C   UNL     1      41.459 -13.270   0.980  1.00  0.00     0.003 A 
HETATM   23  C   UNL     1      40.632 -13.673  -0.069  1.00  0.00     0.000 A 
HETATM   24  C   UNL     1      39.896 -14.854   0.035  1.00  0.00     0.003 A 
HETATM   25  C   UNL     1      39.976 -15.626   1.194  1.00  0.00     0.037 A 
ENDBRANCH  19  20
ENDBRANCH   2  19
TORSDOF 5
ENDMDL
MODEL 4
REMARK VINA RESULT:      -7.5      2.902      3.608
REMARK  5 active torsions:
REMARK  status: ('A' for Active; 'I' for Inactive)
REMARK    1  A    between atoms: C_2  and  N_3 
REMARK    2  A    between atoms: C_2  and  C_19 
REMARK       I    between atoms: N_3  and  C_4 
REMARK    3  A    between atoms: C_4  and  C_5 
REMARK    4  A    between atoms: C_6  and  O_7 
REMARK    5  A    between atoms: O_7  and  C_8 
ROOT
HETATM    1  C   UNL     1      43.065 -15.956   5.550  1.00  0.00     0.065 A 
HETATM    2  C   UNL     1      43.400 -16.434   4.277  1.00  0.00     0.091 A 
HETATM    3  C   UNL     1      43.757 -17.780   4.115  1.00  0.00     0.038 A 
HETATM    4  C   UNL     1      43.733 -18.652   5.206  1.00  0.00     0.003 A 
HETATM    5  C   UNL     1      43.371 -18.183   6.467  1.00  0.00     0.001 A 
HETATM    6  C   UNL     1      43.038 -16.839   6.642  1.00  0.00     0.020 A 
ENDROOT
BRANCH   1   7
HETATM    7  C   UNL     1      42.689 -14.535   5.759  1.00  0.00     0.255 C 
HETATM    8  N   UNL     1      43.622 -13.612   5.334  1.00  0.00    -0.348 N 
HETATM    9  H   UNL     1      44.405 -13.922   4.772  1.00  0.00     0.163 HD
HETATM   10  O   UNL     1      41.631 -14.234   6.296  1.00  0.00    -0.268 OA
BRANCH   8  11
HETATM   11  C   UNL     1      43.375 -12.177   5.415  1.00  0.00     0.115 C 
HETATM   12  C   UNL     1      43.614 -11.555   4.036  1.00  0.00     0.037 C 
BRANCH  11  13
HETATM   13  C   UNL     1      44.182 -11.583   6.554  1.00  0.00    -0.018 A 
HETATM   14  C   UNL     1      43.695 -11.416   7.847  1.00  0.00     0.125 A 
HETATM   15  N   UNL     1      44.411 -10.910   8.880  1.00  0.00    -0.273 NA
HETATM   16  C   UNL     1      45.688 -10.560   8.624  1.00  0.00     0.116 A 
HETATM   17  C   UNL     1      46.283 -10.691   7.383  1.00  0.00     0.020 A 
HETATM   18  C   UNL     1      45.521 -11.214   6.343  1.00  0.00     0.012 A 
ENDBRANCH  11  13
ENDBRANCH   8  11
ENDBRANCH   1   7
BRANCH   2  19
HETATM   19  O   UNL     1      43.484 -15.549   3.223  1.00  0.00    -0.310 OA
BRANCH  19  20
HETATM   20  C   UNL     1      42.354 -15.378   2.454  1.00  0.00     0.076 A 
HETATM   21  C   UNL     1      41.293 -16.286   2.461  1.00  0.00     0.037 A 
HETATM   22  C   UNL     1      40.169 -16.044   1.670  1.00  0.00     0.003 A 
HETATM   23  C   UNL     1      40.098 -14.887   0.892  1.00  0.00     0.000 A 
HETATM   24  C   UNL     1      41.146 -13.966   0.912  1.00  0.00     0.003 A 
HETATM   25  C   UNL     1      42.271 -14.207   1.700  1.00  0.00     0.037 A 
ENDBRANCH  19  20
ENDBRANCH   2  19
TORSDOF 5
ENDMDL
MODEL 5
REMARK VINA RESULT:      -7.4      2.500      4.781
REMARK  5 active torsions:
REMARK  status: ('A' for Active; 'I' for Inactive)
REMARK    1  A    between atoms: C_2  and  N_3 
REMARK    2  A    between atoms: C_2  and  C_19 
REMARK       I    between atoms: N_3  and  C_4 
REMARK    3  A    between atoms: C_4  and  C_5 
REMARK    4  A    between atoms: C_6  and  O_7 
REMARK    5  A    between atoms: O_7  and  C_8 
ROOT
HETATM    1  C   UNL     1      43.103 -16.704   2.725  1.00  0.00     0.065 A 
HETATM    2  C   UNL     1      43.615 -16.942   4.006  1.00  0.00     0.091 A 
HETATM    3  C   UNL     1      43.947 -18.251   4.386  1.00  0.00     0.038 A 
HETATM    4  C   UNL     1      43.812 -19.304   3.478  1.00  0.00     0.003 A 
HETATM    5  C   UNL     1      43.329 -19.062   2.194  1.00  0.00     0.001 A 
HETATM    6  C   UNL     1      42.974 -17.766   1.815  1.00  0.00     0.020 A 
ENDROOT
BRANCH   1   7
HETATM    7  C   UNL     1      42.735 -15.333   2.292  1.00  0.00     0.255 C 
HETATM    8  N   UNL     1      41.381 -15.084   2.215  1.00  0.00    -0.348 N 
HETATM    9  H   UNL     1      40.731 -15.758   2.601  1.00  0.00     0.163 HD
HETATM   10  O   UNL     1      43.594 -14.508   2.005  1.00  0.00    -0.268 OA
BRANCH   8  11
HETATM   11  C   UNL     1      40.859 -13.769   1.863  1.00  0.00     0.115 C 
HETATM   12  C   UNL     1      39.730 -13.408   2.833  1.00  0.00     0.037 C 
BRANCH  11  13
HETATM   13  C   UNL     1      40.496 -13.739   0.391  1.00  0.00    -0.018 A 
HETATM   14  C   UNL     1      40.852 -12.710  -0.476  1.00  0.00     0.125 A 
HETATM   15  N   UNL     1      40.556 -12.681  -1.798  1.00  0.00    -0.273 NA
HETATM   16  C   UNL     1      39.881 -13.737  -2.296  1.00  0.00     0.116 A 
HETATM   17  C   UNL     1      39.485 -14.820  -1.534  1.00  0.00     0.020 A 
HETATM   18  C   UNL     1      39.804 -14.820  -0.180  1.00  0.00     0.012 A 
ENDBRANCH  11  13
ENDBRANCH   8  11
ENDBRANCH   1   7
BRANCH   2  19
HETATM   19  O   UNL     1      43.680 -15.906   4.913  1.00  0.00    -0.310 OA
BRANCH  19  20
HETATM   20  C   UNL     1      42.489 -15.449   5.432  1.00  0.00     0.076 A 
HETATM   21  C   UNL     1      41.474 -16.309   5.858  1.00  0.00     0.037 A 
HETATM   22  C   UNL     1      40.297 -15.779   6.390  1.00  0.00     0.003 A 
HETATM   23  C   UNL     1      40.146 -14.398   6.515  1.00  0.00     0.000 A 
HETATM   24  C   UNL     1      41.175 -13.543   6.119  1.00  0.00     0.003 A 
HETATM   25  C   UNL     1      42.351 -14.069   5.584  1.00  0.00     0.037 A 
ENDBRANCH  19  20
ENDBRANCH   2  19
TORSDOF 5
ENDMDL
MODEL 6
REMARK VINA RESULT:      -7.3      3.120      6.116
REMARK  5 active torsions:
REMARK  status: ('A' for Active; 'I' for Inactive)
REMARK    1  A    between atoms: C_2  and  N_3 
REMARK    2  A    between atoms: C_2  and  C_19 
REMARK       I    between atoms: N_3  and  C_4 
REMARK    3  A    between atoms: C_4  and  C_5 
REMARK    4  A    between atoms: C_6  and  O_7 
REMARK    5  A    between atoms: O_7  and  C_8 
ROOT
HETATM    1  C   UNL     1      41.232 -14.072   3.895  1.00  0.00     0.065 A 
HETATM    2  C   UNL     1      41.145 -15.470   3.888  1.00  0.00     0.091 A 
HETATM    3  C   UNL     1      40.687 -16.140   5.031  1.00  0.00     0.038 A 
HETATM    4  C   UNL     1      40.276 -15.419   6.154  1.00  0.00     0.003 A 
HETATM    5  C   UNL     1      40.336 -14.027   6.151  1.00  0.00     0.001 A 
HETATM    6  C   UNL     1      40.814 -13.352   5.026  1.00  0.00     0.020 A 
ENDROOT
BRANCH   1   7
HETATM    7  C   UNL     1      41.720 -13.331   2.706  1.00  0.00     0.255 C 
HETATM    8  N   UNL     1      40.808 -13.202   1.679  1.00  0.00    -0.348 N 
HETATM    9  H   UNL     1      39.841 -13.457   1.840  1.00  0.00     0.163 HD
HETATM   10  O   UNL     1      42.863 -12.896   2.657  1.00  0.00    -0.268 OA
BRANCH   8  11
HETATM   11  C   UNL     1      41.115 -12.449   0.468  1.00  0.00     0.115 C 
HETATM   12  C   UNL     1      40.746 -10.979   0.692  1.00  0.00     0.037 C 
BRANCH  11  13
HETATM   13  C   UNL     1      40.463 -13.116  -0.728  1.00  0.00    -0.018 A 
HETATM   14  C   UNL     1      40.541 -12.625  -2.028  1.00  0.00     0.125 A 
HETATM   15  N   UNL     1      39.985 -13.221  -3.111  1.00  0.00    -0.273 NA
HETATM   16  C   UNL     1      39.325 -14.377  -2.898  1.00  0.00     0.116 A 
HETATM   17  C   UNL     1      39.192 -14.965  -1.654  1.00  0.00     0.020 A 
HETATM   18  C   UNL     1      39.774 -14.328  -0.563  1.00  0.00     0.012 A 
ENDBRANCH  11  13
ENDBRANCH   8  11
ENDBRANCH   1   7
BRANCH   2  19
HETATM   19  O   UNL     1      41.615 -16.172   2.799  1.00  0.00    -0.310 OA
BRANCH  19  20
HETATM   20  C   UNL     1      42.511 -17.189   3.045  1.00  0.00     0.076 A 
HETATM   21  C   UNL     1      42.603 -18.324   2.237  1.00  0.00     0.037 A 
HETATM   22  C   UNL     1      43.545 -19.311   2.533  1.00  0.00     0.003 A 
HETATM   23  C   UNL     1      44.405 -19.151   3.620  1.00  0.00     0.000 A 
HETATM   24  C   UNL     1      44.333 -18.001   4.407  1.00  0.00     0.003 A 
HETATM   25  C   UNL     1      43.391 -17.015   4.114  1.00  0.00     0.037 A 
ENDBRANCH  19  20
ENDBRANCH   2  19
TORSDOF 5
ENDMDL
MODEL 7
REMARK VINA RESULT:      -7.2      2.954      5.325
REMARK  5 active torsions:
REMARK  status: ('A' for Active; 'I' for Inactive)
REMARK    1  A    between atoms: C_2  and  N_3 
REMARK    2  A    between atoms: C_2  and  C_19 
REMARK       I    between atoms: N_3  and  C_4 
REMARK    3  A    between atoms: C_4  and  C_5 
REMARK    4  A    between atoms: C_6  and  O_7 
REMARK    5  A    between atoms: O_7  and  C_8 
ROOT
HETATM    1  C   UNL     1      41.917 -16.283   2.911  1.00  0.00     0.065 A 
HETATM    2  C   UNL     1      42.458 -15.910   4.148  1.00  0.00     0.091 A 
HETATM    3  C   UNL     1      43.503 -16.664   4.701  1.00  0.00     0.038 A 
HETATM    4  C   UNL     1      44.033 -17.752   4.004  1.00  0.00     0.003 A 
HETATM    5  C   UNL     1      43.513 -18.106   2.760  1.00  0.00     0.001 A 
HETATM    6  C   UNL     1      42.457 -17.376   2.213  1.00  0.00     0.020 A 
ENDROOT
BRANCH   1   7
HETATM    7  C   UNL     1      40.805 -15.512   2.299  1.00  0.00     0.255 C 
HETATM    8  N   UNL     1      41.182 -14.603   1.334  1.00  0.00    -0.348 N 
HETATM    9  H   UNL     1      42.131 -14.619   0.981  1.00  0.00     0.163 HD
HETATM   10  O   UNL     1      39.647 -15.676   2.663  1.00  0.00    -0.268 OA
BRANCH   8  11
HETATM   11  C   UNL     1      40.202 -13.812   0.598  1.00  0.00     0.115 C 
HETATM   12  C   UNL     1      39.775 -14.591  -0.650  1.00  0.00     0.037 C 
BRANCH  11  13
HETATM   13  C   UNL     1      40.750 -12.420   0.349  1.00  0.00    -0.018 A 
HETATM   14  C   UNL     1      41.316 -11.620   1.337  1.00  0.00     0.125 A 
HETATM   15  N   UNL     1      41.832 -10.385   1.126  1.00  0.00    -0.273 NA
HETATM   16  C   UNL     1      41.799  -9.918  -0.139  1.00  0.00     0.116 A 
HETATM   17  C   UNL     1      41.274 -10.627  -1.202  1.00  0.00     0.020 A 
HETATM   18  C   UNL     1      40.751 -11.893  -0.953  1.00  0.00     0.012 A 
ENDBRANCH  11  13
ENDBRANCH   8  11
ENDBRANCH   1   7
BRANCH   2  19
HETATM   19  O   UNL     1      41.882 -14.876   4.854  1.00  0.00    -0.310 OA
BRANCH  19  20
HETATM   20  C   UNL     1      42.688 -13.806   5.172  1.00  0.00     0.076 A 
HETATM   21  C   UNL     1      43.254 -13.639   6.438  1.00  0.00     0.037 A 
HETATM   22  C   UNL     1      44.076 -12.539   6.689  1.00  0.00     0.003 A 
HETATM   23  C   UNL     1      44.347 -11.622   5.672  1.00  0.00     0.000 A 
HETATM   24  C   UNL     1      43.806 -11.810   4.400  1.00  0.00     0.003 A 
HETATM   25  C   UNL     1      42.983 -12.906   4.147  1.00  0.00     0.037 A 
ENDBRANCH  19  20
ENDBRANCH   2  19
TORSDOF 5
ENDMDL
MODEL 8
REMARK VINA RESULT:      -7.1      3.250      6.413
REMARK  5 active torsions:
REMARK  status: ('A' for Active; 'I' for Inactive)
REMARK    1  A    between atoms: C_2  and  N_3 
REMARK    2  A    between atoms: C_2  and  C_19 
REMARK       I    between atoms: N_3  and  C_4 
REMARK    3  A    between atoms: C_4  and  C_5 
REMARK    4  A    between atoms: C_6  and  O_7 
REMARK    5  A    between atoms: O_7  and  C_8 
ROOT
HETATM    1  C   UNL     1      41.675 -13.054   3.862  1.00  0.00     0.065 A 
HETATM    2  C   UNL     1      42.082 -14.045   4.764  1.00  0.00     0.091 A 
HETATM    3  C   UNL     1      43.139 -13.783   5.647  1.00  0.00     0.038 A 
HETATM    4  C   UNL     1      43.752 -12.529   5.661  1.00  0.00     0.003 A 
HETATM    5  C   UNL     1      43.328 -11.534   4.783  1.00  0.00     0.001 A 
HETATM    6  C   UNL     1      42.292 -11.793   3.884  1.00  0.00     0.020 A 
ENDROOT
BRANCH   1   7
HETATM    7  C   UNL     1      40.564 -13.299   2.908  1.00  0.00     0.255 C 
HETATM    8  N   UNL     1      40.943 -13.796   1.679  1.00  0.00    -0.348 N 
HETATM    9  H   UNL     1      41.895 -14.117   1.547  1.00  0.00     0.163 HD
HETATM   10  O   UNL     1      39.405 -13.045   3.209  1.00  0.00    -0.268 OA
BRANCH   8  11
HETATM   11  C   UNL     1      39.965 -14.145   0.656  1.00  0.00     0.115 C 
HETATM   12  C   UNL     1      39.796 -15.667   0.630  1.00  0.00     0.037 C 
BRANCH  11  13
HETATM   13  C   UNL     1      40.353 -13.504  -0.663  1.00  0.00    -0.018 A 
HETATM   14  C   UNL     1      40.150 -14.099  -1.905  1.00  0.00     0.125 A 
HETATM   15  N   UNL     1      40.469 -13.530  -3.093  1.00  0.00    -0.273 NA
HETATM   16  C   UNL     1      41.009 -12.295  -3.052  1.00  0.00     0.116 A 
HETATM   17  C   UNL     1      41.246 -11.602  -1.880  1.00  0.00     0.020 A 
HETATM   18  C   UNL     1      40.908 -12.214  -0.676  1.00  0.00     0.012 A 
ENDBRANCH  11  13
ENDBRANCH   8  11
ENDBRANCH   1   7
BRANCH   2  19
HETATM   19  O   UNL     1      41.513 -15.299   4.695  1.00  0.00    -0.310 OA
BRANCH  19  20
HETATM   20  C   UNL     1      42.314 -16.329   4.253  1.00  0.00     0.076 A 
HETATM   21  C   UNL     1      42.573 -16.554   2.899  1.00  0.00     0.037 A 
HETATM   22  C   UNL     1      43.407 -17.607   2.520  1.00  0.00     0.003 A 
HETATM   23  C   UNL     1      43.997 -18.416   3.491  1.00  0.00     0.000 A 
HETATM   24  C   UNL     1      43.763 -18.168   4.844  1.00  0.00     0.003 A 
HETATM   25  C   UNL     1      42.927 -17.118   5.226  1.00  0.00     0.037 A 
ENDBRANCH  19  20
ENDBRANCH   2  19
TORSDOF 5
ENDMDL
MODEL 9
REMARK VINA RESULT:      -7.1      3.166      6.970
REMARK  5 active torsions:
REMARK  status: ('A' for Active; 'I' for Inactive)
REMARK    1  A    between atoms: C_2  and  N_3 
REMARK    2  A    between atoms: C_2  and  C_19 
REMARK       I    between atoms: N_3  and  C_4 
REMARK    3  A    between atoms: C_4  and  C_5 
REMARK    4  A    between atoms: C_6  and  O_7 
REMARK    5  A    between atoms: O_7  and  C_8 
ROOT
HETATM    1  C   UNL     1      42.339 -13.117   4.420  1.00  0.00     0.065 A 
HETATM    2  C   UNL     1      42.366 -11.873   5.063  1.00  0.00     0.091 A 
HETATM    3  C   UNL     1      42.360 -10.699   4.296  1.00  0.00     0.038 A 
HETATM    4  C   UNL     1      42.281 -10.767   2.903  1.00  0.00     0.003 A 
HETATM    5  C   UNL     1      42.225 -12.004   2.266  1.00  0.00     0.001 A 
HETATM    6  C   UNL     1      42.254 -13.178   3.020  1.00  0.00     0.020 A 
ENDROOT
BRANCH   1   7
HETATM    7  C   UNL     1      42.352 -14.381   5.199  1.00  0.00     0.255 C 
HETATM    8  N   UNL     1      43.322 -15.289   4.831  1.00  0.00    -0.348 N 
HETATM    9  H   UNL     1      44.054 -15.000   4.193  1.00  0.00     0.163 HD
HETATM   10  O   UNL     1      41.531 -14.585   6.085  1.00  0.00    -0.268 OA
BRANCH   8  11
HETATM   11  C   UNL     1      43.502 -16.551   5.540  1.00  0.00     0.115 C 
HETATM   12  C   UNL     1      44.681 -16.411   6.507  1.00  0.00     0.037 C 
BRANCH  11  13
HETATM   13  C   UNL     1      43.602 -17.688   4.541  1.00  0.00    -0.018 A 
HETATM   14  C   UNL     1      44.081 -18.957   4.856  1.00  0.00     0.125 A 
HETATM   15  N   UNL     1      44.154 -19.990   3.982  1.00  0.00    -0.273 NA
HETATM   16  C   UNL     1      43.716 -19.761   2.727  1.00  0.00     0.116 A 
HETATM   17  C   UNL     1      43.210 -18.546   2.304  1.00  0.00     0.020 A 
HETATM   18  C   UNL     1      43.149 -17.505   3.225  1.00  0.00     0.012 A 
ENDBRANCH  11  13
ENDBRANCH   8  11
ENDBRANCH   1   7
BRANCH   2  19
HETATM   19  O   UNL     1      42.512 -11.822   6.432  1.00  0.00    -0.310 OA
BRANCH  19  20
HETATM   20  C   UNL     1      43.628 -11.181   6.922  1.00  0.00     0.076 A 
HETATM   21  C   UNL     1      43.549 -10.094   7.796  1.00  0.00     0.037 A 
HETATM   22  C   UNL     1      44.721  -9.499   8.268  1.00  0.00     0.003 A 
HETATM   23  C   UNL     1      45.964 -10.004   7.886  1.00  0.00     0.000 A 
HETATM   24  C   UNL     1      46.039 -11.111   7.039  1.00  0.00     0.003 A 
HETATM   25  C   UNL     1      44.870 -11.705   6.563  1.00  0.00     0.037 A 
ENDBRANCH  19  20
ENDBRANCH   2  19
TORSDOF 5
ENDMDL
MODEL 10
REMARK VINA RESULT:      -7.1      2.333      4.615
REMARK  5 active torsions:
REMARK  status: ('A' for Active; 'I' for Inactive)
REMARK    1  A    between atoms: C_2  and  N_3 
REMARK    2  A    between atoms: C_2  and  C_19 
REMARK       I    between atoms: N_3  and  C_4 
REMARK    3  A    between atoms: C_4  and  C_5 
REMARK    4  A    between atoms: C_6  and  O_7 
REMARK    5  A    between atoms: O_7  and  C_8 
ROOT
HETATM    1  C   UNL     1      42.137 -16.785   3.219  1.00  0.00     0.065 A 
HETATM    2  C   UNL     1      42.766 -16.512   4.440  1.00  0.00     0.091 A 
HETATM    3  C   UNL     1      43.865 -17.286   4.840  1.00  0.00     0.038 A 
HETATM    4  C   UNL     1      44.360 -18.291   4.006  1.00  0.00     0.003 A 
HETATM    5  C   UNL     1      43.751 -18.543   2.779  1.00  0.00     0.001 A 
HETATM    6  C   UNL     1      42.642 -17.795   2.383  1.00  0.00     0.020 A 
ENDROOT
BRANCH   1   7
HETATM    7  C   UNL     1      40.966 -15.992   2.768  1.00  0.00     0.255 C 
HETATM    8  N   UNL     1      41.198 -15.162   1.692  1.00  0.00    -0.348 N 
HETATM    9  H   UNL     1      42.065 -15.251   1.175  1.00  0.00     0.163 HD
HETATM   10  O   UNL     1      39.889 -16.071   3.345  1.00  0.00    -0.268 OA
BRANCH   8  11
HETATM   11  C   UNL     1      40.135 -14.363   1.093  1.00  0.00     0.115 C 
HETATM   12  C   UNL     1      40.207 -14.504  -0.430  1.00  0.00     0.037 C 
BRANCH  11  13
HETATM   13  C   UNL     1      40.199 -12.945   1.626  1.00  0.00    -0.018 A 
HETATM   14  C   UNL     1      39.308 -12.425   2.561  1.00  0.00     0.125 A 
HETATM   15  N   UNL     1      39.366 -11.169   3.065  1.00  0.00    -0.273 NA
HETATM   16  C   UNL     1      40.371 -10.383   2.629  1.00  0.00     0.116 A 
HETATM   17  C   UNL     1      41.320 -10.793   1.711  1.00  0.00     0.020 A 
HETATM   18  C   UNL     1      41.233 -12.089   1.213  1.00  0.00     0.012 A 
ENDBRANCH  11  13
ENDBRANCH   8  11
ENDBRANCH   1   7
BRANCH   2  19
HETATM   19  O   UNL     1      42.226 -15.563   5.282  1.00  0.00    -0.310 OA
BRANCH  19  20
HETATM   20  C   UNL     1      42.882 -14.355   5.370  1.00  0.00     0.076 A 
HETATM   21  C   UNL     1      42.832 -13.395   4.357  1.00  0.00     0.037 A 
HETATM   22  C   UNL     1      43.507 -12.184   4.517  1.00  0.00     0.003 A 
HETATM   23  C   UNL     1      44.211 -11.926   5.694  1.00  0.00     0.000 A 
HETATM   24  C   UNL     1      44.232 -12.875   6.718  1.00  0.00     0.003 A 
HETATM   25  C   UNL     1      43.561 -14.087   6.559  1.00  0.00     0.037 A 
ENDBRANCH  19  20
ENDBRANCH   2  19
TORSDOF 5
ENDMDL
