MODEL 1
REMARK VINA RESULT:      -7.7      0.000      0.000
REMARK  2 active torsions:
REMARK  status: ('A' for Active; 'I' for Inactive)
REMARK    1  A    between atoms: C_2  and  C_3 
REMARK    2  A    between atoms: C_3  and  N_4 
ROOT
HETATM    1  N   UNL     1      42.601 -14.887   3.038  1.00  0.00    -0.203 NA
HETATM    2  S   UNL     1      40.971 -14.618   3.449  1.00  0.00     0.219 S 
HETATM    3  O   UNL     1      40.615 -15.373   4.620  1.00  0.00    -0.211 OA
HETATM    4  O   UNL     1      40.207 -14.653   2.220  1.00  0.00    -0.211 OA
HETATM    5  C   UNL     1      41.165 -12.895   3.837  1.00  0.00     0.164 C 
HETATM    6  C   UNL     1      42.583 -12.527   3.389  1.00  0.00     0.116 C 
HETATM    7  O   UNL     1      43.341 -12.430   4.622  1.00  0.00    -0.369 OA
HETATM    8  C   UNL     1      42.441 -11.773   5.533  1.00  0.00     0.149 C 
HETATM    9  C   UNL     1      42.408 -10.278   5.141  1.00  0.00     0.264 C 
HETATM   10  N   UNL     1      42.004 -10.105   3.685  1.00  0.00    -0.070 N 
HETATM   11  H   UNL     1      40.978 -10.120   3.607  1.00  0.00     0.277 HD
HETATM   12  H   UNL     1      42.281  -9.159   3.380  1.00  0.00     0.277 HD
HETATM   13  C   UNL     1      42.633 -11.129   2.747  1.00  0.00     0.273 C 
HETATM   14  C   UNL     1      43.156 -13.629   2.486  1.00  0.00     0.148 C 
HETATM   15  C   UNL     1      41.128 -12.517   5.311  1.00  0.00     0.058 C 
ENDROOT
BRANCH   1  16
HETATM   16  C   UNL     1      42.871 -16.075   2.190  1.00  0.00     0.145 C 
BRANCH  16  17
HETATM   17  C   UNL     1      43.296 -17.303   2.954  1.00  0.00    -0.044 A 
HETATM   18  C   UNL     1      43.685 -17.204   4.300  1.00  0.00     0.010 A 
HETATM   19  C   UNL     1      44.079 -18.341   5.009  1.00  0.00     0.024 A 
HETATM   20  C   UNL     1      44.091 -19.582   4.377  1.00  0.00     0.034 A 
HETATM   21  C   UNL     1      43.714 -19.695   3.040  1.00  0.00     0.024 A 
HETATM   22 CL   UNL     1      44.574 -20.982   5.252  1.00  0.00    -0.084 Cl
HETATM   23  C   UNL     1      43.319 -18.559   2.330  1.00  0.00     0.010 A 
ENDBRANCH  16  17
ENDBRANCH   1  16
TORSDOF 2
ENDMDL
MODEL 2
REMARK VINA RESULT:      -7.3      1.888      3.079
REMARK  2 active torsions:
REMARK  status: ('A' for Active; 'I' for Inactive)
REMARK    1  A    between atoms: C_2  and  C_3 
REMARK    2  A    between atoms: C_3  and  N_4 
ROOT
HETATM    1  N   UNL     1      41.992 -14.497   4.386  1.00  0.00    -0.203 NA
HETATM    2  S   UNL     1      42.869 -13.117   3.912  1.00  0.00     0.219 S 
HETATM    3  O   UNL     1      43.504 -13.334   2.639  1.00  0.00    -0.211 OA
HETATM    4  O   UNL     1      43.578 -12.637   5.079  1.00  0.00    -0.211 OA
HETATM    5  C   UNL     1      41.456 -12.053   3.745  1.00  0.00     0.164 C 
HETATM    6  C   UNL     1      40.275 -12.842   4.319  1.00  0.00     0.116 C 
HETATM    7  O   UNL     1      39.526 -13.275   3.154  1.00  0.00    -0.369 OA
HETATM    8  C   UNL     1      39.560 -12.135   2.276  1.00  0.00     0.149 C 
HETATM    9  C   UNL     1      38.565 -11.096   2.841  1.00  0.00     0.264 C 
HETATM   10  N   UNL     1      38.906 -10.742   4.281  1.00  0.00    -0.070 N 
HETATM   11  H   UNL     1      39.633 -10.013   4.294  1.00  0.00     0.277 HD
HETATM   12  H   UNL     1      38.079 -10.301   4.713  1.00  0.00     0.277 HD
HETATM   13  C   UNL     1      39.325 -11.939   5.126  1.00  0.00     0.273 C 
HETATM   14  C   UNL     1      40.782 -14.052   5.116  1.00  0.00     0.148 C 
HETATM   15  C   UNL     1      41.023 -11.708   2.328  1.00  0.00     0.058 C 
ENDROOT
BRANCH   1  16
HETATM   16  C   UNL     1      42.763 -15.545   5.099  1.00  0.00     0.145 C 
BRANCH  16  17
HETATM   17  C   UNL     1      43.057 -16.773   4.276  1.00  0.00    -0.044 A 
HETATM   18  C   UNL     1      43.886 -17.787   4.781  1.00  0.00     0.010 A 
HETATM   19  C   UNL     1      44.160 -18.925   4.020  1.00  0.00     0.024 A 
HETATM   20  C   UNL     1      43.609 -19.055   2.747  1.00  0.00     0.034 A 
HETATM   21  C   UNL     1      42.788 -18.054   2.229  1.00  0.00     0.024 A 
HETATM   22 CL   UNL     1      43.944 -20.458   1.810  1.00  0.00    -0.084 Cl
HETATM   23  C   UNL     1      42.514 -16.916   2.990  1.00  0.00     0.010 A 
ENDBRANCH  16  17
ENDBRANCH   1  16
TORSDOF 2
ENDMDL
MODEL 3
REMARK VINA RESULT:      -7.0      3.434      4.474
REMARK  2 active torsions:
REMARK  status: ('A' for Active; 'I' for Inactive)
REMARK    1  A    between atoms: C_2  and  C_3 
REMARK    2  A    between atoms: C_3  and  N_4 
ROOT
HETATM    1  N   UNL     1      43.080 -12.499   6.161  1.00  0.00    -0.203 NA
HETATM    2  S   UNL     1      42.389 -10.950   6.012  1.00  0.00     0.219 S 
HETATM    3  O   UNL     1      41.050 -10.942   6.540  1.00  0.00    -0.211 OA
HETATM    4  O   UNL     1      42.725 -10.455   4.695  1.00  0.00    -0.211 OA
HETATM    5  C   UNL     1      43.515 -10.143   7.124  1.00  0.00     0.164 C 
HETATM    6  C   UNL     1      44.606 -11.173   7.428  1.00  0.00     0.116 C 
HETATM    7  O   UNL     1      44.311 -11.630   8.774  1.00  0.00    -0.369 OA
HETATM    8  C   UNL     1      43.927 -10.430   9.471  1.00  0.00     0.149 C 
HETATM    9  C   UNL     1      45.222  -9.635   9.755  1.00  0.00     0.264 C 
HETATM   10  N   UNL     1      45.981  -9.352   8.467  1.00  0.00    -0.070 N 
HETATM   11  H   UNL     1      45.595  -8.510   8.017  1.00  0.00     0.277 HD
HETATM   12  H   UNL     1      46.952  -9.103   8.710  1.00  0.00     0.277 HD
HETATM   13  C   UNL     1      46.001 -10.525   7.495  1.00  0.00     0.273 C 
HETATM   14  C   UNL     1      44.528 -12.339   6.432  1.00  0.00     0.148 C 
HETATM   15  C   UNL     1      42.970  -9.758   8.491  1.00  0.00     0.058 C 
ENDROOT
BRANCH   1  16
HETATM   16  C   UNL     1      42.784 -13.452   5.063  1.00  0.00     0.145 C 
BRANCH  16  17
HETATM   17  C   UNL     1      42.930 -14.904   5.441  1.00  0.00    -0.044 A 
HETATM   18  C   UNL     1      43.417 -15.836   4.510  1.00  0.00     0.010 A 
HETATM   19  C   UNL     1      43.553 -17.181   4.858  1.00  0.00     0.024 A 
HETATM   20  C   UNL     1      43.200 -17.604   6.137  1.00  0.00     0.034 A 
HETATM   21  C   UNL     1      42.709 -16.693   7.071  1.00  0.00     0.024 A 
HETATM   22 CL   UNL     1      43.370 -19.261   6.566  1.00  0.00    -0.084 Cl
HETATM   23  C   UNL     1      42.573 -15.347   6.723  1.00  0.00     0.010 A 
ENDBRANCH  16  17
ENDBRANCH   1  16
TORSDOF 2
ENDMDL
MODEL 4
REMARK VINA RESULT:      -6.9      3.999      4.998
REMARK  2 active torsions:
REMARK  status: ('A' for Active; 'I' for Inactive)
REMARK    1  A    between atoms: C_2  and  C_3 
REMARK    2  A    between atoms: C_3  and  N_4 
ROOT
HETATM    1  N   UNL     1      40.265 -14.502   0.393  1.00  0.00    -0.203 NA
HETATM    2  S   UNL     1      40.255 -13.019   1.229  1.00  0.00     0.219 S 
HETATM    3  O   UNL     1      41.546 -12.756   1.806  1.00  0.00    -0.211 OA
HETATM    4  O   UNL     1      39.022 -12.959   1.983  1.00  0.00    -0.211 OA
HETATM    5  C   UNL     1      39.983 -12.006  -0.206  1.00  0.00     0.164 C 
HETATM    6  C   UNL     1      39.679 -12.979  -1.348  1.00  0.00     0.116 C 
HETATM    7  O   UNL     1      40.892 -12.997  -2.144  1.00  0.00    -0.369 OA
HETATM    8  C   UNL     1      41.313 -11.621  -2.166  1.00  0.00     0.149 C 
HETATM    9  C   UNL     1      40.379 -10.876  -3.148  1.00  0.00     0.264 C 
HETATM   10  N   UNL     1      38.922 -11.041  -2.745  1.00  0.00    -0.070 N 
HETATM   11  H   UNL     1      38.680 -10.342  -2.028  1.00  0.00     0.277 HD
HETATM   12  H   UNL     1      38.331 -10.803  -3.557  1.00  0.00     0.277 HD
HETATM   13  C   UNL     1      38.570 -12.445  -2.272  1.00  0.00     0.273 C 
HETATM   14  C   UNL     1      39.379 -14.377  -0.788  1.00  0.00     0.148 C 
HETATM   15  C   UNL     1      41.170 -11.197  -0.708  1.00  0.00     0.058 C 
ENDROOT
BRANCH   1  16
HETATM   16  C   UNL     1      39.997 -15.711   1.210  1.00  0.00     0.145 C 
BRANCH  16  17
HETATM   17  C   UNL     1      41.079 -16.046   2.205  1.00  0.00    -0.044 A 
HETATM   18  C   UNL     1      42.380 -16.341   1.767  1.00  0.00     0.010 A 
HETATM   19  C   UNL     1      43.384 -16.651   2.687  1.00  0.00     0.024 A 
HETATM   20  C   UNL     1      43.093 -16.672   4.049  1.00  0.00     0.034 A 
HETATM   21  C   UNL     1      41.805 -16.387   4.499  1.00  0.00     0.024 A 
HETATM   22 CL   UNL     1      44.331 -17.052   5.181  1.00  0.00    -0.084 Cl
HETATM   23  C   UNL     1      40.800 -16.077   3.579  1.00  0.00     0.010 A 
ENDBRANCH  16  17
ENDBRANCH   1  16
TORSDOF 2
ENDMDL
MODEL 5
REMARK VINA RESULT:      -6.7     14.984     17.041
REMARK  2 active torsions:
REMARK  status: ('A' for Active; 'I' for Inactive)
REMARK    1  A    between atoms: C_2  and  C_3 
REMARK    2  A    between atoms: C_3  and  N_4 
ROOT
HETATM    1  N   UNL     1      46.752 -29.232   0.349  1.00  0.00    -0.203 NA
HETATM    2  S   UNL     1      47.022 -28.877   1.992  1.00  0.00     0.219 S 
HETATM    3  O   UNL     1      45.944 -29.379   2.801  1.00  0.00    -0.211 OA
HETATM    4  O   UNL     1      47.498 -27.512   2.063  1.00  0.00    -0.211 OA
HETATM    5  C   UNL     1      48.470 -29.893   2.161  1.00  0.00     0.164 C 
HETATM    6  C   UNL     1      48.827 -30.343   0.741  1.00  0.00     0.116 C 
HETATM    7  O   UNL     1      48.408 -31.731   0.682  1.00  0.00    -0.369 OA
HETATM    8  C   UNL     1      48.790 -32.264   1.964  1.00  0.00     0.149 C 
HETATM    9  C   UNL     1      50.323 -32.463   1.934  1.00  0.00     0.264 C 
HETATM   10  N   UNL     1      51.036 -31.162   1.600  1.00  0.00    -0.070 N 
HETATM   11  H   UNL     1      51.152 -30.602   2.456  1.00  0.00     0.277 HD
HETATM   12  H   UNL     1      51.996 -31.386   1.295  1.00  0.00     0.277 HD
HETATM   13  C   UNL     1      50.349 -30.347   0.510  1.00  0.00     0.273 C 
HETATM   14  C   UNL     1      48.061 -29.502  -0.290  1.00  0.00     0.148 C 
HETATM   15  C   UNL     1      48.308 -31.192   2.936  1.00  0.00     0.058 C 
ENDROOT
BRANCH   1  16
HETATM   16  C   UNL     1      45.916 -28.260  -0.399  1.00  0.00     0.145 C 
BRANCH  16  17
HETATM   17  C   UNL     1      45.374 -28.779  -1.706  1.00  0.00    -0.044 A 
HETATM   18  C   UNL     1      45.609 -28.081  -2.901  1.00  0.00     0.010 A 
HETATM   19  C   UNL     1      45.107 -28.560  -4.112  1.00  0.00     0.024 A 
HETATM   20  C   UNL     1      44.365 -29.738  -4.137  1.00  0.00     0.034 A 
HETATM   21  C   UNL     1      44.118 -30.440  -2.958  1.00  0.00     0.024 A 
HETATM   22 CL   UNL     1      43.749 -30.329  -5.630  1.00  0.00    -0.084 Cl
HETATM   23  C   UNL     1      44.620 -29.961  -1.746  1.00  0.00     0.010 A 
ENDBRANCH  16  17
ENDBRANCH   1  16
TORSDOF 2
ENDMDL
MODEL 6
REMARK VINA RESULT:      -6.6      2.224      3.572
REMARK  2 active torsions:
REMARK  status: ('A' for Active; 'I' for Inactive)
REMARK    1  A    between atoms: C_2  and  C_3 
REMARK    2  A    between atoms: C_3  and  N_4 
ROOT
HETATM    1  N   UNL     1      42.387 -13.634   4.216  1.00  0.00    -0.203 NA
HETATM    2  S   UNL     1      42.577 -11.971   3.905  1.00  0.00     0.219 S 
HETATM    3  O   UNL     1      43.827 -11.721   3.237  1.00  0.00    -0.211 OA
HETATM    4  O   UNL     1      42.159 -11.262   5.096  1.00  0.00    -0.211 OA
HETATM    5  C   UNL     1      41.214 -11.842   2.773  1.00  0.00     0.164 C 
HETATM    6  C   UNL     1      40.479 -13.183   2.856  1.00  0.00     0.116 C 
HETATM    7  O   UNL     1      40.846 -13.875   1.635  1.00  0.00    -0.369 OA
HETATM    8  C   UNL     1      40.817 -12.846   0.630  1.00  0.00     0.149 C 
HETATM    9  C   UNL     1      39.330 -12.557   0.318  1.00  0.00     0.264 C 
HETATM   10  N   UNL     1      38.573 -12.172   1.579  1.00  0.00    -0.070 N 
HETATM   11  H   UNL     1      38.701 -11.167   1.765  1.00  0.00     0.277 HD
HETATM   12  H   UNL     1      37.563 -12.283   1.400  1.00  0.00     0.277 HD
HETATM   13  C   UNL     1      38.952 -13.000   2.801  1.00  0.00     0.273 C 
HETATM   14  C   UNL     1      40.950 -13.971   4.087  1.00  0.00     0.148 C 
HETATM   15  C   UNL     1      41.560 -11.694   1.299  1.00  0.00     0.058 C 
ENDROOT
BRANCH   1  16
HETATM   16  C   UNL     1      43.004 -14.137   5.468  1.00  0.00     0.145 C 
BRANCH  16  17
HETATM   17  C   UNL     1      43.233 -15.627   5.496  1.00  0.00    -0.044 A 
HETATM   18  C   UNL     1      43.124 -16.341   6.700  1.00  0.00     0.010 A 
HETATM   19  C   UNL     1      43.336 -17.721   6.728  1.00  0.00     0.024 A 
HETATM   20  C   UNL     1      43.662 -18.395   5.554  1.00  0.00     0.034 A 
HETATM   21  C   UNL     1      43.779 -17.700   4.351  1.00  0.00     0.024 A 
HETATM   22 CL   UNL     1      43.920 -20.095   5.588  1.00  0.00    -0.084 Cl
HETATM   23  C   UNL     1      43.567 -16.319   4.323  1.00  0.00     0.010 A 
ENDBRANCH  16  17
ENDBRANCH   1  16
TORSDOF 2
ENDMDL
MODEL 7
REMARK VINA RESULT:      -6.5     14.848     16.401
REMARK  2 active torsions:
REMARK  status: ('A' for Active; 'I' for Inactive)
REMARK    1  A    between atoms: C_2  and  C_3 
REMARK    2  A    between atoms: C_3  and  N_4 
ROOT
HETATM    1  N   UNL     1      46.095 -28.994   0.604  1.00  0.00    -0.203 NA
HETATM    2  S   UNL     1      45.365 -29.946   1.811  1.00  0.00     0.219 S 
HETATM    3  O   UNL     1      44.921 -31.200   1.264  1.00  0.00    -0.211 OA
HETATM    4  O   UNL     1      44.511 -29.073   2.588  1.00  0.00    -0.211 OA
HETATM    5  C   UNL     1      46.835 -30.161   2.785  1.00  0.00     0.164 C 
HETATM    6  C   UNL     1      47.878 -29.221   2.174  1.00  0.00     0.116 C 
HETATM    7  O   UNL     1      48.774 -30.098   1.443  1.00  0.00    -0.369 OA
HETATM    8  C   UNL     1      48.925 -31.239   2.307  1.00  0.00     0.149 C 
HETATM    9  C   UNL     1      49.870 -30.816   3.455  1.00  0.00     0.264 C 
HETATM   10  N   UNL     1      49.331 -29.593   4.182  1.00  0.00    -0.070 N 
HETATM   11  H   UNL     1      48.645 -29.888   4.891  1.00  0.00     0.277 HD
HETATM   12  H   UNL     1      50.103 -29.168   4.719  1.00  0.00     0.277 HD
HETATM   13  C   UNL     1      48.735 -28.541   3.256  1.00  0.00     0.273 C 
HETATM   14  C   UNL     1      47.200 -28.224   1.223  1.00  0.00     0.148 C 
HETATM   15  C   UNL     1      47.492 -31.533   2.738  1.00  0.00     0.058 C 
ENDROOT
BRANCH   1  16
HETATM   16  C   UNL     1      45.178 -28.161  -0.213  1.00  0.00     0.145 C 
BRANCH  16  17
HETATM   17  C   UNL     1      44.915 -28.695  -1.597  1.00  0.00    -0.044 A 
HETATM   18  C   UNL     1      44.258 -29.923  -1.773  1.00  0.00     0.010 A 
HETATM   19  C   UNL     1      44.014 -30.420  -3.055  1.00  0.00     0.024 A 
HETATM   20  C   UNL     1      44.429 -29.695  -4.169  1.00  0.00     0.034 A 
HETATM   21  C   UNL     1      45.089 -28.478  -4.012  1.00  0.00     0.024 A 
HETATM   22 CL   UNL     1      44.126 -30.307  -5.748  1.00  0.00    -0.084 Cl
HETATM   23  C   UNL     1      45.332 -27.980  -2.730  1.00  0.00     0.010 A 
ENDBRANCH  16  17
ENDBRANCH   1  16
TORSDOF 2
ENDMDL
MODEL 8
REMARK VINA RESULT:      -6.4      8.502     11.428
REMARK  2 active torsions:
REMARK  status: ('A' for Active; 'I' for Inactive)
REMARK    1  A    between atoms: C_2  and  C_3 
REMARK    2  A    between atoms: C_3  and  N_4 
ROOT
HETATM    1  N   UNL     1      42.921  -9.560  11.580  1.00  0.00    -0.203 NA
HETATM    2  S   UNL     1      42.122  -8.675  10.365  1.00  0.00     0.219 S 
HETATM    3  O   UNL     1      42.176  -7.266  10.649  1.00  0.00    -0.211 OA
HETATM    4  O   UNL     1      40.893  -9.376  10.062  1.00  0.00    -0.211 OA
HETATM    5  C   UNL     1      43.247  -9.105   9.059  1.00  0.00     0.164 C 
HETATM    6  C   UNL     1      44.163 -10.185   9.641  1.00  0.00     0.116 C 
HETATM    7  O   UNL     1      45.419  -9.502   9.891  1.00  0.00    -0.369 OA
HETATM    8  C   UNL     1      45.582  -8.645   8.746  1.00  0.00     0.149 C 
HETATM    9  C   UNL     1      46.015  -9.543   7.564  1.00  0.00     0.264 C 
HETATM   10  N   UNL     1      45.008 -10.658   7.328  1.00  0.00    -0.070 N 
HETATM   11  H   UNL     1      44.236 -10.308   6.744  1.00  0.00     0.277 HD
HETATM   12  H   UNL     1      45.460 -11.391   6.761  1.00  0.00     0.277 HD
HETATM   13  C   UNL     1      44.474 -11.285   8.610  1.00  0.00     0.273 C 
HETATM   14  C   UNL     1      43.575 -10.731  10.950  1.00  0.00     0.148 C 
HETATM   15  C   UNL     1      44.201  -8.015   8.591  1.00  0.00     0.058 C 
ENDROOT
BRANCH   1  16
HETATM   16  C   UNL     1      42.111  -9.905  12.775  1.00  0.00     0.145 C 
BRANCH  16  17
HETATM   17  C   UNL     1      42.061  -8.827  13.827  1.00  0.00    -0.044 A 
HETATM   18  C   UNL     1      41.024  -8.804  14.773  1.00  0.00     0.010 A 
HETATM   19  C   UNL     1      40.976  -7.806  15.749  1.00  0.00     0.024 A 
HETATM   20  C   UNL     1      41.963  -6.824  15.783  1.00  0.00     0.034 A 
HETATM   21  C   UNL     1      42.996  -6.829  14.847  1.00  0.00     0.024 A 
HETATM   22 CL   UNL     1      41.905  -5.596  16.987  1.00  0.00    -0.084 Cl
HETATM   23  C   UNL     1      43.044  -7.827  13.871  1.00  0.00     0.010 A 
ENDBRANCH  16  17
ENDBRANCH   1  16
TORSDOF 2
ENDMDL
MODEL 9
REMARK VINA RESULT:      -6.4      4.481      6.133
REMARK  2 active torsions:
REMARK  status: ('A' for Active; 'I' for Inactive)
REMARK    1  A    between atoms: C_2  and  C_3 
REMARK    2  A    between atoms: C_3  and  N_4 
ROOT
HETATM    1  N   UNL     1      41.160 -13.334   1.676  1.00  0.00    -0.203 NA
HETATM    2  S   UNL     1      39.973 -14.202   2.534  1.00  0.00     0.219 S 
HETATM    3  O   UNL     1      39.537 -15.345   1.778  1.00  0.00    -0.211 OA
HETATM    4  O   UNL     1      39.061 -13.233   3.103  1.00  0.00    -0.211 OA
HETATM    5  C   UNL     1      41.038 -14.691   3.870  1.00  0.00     0.164 C 
HETATM    6  C   UNL     1      42.340 -13.910   3.668  1.00  0.00     0.116 C 
HETATM    7  O   UNL     1      43.278 -14.891   3.155  1.00  0.00    -0.369 OA
HETATM    8  C   UNL     1      42.999 -16.074   3.925  1.00  0.00     0.149 C 
HETATM    9  C   UNL     1      43.607 -15.857   5.329  1.00  0.00     0.264 C 
HETATM   10  N   UNL     1      43.058 -14.592   5.971  1.00  0.00    -0.070 N 
HETATM   11  H   UNL     1      42.157 -14.798   6.424  1.00  0.00     0.277 HD
HETATM   12  H   UNL     1      43.687 -14.319   6.743  1.00  0.00     0.277 HD
HETATM   13  C   UNL     1      42.924 -13.421   5.006  1.00  0.00     0.273 C 
HETATM   14  C   UNL     1      42.128 -12.780   2.651  1.00  0.00     0.148 C 
HETATM   15  C   UNL     1      41.476 -16.148   3.897  1.00  0.00     0.058 C 
ENDROOT
BRANCH   1  16
HETATM   16  C   UNL     1      40.658 -12.332   0.703  1.00  0.00     0.145 C 
BRANCH  16  17
HETATM   17  C   UNL     1      39.962 -12.920  -0.497  1.00  0.00    -0.044 A 
HETATM   18  C   UNL     1      38.644 -12.550  -0.808  1.00  0.00     0.010 A 
HETATM   19  C   UNL     1      37.997 -13.095  -1.919  1.00  0.00     0.024 A 
HETATM   20  C   UNL     1      38.663 -14.016  -2.724  1.00  0.00     0.034 A 
HETATM   21  C   UNL     1      39.969 -14.399  -2.425  1.00  0.00     0.024 A 
HETATM   22 CL   UNL     1      37.866 -14.685  -4.094  1.00  0.00    -0.084 Cl
HETATM   23  C   UNL     1      40.616 -13.854  -1.314  1.00  0.00     0.010 A 
ENDBRANCH  16  17
ENDBRANCH   1  16
TORSDOF 2
ENDMDL
MODEL 10
REMARK VINA RESULT:      -6.3      2.015      3.009
REMARK  2 active torsions:
REMARK  status: ('A' for Active; 'I' for Inactive)
REMARK    1  A    between atoms: C_2  and  C_3 
REMARK    2  A    between atoms: C_3  and  N_4 
ROOT
HETATM    1  N   UNL     1      41.893 -13.331   2.651  1.00  0.00    -0.203 NA
HETATM    2  S   UNL     1      42.608 -11.837   3.043  1.00  0.00     0.219 S 
HETATM    3  O   UNL     1      42.442 -10.899   1.965  1.00  0.00    -0.211 OA
HETATM    4  O   UNL     1      43.887 -12.121   3.657  1.00  0.00    -0.211 OA
HETATM    5  C   UNL     1      41.509 -11.459   4.388  1.00  0.00     0.164 C 
HETATM    6  C   UNL     1      40.689 -12.731   4.621  1.00  0.00     0.116 C 
HETATM    7  O   UNL     1      39.384 -12.431   4.062  1.00  0.00    -0.369 OA
HETATM    8  C   UNL     1      39.142 -11.068   4.456  1.00  0.00     0.149 C 
HETATM    9  C   UNL     1      38.773 -11.089   5.957  1.00  0.00     0.264 C 
HETATM   10  N   UNL     1      39.865 -11.756   6.779  1.00  0.00    -0.070 N 
HETATM   11  H   UNL     1      40.601 -11.069   6.997  1.00  0.00     0.277 HD
HETATM   12  H   UNL     1      39.469 -12.021   7.694  1.00  0.00     0.277 HD
HETATM   13  C   UNL     1      40.460 -12.995   6.120  1.00  0.00     0.273 C 
HETATM   14  C   UNL     1      41.331 -13.918   3.889  1.00  0.00     0.148 C 
HETATM   15  C   UNL     1      40.466 -10.380   4.138  1.00  0.00     0.058 C 
ENDROOT
BRANCH   1  16
HETATM   16  C   UNL     1      42.739 -14.275   1.878  1.00  0.00     0.145 C 
BRANCH  16  17
HETATM   17  C   UNL     1      43.056 -15.561   2.597  1.00  0.00    -0.044 A 
HETATM   18  C   UNL     1      43.468 -15.543   3.939  1.00  0.00     0.010 A 
HETATM   19  C   UNL     1      43.762 -16.734   4.606  1.00  0.00     0.024 A 
HETATM   20  C   UNL     1      43.650 -17.949   3.935  1.00  0.00     0.034 A 
HETATM   21  C   UNL     1      43.248 -17.983   2.601  1.00  0.00     0.024 A 
HETATM   22 CL   UNL     1      44.010 -19.416   4.759  1.00  0.00    -0.084 Cl
HETATM   23  C   UNL     1      42.953 -16.793   1.933  1.00  0.00     0.010 A 
ENDBRANCH  16  17
ENDBRANCH   1  16
TORSDOF 2
ENDMDL
