MODEL 1
REMARK VINA RESULT:      -7.9      0.000      0.000
REMARK  7 active torsions:
REMARK  status: ('A' for Active; 'I' for Inactive)
REMARK    1  A    between atoms: C_2  and  S_3 
REMARK    2  A    between atoms: C_2  and  C_20 
REMARK    3  A    between atoms: S_3  and  C_4 
REMARK    4  A    between atoms: C_4  and  C_5 
REMARK       I    between atoms: C_5  and  N_6 
REMARK    5  A    between atoms: N_6  and  C_7 
REMARK    6  A    between atoms: C_10  and  C_11 
REMARK       I    between atoms: C_11  and  N_12 
REMARK    7  A    between atoms: N_12  and  C_13 
ROOT
HETATM    1  C   UNL     1      42.516 -11.629   6.192  1.00  0.00     0.231 C 
HETATM    2  N   UNL     1      41.792 -12.798   6.371  1.00  0.00    -0.327 N 
HETATM    3  O   UNL     1      43.740 -11.532   6.158  1.00  0.00    -0.272 OA
HETATM    4  H   UNL     1      40.795 -12.694   6.517  1.00  0.00     0.169 HD
ENDROOT
BRANCH   1   5
HETATM    5  C   UNL     1      41.630 -10.406   6.001  1.00  0.00     0.177 C 
BRANCH   5   6
HETATM    6  S   UNL     1      41.709  -9.853   4.264  1.00  0.00    -0.147 SA
BRANCH   6   7
HETATM    7  C   UNL     1      40.430 -10.943   3.517  1.00  0.00     0.113 C 
HETATM    8  C   UNL     1      39.178 -10.994   4.388  1.00  0.00     0.029 C 
BRANCH   7   9
HETATM    9  C   UNL     1      40.982 -12.307   3.229  1.00  0.00     0.118 A 
HETATM   10  N   UNL     1      42.229 -12.617   2.929  1.00  0.00    -0.232 NA
HETATM   11  C   UNL     1      42.232 -13.970   2.693  1.00  0.00     0.085 A 
HETATM   12  C   UNL     1      40.959 -14.503   2.853  1.00  0.00     0.062 A 
HETATM   13  C   UNL     1      43.287 -14.815   2.321  1.00  0.00     0.034 A 
HETATM   14  N   UNL     1      40.183 -13.428   3.201  1.00  0.00    -0.342 N 
HETATM   15  C   UNL     1      40.662 -15.854   2.661  1.00  0.00     0.032 A 
HETATM   16  H   UNL     1      39.186 -13.442   3.358  1.00  0.00     0.167 HD
HETATM   17  C   UNL     1      41.728 -16.683   2.289  1.00  0.00     0.002 A 
HETATM   18  C   UNL     1      43.019 -16.175   2.121  1.00  0.00     0.002 A 
ENDBRANCH   7   9
ENDBRANCH   6   7
ENDBRANCH   5   6
ENDBRANCH   1   5
BRANCH   2  19
HETATM   19  C   UNL     1      42.286 -14.118   6.356  1.00  0.00     0.034 A 
HETATM   20  C   UNL     1      43.645 -14.442   6.343  1.00  0.00     0.030 A 
HETATM   21  C   UNL     1      44.062 -15.774   6.236  1.00  0.00     0.019 A 
HETATM   22  C   UNL     1      43.119 -16.800   6.127  1.00  0.00     0.032 A 
HETATM   23  C   UNL     1      41.757 -16.487   6.193  1.00  0.00     0.019 A 
HETATM   24  C   UNL     1      41.345 -15.155   6.305  1.00  0.00     0.030 A 
BRANCH  22  25
HETATM   25  C   UNL     1      43.513 -18.224   5.926  1.00  0.00     0.251 C 
HETATM   26  N   UNL     1      43.964 -18.553   4.663  1.00  0.00    -0.353 N 
HETATM   27  H   UNL     1      43.849 -17.870   3.929  1.00  0.00     0.163 HD
HETATM   28  O   UNL     1      43.374 -19.027   6.841  1.00  0.00    -0.268 OA
BRANCH  26  29
HETATM   29  C   UNL     1      44.243 -19.917   4.227  1.00  0.00     0.076 C 
HETATM   30  C   UNL     1      43.766 -20.972   5.222  1.00  0.00     0.032 C 
HETATM   31  C   UNL     1      43.706 -20.181   2.822  1.00  0.00     0.032 C 
ENDBRANCH  26  29
ENDBRANCH  22  25
ENDBRANCH   2  19
TORSDOF 7
ENDMDL
MODEL 2
REMARK VINA RESULT:      -7.9      2.871      6.341
REMARK  7 active torsions:
REMARK  status: ('A' for Active; 'I' for Inactive)
REMARK    1  A    between atoms: C_2  and  S_3 
REMARK    2  A    between atoms: C_2  and  C_20 
REMARK    3  A    between atoms: S_3  and  C_4 
REMARK    4  A    between atoms: C_4  and  C_5 
REMARK       I    between atoms: C_5  and  N_6 
REMARK    5  A    between atoms: N_6  and  C_7 
REMARK    6  A    between atoms: C_10  and  C_11 
REMARK       I    between atoms: C_11  and  N_12 
REMARK    7  A    between atoms: N_12  and  C_13 
ROOT
HETATM    1  C   UNL     1      41.562 -11.433   2.525  1.00  0.00     0.231 C 
HETATM    2  N   UNL     1      41.282 -11.690   3.860  1.00  0.00    -0.327 N 
HETATM    3  O   UNL     1      42.535 -10.820   2.093  1.00  0.00    -0.272 OA
HETATM    4  H   UNL     1      40.371 -12.083   4.062  1.00  0.00     0.169 HD
ENDROOT
BRANCH   1   5
HETATM    5  C   UNL     1      40.529 -12.026   1.578  1.00  0.00     0.177 C 
BRANCH   5   6
HETATM    6  S   UNL     1      39.585 -13.331   2.435  1.00  0.00    -0.147 SA
BRANCH   6   7
HETATM    7  C   UNL     1      40.714 -14.763   2.191  1.00  0.00     0.113 C 
HETATM    8  C   UNL     1      39.984 -15.929   1.529  1.00  0.00     0.029 C 
BRANCH   7   9
HETATM    9  C   UNL     1      41.375 -15.158   3.478  1.00  0.00     0.118 A 
HETATM   10  N   UNL     1      40.942 -14.923   4.702  1.00  0.00    -0.232 NA
HETATM   11  C   UNL     1      41.911 -15.417   5.541  1.00  0.00     0.085 A 
HETATM   12  C   UNL     1      42.960 -15.969   4.817  1.00  0.00     0.062 A 
HETATM   13  C   UNL     1      41.969 -15.419   6.942  1.00  0.00     0.034 A 
HETATM   14  N   UNL     1      42.593 -15.798   3.507  1.00  0.00    -0.342 N 
HETATM   15  C   UNL     1      44.091 -16.532   5.411  1.00  0.00     0.032 A 
HETATM   16  H   UNL     1      43.144 -16.049   2.699  1.00  0.00     0.167 HD
HETATM   17  C   UNL     1      44.134 -16.524   6.811  1.00  0.00     0.002 A 
HETATM   18  C   UNL     1      43.093 -15.977   7.566  1.00  0.00     0.002 A 
ENDBRANCH   7   9
ENDBRANCH   6   7
ENDBRANCH   5   6
ENDBRANCH   1   5
BRANCH   2  19
HETATM   19  C   UNL     1      42.131 -11.479   4.965  1.00  0.00     0.034 A 
HETATM   20  C   UNL     1      43.312 -12.191   5.188  1.00  0.00     0.030 A 
HETATM   21  C   UNL     1      44.059 -11.992   6.355  1.00  0.00     0.019 A 
HETATM   22  C   UNL     1      43.621 -11.083   7.324  1.00  0.00     0.032 A 
HETATM   23  C   UNL     1      42.468 -10.329   7.082  1.00  0.00     0.019 A 
HETATM   24  C   UNL     1      41.728 -10.528   5.911  1.00  0.00     0.030 A 
BRANCH  22  25
HETATM   25  C   UNL     1      44.334 -10.898   8.620  1.00  0.00     0.251 C 
HETATM   26  N   UNL     1      43.537 -10.622   9.713  1.00  0.00    -0.353 N 
HETATM   27  H   UNL     1      42.564 -10.408   9.545  1.00  0.00     0.163 HD
HETATM   28  O   UNL     1      45.558 -10.942   8.652  1.00  0.00    -0.268 OA
BRANCH  26  29
HETATM   29  C   UNL     1      44.053 -10.254  11.027  1.00  0.00     0.076 C 
HETATM   30  C   UNL     1      43.869  -8.773  11.347  1.00  0.00     0.032 C 
HETATM   31  C   UNL     1      43.483 -11.146  12.127  1.00  0.00     0.032 C 
ENDBRANCH  26  29
ENDBRANCH  22  25
ENDBRANCH   2  19
TORSDOF 7
ENDMDL
MODEL 3
REMARK VINA RESULT:      -7.7      1.853      3.648
REMARK  7 active torsions:
REMARK  status: ('A' for Active; 'I' for Inactive)
REMARK    1  A    between atoms: C_2  and  S_3 
REMARK    2  A    between atoms: C_2  and  C_20 
REMARK    3  A    between atoms: S_3  and  C_4 
REMARK    4  A    between atoms: C_4  and  C_5 
REMARK       I    between atoms: C_5  and  N_6 
REMARK    5  A    between atoms: N_6  and  C_7 
REMARK    6  A    between atoms: C_10  and  C_11 
REMARK       I    between atoms: C_11  and  N_12 
REMARK    7  A    between atoms: N_12  and  C_13 
ROOT
HETATM    1  C   UNL     1      39.839 -12.222   2.702  1.00  0.00     0.231 C 
HETATM    2  N   UNL     1      41.129 -12.707   2.545  1.00  0.00    -0.327 N 
HETATM    3  O   UNL     1      38.807 -12.888   2.684  1.00  0.00    -0.272 OA
HETATM    4  H   UNL     1      41.862 -12.016   2.442  1.00  0.00     0.169 HD
ENDROOT
BRANCH   1   5
HETATM    5  C   UNL     1      39.796 -10.719   2.940  1.00  0.00     0.177 C 
BRANCH   5   6
HETATM    6  S   UNL     1      40.771 -10.303   4.425  1.00  0.00    -0.147 SA
BRANCH   6   7
HETATM    7  C   UNL     1      39.986 -11.423   5.654  1.00  0.00     0.113 C 
HETATM    8  C   UNL     1      39.592 -10.660   6.916  1.00  0.00     0.029 C 
BRANCH   7   9
HETATM    9  C   UNL     1      40.864 -12.603   5.950  1.00  0.00     0.118 A 
HETATM   10  N   UNL     1      42.167 -12.694   5.769  1.00  0.00    -0.232 NA
HETATM   11  C   UNL     1      42.505 -13.977   6.125  1.00  0.00     0.085 A 
HETATM   12  C   UNL     1      41.385 -14.688   6.535  1.00  0.00     0.062 A 
HETATM   13  C   UNL     1      43.755 -14.613   6.110  1.00  0.00     0.034 A 
HETATM   14  N   UNL     1      40.354 -13.791   6.422  1.00  0.00    -0.342 N 
HETATM   15  C   UNL     1      41.430 -16.024   6.939  1.00  0.00     0.032 A 
HETATM   16  H   UNL     1      39.379 -13.982   6.602  1.00  0.00     0.167 HD
HETATM   17  C   UNL     1      42.685 -16.644   6.917  1.00  0.00     0.002 A 
HETATM   18  C   UNL     1      43.829 -15.953   6.510  1.00  0.00     0.002 A 
ENDBRANCH   7   9
ENDBRANCH   6   7
ENDBRANCH   5   6
ENDBRANCH   1   5
BRANCH   2  19
HETATM   19  C   UNL     1      41.537 -14.056   2.528  1.00  0.00     0.034 A 
HETATM   20  C   UNL     1      40.718 -15.123   2.907  1.00  0.00     0.030 A 
HETATM   21  C   UNL     1      41.219 -16.429   2.952  1.00  0.00     0.019 A 
HETATM   22  C   UNL     1      42.555 -16.682   2.629  1.00  0.00     0.032 A 
HETATM   23  C   UNL     1      43.366 -15.625   2.198  1.00  0.00     0.019 A 
HETATM   24  C   UNL     1      42.859 -14.323   2.150  1.00  0.00     0.030 A 
BRANCH  22  25
HETATM   25  C   UNL     1      43.159 -18.040   2.744  1.00  0.00     0.251 C 
HETATM   26  N   UNL     1      43.417 -18.480   4.026  1.00  0.00    -0.353 N 
HETATM   27  H   UNL     1      43.337 -17.812   4.779  1.00  0.00     0.163 HD
HETATM   28  O   UNL     1      43.441 -18.666   1.729  1.00  0.00    -0.268 OA
BRANCH  26  29
HETATM   29  C   UNL     1      44.146 -19.705   4.337  1.00  0.00     0.076 C 
HETATM   30  C   UNL     1      43.939 -20.174   5.776  1.00  0.00     0.032 C 
HETATM   31  C   UNL     1      43.842 -20.813   3.332  1.00  0.00     0.032 C 
ENDBRANCH  26  29
ENDBRANCH  22  25
ENDBRANCH   2  19
TORSDOF 7
ENDMDL
MODEL 4
REMARK VINA RESULT:      -7.7      3.295      7.143
REMARK  7 active torsions:
REMARK  status: ('A' for Active; 'I' for Inactive)
REMARK    1  A    between atoms: C_2  and  S_3 
REMARK    2  A    between atoms: C_2  and  C_20 
REMARK    3  A    between atoms: S_3  and  C_4 
REMARK    4  A    between atoms: C_4  and  C_5 
REMARK       I    between atoms: C_5  and  N_6 
REMARK    5  A    between atoms: N_6  and  C_7 
REMARK    6  A    between atoms: C_10  and  C_11 
REMARK       I    between atoms: C_11  and  N_12 
REMARK    7  A    between atoms: N_12  and  C_13 
ROOT
HETATM    1  C   UNL     1      42.902 -13.169   4.281  1.00  0.00     0.231 C 
HETATM    2  N   UNL     1      43.451 -11.918   4.520  1.00  0.00    -0.327 N 
HETATM    3  O   UNL     1      42.782 -14.077   5.099  1.00  0.00    -0.272 OA
HETATM    4  H   UNL     1      43.608 -11.331   3.709  1.00  0.00     0.169 HD
ENDROOT
BRANCH   1   5
HETATM    5  C   UNL     1      42.403 -13.334   2.853  1.00  0.00     0.177 C 
BRANCH   5   6
HETATM    6  S   UNL     1      43.478 -14.502   1.955  1.00  0.00    -0.147 SA
BRANCH   6   7
HETATM    7  C   UNL     1      42.314 -15.909   1.730  1.00  0.00     0.113 C 
HETATM    8  C   UNL     1      40.885 -15.496   2.076  1.00  0.00     0.029 C 
BRANCH   7   9
HETATM    9  C   UNL     1      42.765 -17.114   2.500  1.00  0.00     0.118 A 
HETATM   10  N   UNL     1      43.210 -17.147   3.741  1.00  0.00    -0.232 NA
HETATM   11  C   UNL     1      43.555 -18.456   3.979  1.00  0.00     0.085 A 
HETATM   12  C   UNL     1      43.313 -19.242   2.860  1.00  0.00     0.062 A 
HETATM   13  C   UNL     1      44.096 -19.047   5.129  1.00  0.00     0.034 A 
HETATM   14  N   UNL     1      42.805 -18.368   1.935  1.00  0.00    -0.342 N 
HETATM   15  C   UNL     1      43.585 -20.611   2.811  1.00  0.00     0.032 A 
HETATM   16  H   UNL     1      42.552 -18.592   0.983  1.00  0.00     0.167 HD
HETATM   17  C   UNL     1      44.126 -21.185   3.968  1.00  0.00     0.002 A 
HETATM   18  C   UNL     1      44.378 -20.418   5.108  1.00  0.00     0.002 A 
ENDBRANCH   7   9
ENDBRANCH   6   7
ENDBRANCH   5   6
ENDBRANCH   1   5
BRANCH   2  19
HETATM   19  C   UNL     1      43.802 -11.365   5.768  1.00  0.00     0.034 A 
HETATM   20  C   UNL     1      45.104 -11.342   6.273  1.00  0.00     0.030 A 
HETATM   21  C   UNL     1      45.365 -10.858   7.560  1.00  0.00     0.019 A 
HETATM   22  C   UNL     1      44.318 -10.402   8.366  1.00  0.00     0.032 A 
HETATM   23  C   UNL     1      43.019 -10.373   7.847  1.00  0.00     0.019 A 
HETATM   24  C   UNL     1      42.764 -10.852   6.557  1.00  0.00     0.030 A 
BRANCH  22  25
HETATM   25  C   UNL     1      44.532  -9.958   9.772  1.00  0.00     0.251 C 
HETATM   26  N   UNL     1      43.405  -9.915  10.570  1.00  0.00    -0.353 N 
HETATM   27  H   UNL     1      42.507 -10.027  10.123  1.00  0.00     0.163 HD
HETATM   28  O   UNL     1      45.649  -9.609  10.136  1.00  0.00    -0.268 OA
BRANCH  26  29
HETATM   29  C   UNL     1      43.382  -9.359  11.919  1.00  0.00     0.076 C 
HETATM   30  C   UNL     1      43.067  -7.865  11.944  1.00  0.00     0.032 C 
HETATM   31  C   UNL     1      42.453 -10.149  12.839  1.00  0.00     0.032 C 
ENDBRANCH  26  29
ENDBRANCH  22  25
ENDBRANCH   2  19
TORSDOF 7
ENDMDL
MODEL 5
REMARK VINA RESULT:      -7.7      3.006      6.070
REMARK  7 active torsions:
REMARK  status: ('A' for Active; 'I' for Inactive)
REMARK    1  A    between atoms: C_2  and  S_3 
REMARK    2  A    between atoms: C_2  and  C_20 
REMARK    3  A    between atoms: S_3  and  C_4 
REMARK    4  A    between atoms: C_4  and  C_5 
REMARK       I    between atoms: C_5  and  N_6 
REMARK    5  A    between atoms: N_6  and  C_7 
REMARK    6  A    between atoms: C_10  and  C_11 
REMARK       I    between atoms: C_11  and  N_12 
REMARK    7  A    between atoms: N_12  and  C_13 
ROOT
HETATM    1  C   UNL     1      40.636 -10.992   1.420  1.00  0.00     0.231 C 
HETATM    2  N   UNL     1      41.410 -11.997   1.984  1.00  0.00    -0.327 N 
HETATM    3  O   UNL     1      40.179 -10.014   2.005  1.00  0.00    -0.272 OA
HETATM    4  H   UNL     1      41.590 -12.807   1.403  1.00  0.00     0.169 HD
ENDROOT
BRANCH   1   5
HETATM    5  C   UNL     1      40.406 -11.188  -0.072  1.00  0.00     0.177 C 
BRANCH   5   6
HETATM    6  S   UNL     1      39.031 -12.358  -0.335  1.00  0.00    -0.147 SA
BRANCH   6   7
HETATM    7  C   UNL     1      39.973 -13.869  -0.797  1.00  0.00     0.113 C 
HETATM    8  C   UNL     1      39.135 -14.785  -1.685  1.00  0.00     0.029 C 
BRANCH   7   9
HETATM    9  C   UNL     1      40.497 -14.574   0.418  1.00  0.00     0.118 A 
HETATM   10  N   UNL     1      39.842 -14.839   1.532  1.00  0.00    -0.232 NA
HETATM   11  C   UNL     1      40.754 -15.436   2.369  1.00  0.00     0.085 A 
HETATM   12  C   UNL     1      41.994 -15.541   1.754  1.00  0.00     0.062 A 
HETATM   13  C   UNL     1      40.595 -15.906   3.680  1.00  0.00     0.034 A 
HETATM   14  N   UNL     1      41.805 -14.992   0.512  1.00  0.00    -0.342 N 
HETATM   15  C   UNL     1      43.115 -16.094   2.377  1.00  0.00     0.032 A 
HETATM   16  H   UNL     1      42.514 -14.866  -0.195  1.00  0.00     0.167 HD
HETATM   17  C   UNL     1      42.940 -16.557   3.687  1.00  0.00     0.002 A 
HETATM   18  C   UNL     1      41.703 -16.465   4.330  1.00  0.00     0.002 A 
ENDBRANCH   7   9
ENDBRANCH   6   7
ENDBRANCH   5   6
ENDBRANCH   1   5
BRANCH   2  19
HETATM   19  C   UNL     1      41.986 -12.009   3.270  1.00  0.00     0.034 A 
HETATM   20  C   UNL     1      41.273 -12.278   4.441  1.00  0.00     0.030 A 
HETATM   21  C   UNL     1      41.892 -12.184   5.693  1.00  0.00     0.019 A 
HETATM   22  C   UNL     1      43.233 -11.803   5.788  1.00  0.00     0.032 A 
HETATM   23  C   UNL     1      43.966 -11.584   4.616  1.00  0.00     0.019 A 
HETATM   24  C   UNL     1      43.345 -11.685   3.367  1.00  0.00     0.030 A 
BRANCH  22  25
HETATM   25  C   UNL     1      43.913 -11.606   7.100  1.00  0.00     0.251 C 
HETATM   26  N   UNL     1      44.395 -10.335   7.345  1.00  0.00    -0.353 N 
HETATM   27  H   UNL     1      44.403  -9.678   6.578  1.00  0.00     0.163 HD
HETATM   28  O   UNL     1      44.060 -12.557   7.857  1.00  0.00    -0.268 OA
BRANCH  26  29
HETATM   29  C   UNL     1      45.223  -9.984   8.493  1.00  0.00     0.076 C 
HETATM   30  C   UNL     1      46.481  -9.209   8.108  1.00  0.00     0.032 C 
HETATM   31  C   UNL     1      44.419  -9.258   9.569  1.00  0.00     0.032 C 
ENDBRANCH  26  29
ENDBRANCH  22  25
ENDBRANCH   2  19
TORSDOF 7
ENDMDL
MODEL 6
REMARK VINA RESULT:      -7.6      3.091      4.757
REMARK  7 active torsions:
REMARK  status: ('A' for Active; 'I' for Inactive)
REMARK    1  A    between atoms: C_2  and  S_3 
REMARK    2  A    between atoms: C_2  and  C_20 
REMARK    3  A    between atoms: S_3  and  C_4 
REMARK    4  A    between atoms: C_4  and  C_5 
REMARK       I    between atoms: C_5  and  N_6 
REMARK    5  A    between atoms: N_6  and  C_7 
REMARK    6  A    between atoms: C_10  and  C_11 
REMARK       I    between atoms: C_11  and  N_12 
REMARK    7  A    between atoms: N_12  and  C_13 
ROOT
HETATM    1  C   UNL     1      39.934 -14.296  -0.793  1.00  0.00     0.231 C 
HETATM    2  N   UNL     1      41.015 -14.113   0.057  1.00  0.00    -0.327 N 
HETATM    3  O   UNL     1      39.269 -15.323  -0.910  1.00  0.00    -0.272 OA
HETATM    4  H   UNL     1      41.545 -13.259  -0.065  1.00  0.00     0.169 HD
ENDROOT
BRANCH   1   5
HETATM    5  C   UNL     1      39.593 -13.049  -1.596  1.00  0.00     0.177 C 
BRANCH   5   6
HETATM    6  S   UNL     1      38.523 -11.952  -0.607  1.00  0.00    -0.147 SA
BRANCH   6   7
HETATM    7  C   UNL     1      39.758 -10.707  -0.052  1.00  0.00     0.113 C 
HETATM    8  C   UNL     1      40.706 -10.332  -1.189  1.00  0.00     0.029 C 
BRANCH   7   9
HETATM    9  C   UNL     1      40.488 -11.176   1.171  1.00  0.00     0.118 A 
HETATM   10  N   UNL     1      41.794 -11.243   1.345  1.00  0.00    -0.232 NA
HETATM   11  C   UNL     1      41.978 -11.789   2.592  1.00  0.00     0.085 A 
HETATM   12  C   UNL     1      40.758 -12.062   3.197  1.00  0.00     0.062 A 
HETATM   13  C   UNL     1      43.165 -12.096   3.271  1.00  0.00     0.034 A 
HETATM   14  N   UNL     1      39.825 -11.657   2.277  1.00  0.00    -0.342 N 
HETATM   15  C   UNL     1      40.641 -12.636   4.464  1.00  0.00     0.032 A 
HETATM   16  H   UNL     1      38.824 -11.745   2.370  1.00  0.00     0.167 HD
HETATM   17  C   UNL     1      41.837 -12.937   5.129  1.00  0.00     0.002 A 
HETATM   18  C   UNL     1      43.078 -12.673   4.545  1.00  0.00     0.002 A 
ENDBRANCH   7   9
ENDBRANCH   6   7
ENDBRANCH   5   6
ENDBRANCH   1   5
BRANCH   2  19
HETATM   19  C   UNL     1      41.449 -14.976   1.083  1.00  0.00     0.034 A 
HETATM   20  C   UNL     1      40.605 -15.520   2.054  1.00  0.00     0.030 A 
HETATM   21  C   UNL     1      41.121 -16.298   3.097  1.00  0.00     0.019 A 
HETATM   22  C   UNL     1      42.497 -16.529   3.189  1.00  0.00     0.032 A 
HETATM   23  C   UNL     1      43.341 -16.031   2.190  1.00  0.00     0.019 A 
HETATM   24  C   UNL     1      42.820 -15.259   1.146  1.00  0.00     0.030 A 
BRANCH  22  25
HETATM   25  C   UNL     1      43.104 -17.277   4.326  1.00  0.00     0.251 C 
HETATM   26  N   UNL     1      42.527 -17.069   5.563  1.00  0.00    -0.353 N 
HETATM   27  H   UNL     1      41.854 -16.321   5.649  1.00  0.00     0.163 HD
HETATM   28  O   UNL     1      44.090 -17.979   4.133  1.00  0.00    -0.268 OA
BRANCH  26  29
HETATM   29  C   UNL     1      43.073 -17.582   6.814  1.00  0.00     0.076 C 
HETATM   30  C   UNL     1      43.389 -19.075   6.760  1.00  0.00     0.032 C 
HETATM   31  C   UNL     1      44.275 -16.765   7.283  1.00  0.00     0.032 C 
ENDBRANCH  26  29
ENDBRANCH  22  25
ENDBRANCH   2  19
TORSDOF 7
ENDMDL
MODEL 7
REMARK VINA RESULT:      -7.6      2.608      4.808
REMARK  7 active torsions:
REMARK  status: ('A' for Active; 'I' for Inactive)
REMARK    1  A    between atoms: C_2  and  S_3 
REMARK    2  A    between atoms: C_2  and  C_20 
REMARK    3  A    between atoms: S_3  and  C_4 
REMARK    4  A    between atoms: C_4  and  C_5 
REMARK       I    between atoms: C_5  and  N_6 
REMARK    5  A    between atoms: N_6  and  C_7 
REMARK    6  A    between atoms: C_10  and  C_11 
REMARK       I    between atoms: C_11  and  N_12 
REMARK    7  A    between atoms: N_12  and  C_13 
ROOT
HETATM    1  C   UNL     1      39.721 -12.249   5.410  1.00  0.00     0.231 C 
HETATM    2  N   UNL     1      40.631 -12.818   6.288  1.00  0.00    -0.327 N 
HETATM    3  O   UNL     1      39.611 -12.503   4.213  1.00  0.00    -0.272 OA
HETATM    4  H   UNL     1      40.691 -12.401   7.209  1.00  0.00     0.169 HD
ENDROOT
BRANCH   1   5
HETATM    5  C   UNL     1      38.794 -11.246   6.084  1.00  0.00     0.177 C 
BRANCH   5   6
HETATM    6  S   UNL     1      39.508  -9.572   5.966  1.00  0.00    -0.147 SA
BRANCH   6   7
HETATM    7  C   UNL     1      40.216  -9.401   7.656  1.00  0.00     0.113 C 
HETATM    8  C   UNL     1      39.770  -8.094   8.306  1.00  0.00     0.029 C 
BRANCH   7   9
HETATM    9  C   UNL     1      41.708  -9.550   7.636  1.00  0.00     0.118 A 
HETATM   10  N   UNL     1      42.406 -10.527   7.089  1.00  0.00    -0.232 NA
HETATM   11  C   UNL     1      43.720 -10.257   7.382  1.00  0.00     0.085 A 
HETATM   12  C   UNL     1      43.832  -9.087   8.122  1.00  0.00     0.062 A 
HETATM   13  C   UNL     1      44.879 -10.977   7.058  1.00  0.00     0.034 A 
HETATM   14  N   UNL     1      42.540  -8.652   8.265  1.00  0.00    -0.342 N 
HETATM   15  C   UNL     1      45.051  -8.578   8.574  1.00  0.00     0.032 A 
HETATM   16  H   UNL     1      42.241  -7.841   8.788  1.00  0.00     0.167 HD
HETATM   17  C   UNL     1      46.198  -9.310   8.243  1.00  0.00     0.002 A 
HETATM   18  C   UNL     1      46.116 -10.490   7.498  1.00  0.00     0.002 A 
ENDBRANCH   7   9
ENDBRANCH   6   7
ENDBRANCH   5   6
ENDBRANCH   1   5
BRANCH   2  19
HETATM   19  C   UNL     1      41.471 -13.924   6.047  1.00  0.00     0.034 A 
HETATM   20  C   UNL     1      42.764 -14.047   6.563  1.00  0.00     0.030 A 
HETATM   21  C   UNL     1      43.576 -15.131   6.207  1.00  0.00     0.019 A 
HETATM   22  C   UNL     1      43.106 -16.100   5.316  1.00  0.00     0.032 A 
HETATM   23  C   UNL     1      41.794 -16.010   4.838  1.00  0.00     0.019 A 
HETATM   24  C   UNL     1      40.984 -14.928   5.201  1.00  0.00     0.030 A 
BRANCH  22  25
HETATM   25  C   UNL     1      43.960 -17.225   4.840  1.00  0.00     0.251 C 
HETATM   26  N   UNL     1      43.383 -18.074   3.918  1.00  0.00    -0.353 N 
HETATM   27  H   UNL     1      42.391 -17.981   3.747  1.00  0.00     0.163 HD
HETATM   28  O   UNL     1      45.081 -17.377   5.311  1.00  0.00    -0.268 OA
BRANCH  26  29
HETATM   29  C   UNL     1      43.995 -19.314   3.455  1.00  0.00     0.076 C 
HETATM   30  C   UNL     1      44.040 -20.396   4.531  1.00  0.00     0.032 C 
HETATM   31  C   UNL     1      43.343 -19.821   2.170  1.00  0.00     0.032 C 
ENDBRANCH  26  29
ENDBRANCH  22  25
ENDBRANCH   2  19
TORSDOF 7
ENDMDL
MODEL 8
REMARK VINA RESULT:      -7.5      3.426      6.965
REMARK  7 active torsions:
REMARK  status: ('A' for Active; 'I' for Inactive)
REMARK    1  A    between atoms: C_2  and  S_3 
REMARK    2  A    between atoms: C_2  and  C_20 
REMARK    3  A    between atoms: S_3  and  C_4 
REMARK    4  A    between atoms: C_4  and  C_5 
REMARK       I    between atoms: C_5  and  N_6 
REMARK    5  A    between atoms: N_6  and  C_7 
REMARK    6  A    between atoms: C_10  and  C_11 
REMARK       I    between atoms: C_11  and  N_12 
REMARK    7  A    between atoms: N_12  and  C_13 
ROOT
HETATM    1  C   UNL     1      43.619 -12.012   3.803  1.00  0.00     0.231 C 
HETATM    2  N   UNL     1      42.921 -11.925   4.999  1.00  0.00    -0.327 N 
HETATM    3  O   UNL     1      44.649 -11.406   3.519  1.00  0.00    -0.272 OA
HETATM    4  H   UNL     1      42.015 -12.377   5.026  1.00  0.00     0.169 HD
ENDROOT
BRANCH   1   5
HETATM    5  C   UNL     1      42.993 -12.993   2.822  1.00  0.00     0.177 C 
BRANCH   5   6
HETATM    6  S   UNL     1      41.195 -12.702   2.722  1.00  0.00    -0.147 SA
BRANCH   6   7
HETATM    7  C   UNL     1      40.580 -14.136   3.696  1.00  0.00     0.113 C 
HETATM    8  C   UNL     1      40.322 -13.741   5.148  1.00  0.00     0.029 C 
BRANCH   7   9
HETATM    9  C   UNL     1      41.506 -15.309   3.578  1.00  0.00     0.118 A 
HETATM   10  N   UNL     1      41.578 -16.173   2.583  1.00  0.00    -0.232 NA
HETATM   11  C   UNL     1      42.527 -17.094   2.957  1.00  0.00     0.085 A 
HETATM   12  C   UNL     1      43.050 -16.788   4.206  1.00  0.00     0.062 A 
HETATM   13  C   UNL     1      42.986 -18.234   2.281  1.00  0.00     0.034 A 
HETATM   14  N   UNL     1      42.391 -15.645   4.578  1.00  0.00    -0.342 N 
HETATM   15  C   UNL     1      44.022 -17.562   4.842  1.00  0.00     0.032 A 
HETATM   16  H   UNL     1      42.494 -15.159   5.457  1.00  0.00     0.167 HD
HETATM   17  C   UNL     1      44.469 -18.697   4.155  1.00  0.00     0.002 A 
HETATM   18  C   UNL     1      43.961 -19.029   2.896  1.00  0.00     0.002 A 
ENDBRANCH   7   9
ENDBRANCH   6   7
ENDBRANCH   5   6
ENDBRANCH   1   5
BRANCH   2  19
HETATM   19  C   UNL     1      43.338 -11.291   6.186  1.00  0.00     0.034 A 
HETATM   20  C   UNL     1      44.550 -11.558   6.829  1.00  0.00     0.030 A 
HETATM   21  C   UNL     1      44.858 -10.956   8.054  1.00  0.00     0.019 A 
HETATM   22  C   UNL     1      43.947 -10.086   8.660  1.00  0.00     0.032 A 
HETATM   23  C   UNL     1      42.756  -9.773   7.996  1.00  0.00     0.019 A 
HETATM   24  C   UNL     1      42.455 -10.373   6.769  1.00  0.00     0.030 A 
BRANCH  22  25
HETATM   25  C   UNL     1      44.191  -9.487  10.003  1.00  0.00     0.251 C 
HETATM   26  N   UNL     1      43.113  -8.852  10.586  1.00  0.00    -0.353 N 
HETATM   27  H   UNL     1      42.294  -8.693  10.016  1.00  0.00     0.163 HD
HETATM   28  O   UNL     1      45.313  -9.533  10.493  1.00  0.00    -0.268 OA
BRANCH  26  29
HETATM   29  C   UNL     1      43.193  -8.072  11.816  1.00  0.00     0.076 C 
HETATM   30  C   UNL     1      42.396  -6.771  11.752  1.00  0.00     0.032 C 
HETATM   31  C   UNL     1      42.816  -8.906  13.038  1.00  0.00     0.032 C 
ENDBRANCH  26  29
ENDBRANCH  22  25
ENDBRANCH   2  19
TORSDOF 7
ENDMDL
MODEL 9
REMARK VINA RESULT:      -7.4      4.253      5.332
REMARK  7 active torsions:
REMARK  status: ('A' for Active; 'I' for Inactive)
REMARK    1  A    between atoms: C_2  and  S_3 
REMARK    2  A    between atoms: C_2  and  C_20 
REMARK    3  A    between atoms: S_3  and  C_4 
REMARK    4  A    between atoms: C_4  and  C_5 
REMARK       I    between atoms: C_5  and  N_6 
REMARK    5  A    between atoms: N_6  and  C_7 
REMARK    6  A    between atoms: C_10  and  C_11 
REMARK       I    between atoms: C_11  and  N_12 
REMARK    7  A    between atoms: N_12  and  C_13 
ROOT
HETATM    1  C   UNL     1      38.793 -11.103   2.267  1.00  0.00     0.231 C 
HETATM    2  N   UNL     1      38.573 -12.463   2.098  1.00  0.00    -0.327 N 
HETATM    3  O   UNL     1      39.839 -10.578   2.640  1.00  0.00    -0.272 OA
HETATM    4  H   UNL     1      37.617 -12.747   1.922  1.00  0.00     0.169 HD
ENDROOT
BRANCH   1   5
HETATM    5  C   UNL     1      37.579 -10.258   1.906  1.00  0.00     0.177 C 
BRANCH   5   6
HETATM    6  S   UNL     1      38.104  -8.815   0.922  1.00  0.00    -0.147 SA
BRANCH   6   7
HETATM    7  C   UNL     1      37.309  -9.213  -0.688  1.00  0.00     0.113 C 
HETATM    8  C   UNL     1      35.790  -9.276  -0.547  1.00  0.00     0.029 C 
BRANCH   7   9
HETATM    9  C   UNL     1      37.881 -10.467  -1.280  1.00  0.00     0.118 A 
HETATM   10  N   UNL     1      37.240 -11.589  -1.546  1.00  0.00    -0.232 NA
HETATM   11  C   UNL     1      38.192 -12.461  -2.015  1.00  0.00     0.085 A 
HETATM   12  C   UNL     1      39.444 -11.860  -2.040  1.00  0.00     0.062 A 
HETATM   13  C   UNL     1      38.062 -13.794  -2.429  1.00  0.00     0.034 A 
HETATM   14  N   UNL     1      39.220 -10.590  -1.574  1.00  0.00    -0.342 N 
HETATM   15  C   UNL     1      40.603 -12.518  -2.457  1.00  0.00     0.032 A 
HETATM   16  H   UNL     1      39.922  -9.882  -1.421  1.00  0.00     0.167 HD
HETATM   17  C   UNL     1      40.456 -13.849  -2.866  1.00  0.00     0.002 A 
HETATM   18  C   UNL     1      39.208 -14.478  -2.853  1.00  0.00     0.002 A 
ENDBRANCH   7   9
ENDBRANCH   6   7
ENDBRANCH   5   6
ENDBRANCH   1   5
BRANCH   2  19
HETATM   19  C   UNL     1      39.535 -13.492   2.129  1.00  0.00     0.034 A 
HETATM   20  C   UNL     1      40.087 -14.008   3.304  1.00  0.00     0.030 A 
HETATM   21  C   UNL     1      41.106 -14.967   3.255  1.00  0.00     0.019 A 
HETATM   22  C   UNL     1      41.594 -15.413   2.024  1.00  0.00     0.032 A 
HETATM   23  C   UNL     1      41.009 -14.940   0.845  1.00  0.00     0.019 A 
HETATM   24  C   UNL     1      39.988 -13.985   0.898  1.00  0.00     0.030 A 
BRANCH  22  25
HETATM   25  C   UNL     1      42.734 -16.368   1.919  1.00  0.00     0.251 C 
HETATM   26  N   UNL     1      42.560 -17.587   2.544  1.00  0.00    -0.353 N 
HETATM   27  H   UNL     1      41.763 -17.694   3.155  1.00  0.00     0.163 HD
HETATM   28  O   UNL     1      43.763 -16.026   1.348  1.00  0.00    -0.268 OA
BRANCH  26  29
HETATM   29  C   UNL     1      43.612 -18.587   2.689  1.00  0.00     0.076 C 
HETATM   30  C   UNL     1      44.153 -18.683   4.113  1.00  0.00     0.032 C 
HETATM   31  C   UNL     1      43.174 -19.949   2.157  1.00  0.00     0.032 C 
ENDBRANCH  26  29
ENDBRANCH  22  25
ENDBRANCH   2  19
TORSDOF 7
ENDMDL
MODEL 10
REMARK VINA RESULT:      -7.3      6.054      9.309
REMARK  7 active torsions:
REMARK  status: ('A' for Active; 'I' for Inactive)
REMARK    1  A    between atoms: C_2  and  S_3 
REMARK    2  A    between atoms: C_2  and  C_20 
REMARK    3  A    between atoms: S_3  and  C_4 
REMARK    4  A    between atoms: C_4  and  C_5 
REMARK       I    between atoms: C_5  and  N_6 
REMARK    5  A    between atoms: N_6  and  C_7 
REMARK    6  A    between atoms: C_10  and  C_11 
REMARK       I    between atoms: C_11  and  N_12 
REMARK    7  A    between atoms: N_12  and  C_13 
ROOT
HETATM    1  C   UNL     1      42.379  -9.468   8.391  1.00  0.00     0.231 C 
HETATM    2  N   UNL     1      42.919  -9.944   9.576  1.00  0.00    -0.327 N 
HETATM    3  O   UNL     1      41.463  -8.657   8.285  1.00  0.00    -0.272 OA
HETATM    4  H   UNL     1      43.572 -10.714   9.497  1.00  0.00     0.169 HD
ENDROOT
BRANCH   1   5
HETATM    5  C   UNL     1      43.065 -10.036   7.156  1.00  0.00     0.177 C 
BRANCH   5   6
HETATM    6  S   UNL     1      42.070 -11.403   6.472  1.00  0.00    -0.147 SA
BRANCH   6   7
HETATM    7  C   UNL     1      43.278 -12.784   6.609  1.00  0.00     0.113 C 
HETATM    8  C   UNL     1      44.702 -12.253   6.750  1.00  0.00     0.029 C 
BRANCH   7   9
HETATM    9  C   UNL     1      43.136 -13.744   5.465  1.00  0.00     0.118 A 
HETATM   10  N   UNL     1      43.014 -15.056   5.534  1.00  0.00    -0.232 NA
HETATM   11  C   UNL     1      42.977 -15.496   4.233  1.00  0.00     0.085 A 
HETATM   12  C   UNL     1      43.076 -14.431   3.347  1.00  0.00     0.062 A 
HETATM   13  C   UNL     1      42.874 -16.800   3.729  1.00  0.00     0.034 A 
HETATM   14  N   UNL     1      43.169 -13.326   4.154  1.00  0.00    -0.342 N 
HETATM   15  C   UNL     1      43.081 -14.584   1.959  1.00  0.00     0.032 A 
HETATM   16  H   UNL     1      43.294 -12.373   3.844  1.00  0.00     0.167 HD
HETATM   17  C   UNL     1      42.978 -15.894   1.473  1.00  0.00     0.002 A 
HETATM   18  C   UNL     1      42.876 -16.984   2.341  1.00  0.00     0.002 A 
ENDBRANCH   7   9
ENDBRANCH   6   7
ENDBRANCH   5   6
ENDBRANCH   1   5
BRANCH   2  19
HETATM   19  C   UNL     1      42.672  -9.466  10.879  1.00  0.00     0.034 A 
HETATM   20  C   UNL     1      41.515  -9.754  11.608  1.00  0.00     0.030 A 
HETATM   21  C   UNL     1      41.296  -9.170  12.861  1.00  0.00     0.019 A 
HETATM   22  C   UNL     1      42.230  -8.277  13.395  1.00  0.00     0.032 A 
HETATM   23  C   UNL     1      43.414  -8.026  12.693  1.00  0.00     0.019 A 
HETATM   24  C   UNL     1      43.631  -8.616  11.444  1.00  0.00     0.030 A 
BRANCH  22  25
HETATM   25  C   UNL     1      42.003  -7.564  14.684  1.00  0.00     0.251 C 
HETATM   26  N   UNL     1      40.689  -7.466  15.097  1.00  0.00    -0.353 N 
HETATM   27  H   UNL     1      39.968  -7.731  14.442  1.00  0.00     0.163 HD
HETATM   28  O   UNL     1      42.952  -7.065  15.277  1.00  0.00    -0.268 OA
BRANCH  26  29
HETATM   29  C   UNL     1      40.251  -6.675  16.242  1.00  0.00     0.076 C 
HETATM   30  C   UNL     1      38.866  -6.061  16.048  1.00  0.00     0.032 C 
HETATM   31  C   UNL     1      40.342  -7.466  17.544  1.00  0.00     0.032 C 
ENDBRANCH  26  29
ENDBRANCH  22  25
ENDBRANCH   2  19
TORSDOF 7
ENDMDL
