MODEL 1
REMARK VINA RESULT:      -8.2      0.000      0.000
REMARK  4 active torsions:
REMARK  status: ('A' for Active; 'I' for Inactive)
REMARK    1  A    between atoms: C_5  and  C_6 
REMARK       I    between atoms: C_6  and  N_7 
REMARK    2  A    between atoms: N_7  and  C_8 
REMARK    3  A    between atoms: C_8  and  N_9 
REMARK    4  A    between atoms: N_9  and  C_10 
ROOT
HETATM    1  C   UNL     1      43.533 -15.859   5.490  1.00  0.00     0.257 C 
HETATM    2  N   UNL     1      42.581 -14.874   5.243  1.00  0.00    -0.299 N 
HETATM    3  O   UNL     1      44.303 -15.902   6.441  1.00  0.00    -0.267 OA
HETATM    4  H   UNL     1      41.951 -15.038   4.462  1.00  0.00     0.171 HD
ENDROOT
BRANCH   2   5
HETATM    5  C   UNL     1      42.272 -13.714   5.923  1.00  0.00     0.180 C 
HETATM    6  S   UNL     1      41.097 -12.590   5.533  1.00  0.00    -0.040 SA
BRANCH   5   7
HETATM    7  N   UNL     1      43.016 -13.456   7.050  1.00  0.00    -0.318 N 
HETATM    8  H   UNL     1      42.885 -14.139   7.786  1.00  0.00     0.170 HD
BRANCH   7   9
HETATM    9  C   UNL     1      43.916 -12.411   7.296  1.00  0.00     0.129 A 
HETATM   10  N   UNL     1      43.788 -11.670   8.420  1.00  0.00    -0.243 NA
HETATM   11  C   UNL     1      44.675 -10.662   8.603  1.00  0.00     0.125 A 
HETATM   12  C   UNL     1      45.701 -10.354   7.721  1.00  0.00    -0.044 A 
HETATM   13  C   UNL     1      46.625  -9.204   7.963  1.00  0.00     0.049 C 
HETATM   14  C   UNL     1      45.807 -11.132   6.568  1.00  0.00     0.012 A 
HETATM   15  C   UNL     1      44.908 -12.175   6.353  1.00  0.00     0.051 A 
ENDBRANCH   7   9
ENDBRANCH   5   7
ENDBRANCH   2   5
BRANCH   1  16
HETATM   16  C   UNL     1      43.545 -16.982   4.510  1.00  0.00     0.032 A 
HETATM   17  C   UNL     1      42.953 -16.877   3.245  1.00  0.00     0.017 A 
HETATM   18  C   UNL     1      42.970 -17.970   2.373  1.00  0.00     0.007 A 
HETATM   19  C   UNL     1      43.576 -19.174   2.751  1.00  0.00    -0.062 A 
HETATM   20  C   UNL     1      43.614 -20.343   1.811  1.00  0.00     0.048 C 
HETATM   21  C   UNL     1      44.202 -19.260   4.001  1.00  0.00     0.007 A 
HETATM   22  C   UNL     1      44.188 -18.171   4.874  1.00  0.00     0.017 A 
ENDBRANCH   1  16
TORSDOF 4
ENDMDL
MODEL 2
REMARK VINA RESULT:      -7.6      3.763      6.248
REMARK  4 active torsions:
REMARK  status: ('A' for Active; 'I' for Inactive)
REMARK    1  A    between atoms: C_5  and  C_6 
REMARK       I    between atoms: C_6  and  N_7 
REMARK    2  A    between atoms: N_7  and  C_8 
REMARK    3  A    between atoms: C_8  and  N_9 
REMARK    4  A    between atoms: N_9  and  C_10 
ROOT
HETATM    1  C   UNL     1      42.880 -15.120   4.045  1.00  0.00     0.257 C 
HETATM    2  N   UNL     1      42.920 -14.216   2.987  1.00  0.00    -0.299 N 
HETATM    3  O   UNL     1      42.611 -14.861   5.212  1.00  0.00    -0.267 OA
HETATM    4  H   UNL     1      43.063 -14.609   2.061  1.00  0.00     0.171 HD
ENDROOT
BRANCH   2   5
HETATM    5  C   UNL     1      42.724 -12.851   2.947  1.00  0.00     0.180 C 
HETATM    6  S   UNL     1      43.668 -11.668   3.657  1.00  0.00    -0.040 SA
BRANCH   5   7
HETATM    7  N   UNL     1      41.627 -12.417   2.241  1.00  0.00    -0.318 N 
HETATM    8  H   UNL     1      41.240 -11.548   2.589  1.00  0.00     0.170 HD
BRANCH   7   9
HETATM    9  C   UNL     1      41.006 -12.997   1.128  1.00  0.00     0.129 A 
HETATM   10  N   UNL     1      40.510 -14.252   1.217  1.00  0.00    -0.243 NA
HETATM   11  C   UNL     1      39.932 -14.771   0.107  1.00  0.00     0.125 A 
HETATM   12  C   UNL     1      39.812 -14.097  -1.100  1.00  0.00    -0.044 A 
HETATM   13  C   UNL     1      39.195 -14.741  -2.300  1.00  0.00     0.049 C 
HETATM   14  C   UNL     1      40.335 -12.806  -1.165  1.00  0.00     0.012 A 
HETATM   15  C   UNL     1      40.936 -12.246  -0.039  1.00  0.00     0.051 A 
ENDBRANCH   7   9
ENDBRANCH   5   7
ENDBRANCH   2   5
BRANCH   1  16
HETATM   16  C   UNL     1      43.142 -16.539   3.670  1.00  0.00     0.032 A 
HETATM   17  C   UNL     1      43.921 -17.391   4.464  1.00  0.00     0.017 A 
HETATM   18  C   UNL     1      44.158 -18.707   4.053  1.00  0.00     0.007 A 
HETATM   19  C   UNL     1      43.622 -19.185   2.851  1.00  0.00    -0.062 A 
HETATM   20  C   UNL     1      43.857 -20.602   2.417  1.00  0.00     0.048 C 
HETATM   21  C   UNL     1      42.811 -18.342   2.082  1.00  0.00     0.007 A 
HETATM   22  C   UNL     1      42.571 -17.028   2.490  1.00  0.00     0.017 A 
ENDBRANCH   1  16
TORSDOF 4
ENDMDL
MODEL 3
REMARK VINA RESULT:      -7.5      4.049      6.426
REMARK  4 active torsions:
REMARK  status: ('A' for Active; 'I' for Inactive)
REMARK    1  A    between atoms: C_5  and  C_6 
REMARK       I    between atoms: C_6  and  N_7 
REMARK    2  A    between atoms: N_7  and  C_8 
REMARK    3  A    between atoms: C_8  and  N_9 
REMARK    4  A    between atoms: N_9  and  C_10 
ROOT
HETATM    1  C   UNL     1      43.258 -15.923   2.507  1.00  0.00     0.257 C 
HETATM    2  N   UNL     1      42.795 -14.902   3.332  1.00  0.00    -0.299 N 
HETATM    3  O   UNL     1      43.498 -15.836   1.309  1.00  0.00    -0.267 OA
HETATM    4  H   UNL     1      42.740 -15.112   4.326  1.00  0.00     0.171 HD
ENDROOT
BRANCH   2   5
HETATM    5  C   UNL     1      42.452 -13.594   3.059  1.00  0.00     0.180 C 
HETATM    6  S   UNL     1      43.376 -12.226   3.322  1.00  0.00    -0.040 SA
BRANCH   5   7
HETATM    7  N   UNL     1      41.209 -13.396   2.506  1.00  0.00    -0.318 N 
HETATM    8  H   UNL     1      40.507 -13.113   3.179  1.00  0.00     0.170 HD
BRANCH   7   9
HETATM    9  C   UNL     1      40.806 -13.518   1.170  1.00  0.00     0.129 A 
HETATM   10  N   UNL     1      41.042 -12.505   0.305  1.00  0.00    -0.243 NA
HETATM   11  C   UNL     1      40.618 -12.667  -0.972  1.00  0.00     0.125 A 
HETATM   12  C   UNL     1      39.970 -13.801  -1.442  1.00  0.00    -0.044 A 
HETATM   13  C   UNL     1      39.494 -13.903  -2.856  1.00  0.00     0.049 C 
HETATM   14  C   UNL     1      39.736 -14.828  -0.528  1.00  0.00     0.012 A 
HETATM   15  C   UNL     1      40.161 -14.689   0.792  1.00  0.00     0.051 A 
ENDBRANCH   7   9
ENDBRANCH   5   7
ENDBRANCH   2   5
BRANCH   1  16
HETATM   16  C   UNL     1      43.528 -17.216   3.198  1.00  0.00     0.032 A 
HETATM   17  C   UNL     1      43.567 -18.437   2.511  1.00  0.00     0.017 A 
HETATM   18  C   UNL     1      43.799 -19.625   3.211  1.00  0.00     0.007 A 
HETATM   19  C   UNL     1      43.993 -19.609   4.598  1.00  0.00    -0.062 A 
HETATM   20  C   UNL     1      44.262 -20.879   5.349  1.00  0.00     0.048 C 
HETATM   21  C   UNL     1      43.993 -18.382   5.272  1.00  0.00     0.007 A 
HETATM   22  C   UNL     1      43.764 -17.193   4.577  1.00  0.00     0.017 A 
ENDBRANCH   1  16
TORSDOF 4
ENDMDL
MODEL 4
REMARK VINA RESULT:      -7.2      1.715      2.212
REMARK  4 active torsions:
REMARK  status: ('A' for Active; 'I' for Inactive)
REMARK    1  A    between atoms: C_5  and  C_6 
REMARK       I    between atoms: C_6  and  N_7 
REMARK    2  A    between atoms: N_7  and  C_8 
REMARK    3  A    between atoms: C_8  and  N_9 
REMARK    4  A    between atoms: N_9  and  C_10 
ROOT
HETATM    1  C   UNL     1      43.106 -15.114   3.257  1.00  0.00     0.257 C 
HETATM    2  N   UNL     1      42.937 -14.156   4.253  1.00  0.00    -0.299 N 
HETATM    3  O   UNL     1      43.068 -14.919   2.049  1.00  0.00    -0.267 OA
HETATM    4  H   UNL     1      43.098 -14.463   5.209  1.00  0.00     0.171 HD
ENDROOT
BRANCH   2   5
HETATM    5  C   UNL     1      42.655 -12.807   4.182  1.00  0.00     0.180 C 
HETATM    6  S   UNL     1      41.205 -12.094   3.754  1.00  0.00    -0.040 SA
BRANCH   5   7
HETATM    7  N   UNL     1      43.685 -11.955   4.502  1.00  0.00    -0.318 N 
HETATM    8  H   UNL     1      44.205 -11.629   3.695  1.00  0.00     0.170 HD
BRANCH   7   9
HETATM    9  C   UNL     1      44.086 -11.483   5.758  1.00  0.00     0.129 A 
HETATM   10  N   UNL     1      43.154 -11.076   6.649  1.00  0.00    -0.243 NA
HETATM   11  C   UNL     1      43.596 -10.614   7.843  1.00  0.00     0.125 A 
HETATM   12  C   UNL     1      44.933 -10.542   8.207  1.00  0.00    -0.044 A 
HETATM   13  C   UNL     1      45.358  -9.988   9.529  1.00  0.00     0.049 C 
HETATM   14  C   UNL     1      45.874 -10.965   7.268  1.00  0.00     0.012 A 
HETATM   15  C   UNL     1      45.448 -11.444   6.031  1.00  0.00     0.051 A 
ENDBRANCH   7   9
ENDBRANCH   5   7
ENDBRANCH   2   5
BRANCH   1  16
HETATM   16  C   UNL     1      43.417 -16.486   3.750  1.00  0.00     0.032 A 
HETATM   17  C   UNL     1      43.676 -16.755   5.100  1.00  0.00     0.017 A 
HETATM   18  C   UNL     1      43.989 -18.056   5.506  1.00  0.00     0.007 A 
HETATM   19  C   UNL     1      44.047 -19.099   4.573  1.00  0.00    -0.062 A 
HETATM   20  C   UNL     1      44.362 -20.500   5.008  1.00  0.00     0.048 C 
HETATM   21  C   UNL     1      43.748 -18.831   3.232  1.00  0.00     0.007 A 
HETATM   22  C   UNL     1      43.433 -17.534   2.823  1.00  0.00     0.017 A 
ENDBRANCH   1  16
TORSDOF 4
ENDMDL
MODEL 5
REMARK VINA RESULT:      -7.0      2.144      2.673
REMARK  4 active torsions:
REMARK  status: ('A' for Active; 'I' for Inactive)
REMARK    1  A    between atoms: C_5  and  C_6 
REMARK       I    between atoms: C_6  and  N_7 
REMARK    2  A    between atoms: N_7  and  C_8 
REMARK    3  A    between atoms: C_8  and  N_9 
REMARK    4  A    between atoms: N_9  and  C_10 
ROOT
HETATM    1  C   UNL     1      42.912 -13.132   3.577  1.00  0.00     0.257 C 
HETATM    2  N   UNL     1      41.930 -12.755   4.488  1.00  0.00    -0.299 N 
HETATM    3  O   UNL     1      43.744 -12.397   3.060  1.00  0.00    -0.267 OA
HETATM    4  H   UNL     1      41.381 -13.505   4.899  1.00  0.00     0.171 HD
ENDROOT
BRANCH   2   5
HETATM    5  C   UNL     1      41.597 -11.522   5.012  1.00  0.00     0.180 C 
HETATM    6  S   UNL     1      40.064 -10.918   5.291  1.00  0.00    -0.040 SA
BRANCH   5   7
HETATM    7  N   UNL     1      42.648 -10.700   5.340  1.00  0.00    -0.318 N 
HETATM    8  H   UNL     1      42.974 -10.131   4.567  1.00  0.00     0.170 HD
BRANCH   7   9
HETATM    9  C   UNL     1      43.297 -10.542   6.571  1.00  0.00     0.129 A 
HETATM   10  N   UNL     1      42.674  -9.885   7.576  1.00  0.00    -0.243 NA
HETATM   11  C   UNL     1      43.351  -9.747   8.741  1.00  0.00     0.125 A 
HETATM   12  C   UNL     1      44.628 -10.240   8.967  1.00  0.00    -0.044 A 
HETATM   13  C   UNL     1      45.337 -10.022  10.265  1.00  0.00     0.049 C 
HETATM   14  C   UNL     1      45.249 -10.910   7.912  1.00  0.00     0.012 A 
HETATM   15  C   UNL     1      44.576 -11.067   6.702  1.00  0.00     0.051 A 
ENDBRANCH   7   9
ENDBRANCH   5   7
ENDBRANCH   2   5
BRANCH   1  16
HETATM   16  C   UNL     1      42.958 -14.590   3.269  1.00  0.00     0.032 A 
HETATM   17  C   UNL     1      42.743 -15.568   4.248  1.00  0.00     0.017 A 
HETATM   18  C   UNL     1      42.824 -16.923   3.912  1.00  0.00     0.007 A 
HETATM   19  C   UNL     1      43.119 -17.316   2.601  1.00  0.00    -0.062 A 
HETATM   20  C   UNL     1      43.187 -18.768   2.232  1.00  0.00     0.048 C 
HETATM   21  C   UNL     1      43.294 -16.334   1.618  1.00  0.00     0.007 A 
HETATM   22  C   UNL     1      43.212 -14.980   1.949  1.00  0.00     0.017 A 
ENDBRANCH   1  16
TORSDOF 4
ENDMDL
MODEL 6
REMARK VINA RESULT:      -6.9      2.958      4.763
REMARK  4 active torsions:
REMARK  status: ('A' for Active; 'I' for Inactive)
REMARK    1  A    between atoms: C_5  and  C_6 
REMARK       I    between atoms: C_6  and  N_7 
REMARK    2  A    between atoms: N_7  and  C_8 
REMARK    3  A    between atoms: C_8  and  N_9 
REMARK    4  A    between atoms: N_9  and  C_10 
ROOT
HETATM    1  C   UNL     1      42.200 -15.845   4.905  1.00  0.00     0.257 C 
HETATM    2  N   UNL     1      43.034 -14.730   4.879  1.00  0.00    -0.299 N 
HETATM    3  O   UNL     1      41.123 -15.933   5.483  1.00  0.00    -0.267 OA
HETATM    4  H   UNL     1      43.846 -14.786   4.270  1.00  0.00     0.171 HD
ENDROOT
BRANCH   2   5
HETATM    5  C   UNL     1      42.925 -13.496   5.487  1.00  0.00     0.180 C 
HETATM    6  S   UNL     1      43.949 -12.834   6.631  1.00  0.00    -0.040 SA
BRANCH   5   7
HETATM    7  N   UNL     1      41.853 -12.726   5.107  1.00  0.00    -0.318 N 
HETATM    8  H   UNL     1      41.520 -12.106   5.836  1.00  0.00     0.170 HD
BRANCH   7   9
HETATM    9  C   UNL     1      41.191 -12.678   3.873  1.00  0.00     0.129 A 
HETATM   10  N   UNL     1      41.910 -12.594   2.731  1.00  0.00    -0.243 NA
HETATM   11  C   UNL     1      41.221 -12.536   1.566  1.00  0.00     0.125 A 
HETATM   12  C   UNL     1      39.837 -12.565   1.474  1.00  0.00    -0.044 A 
HETATM   13  C   UNL     1      39.135 -12.460   0.158  1.00  0.00     0.049 C 
HETATM   14  C   UNL     1      39.120 -12.648   2.668  1.00  0.00     0.012 A 
HETATM   15  C   UNL     1      39.802 -12.709   3.881  1.00  0.00     0.051 A 
ENDBRANCH   7   9
ENDBRANCH   5   7
ENDBRANCH   2   5
BRANCH   1  16
HETATM   16  C   UNL     1      42.671 -17.002   4.093  1.00  0.00     0.032 A 
HETATM   17  C   UNL     1      42.260 -17.204   2.769  1.00  0.00     0.017 A 
HETATM   18  C   UNL     1      42.712 -18.321   2.059  1.00  0.00     0.007 A 
HETATM   19  C   UNL     1      43.574 -19.246   2.660  1.00  0.00    -0.062 A 
HETATM   20  C   UNL     1      44.076 -20.435   1.896  1.00  0.00     0.048 C 
HETATM   21  C   UNL     1      44.013 -19.018   3.970  1.00  0.00     0.007 A 
HETATM   22  C   UNL     1      43.566 -17.903   4.681  1.00  0.00     0.017 A 
ENDBRANCH   1  16
TORSDOF 4
ENDMDL
MODEL 7
REMARK VINA RESULT:      -6.8      2.629      8.478
REMARK  4 active torsions:
REMARK  status: ('A' for Active; 'I' for Inactive)
REMARK    1  A    between atoms: C_5  and  C_6 
REMARK       I    between atoms: C_6  and  N_7 
REMARK    2  A    between atoms: N_7  and  C_8 
REMARK    3  A    between atoms: C_8  and  N_9 
REMARK    4  A    between atoms: N_9  and  C_10 
ROOT
HETATM    1  C   UNL     1      44.165 -10.895   8.479  1.00  0.00     0.257 C 
HETATM    2  N   UNL     1      43.085 -11.175   7.647  1.00  0.00    -0.299 N 
HETATM    3  O   UNL     1      45.334 -11.205   8.280  1.00  0.00    -0.267 OA
HETATM    4  H   UNL     1      42.194 -10.761   7.907  1.00  0.00     0.171 HD
ENDROOT
BRANCH   2   5
HETATM    5  C   UNL     1      43.006 -11.870   6.457  1.00  0.00     0.180 C 
HETATM    6  S   UNL     1      43.569 -11.387   4.959  1.00  0.00    -0.040 SA
BRANCH   5   7
HETATM    7  N   UNL     1      42.397 -13.100   6.514  1.00  0.00    -0.318 N 
HETATM    8  H   UNL     1      41.482 -13.079   6.949  1.00  0.00     0.170 HD
BRANCH   7   9
HETATM    9  C   UNL     1      42.857 -14.339   6.049  1.00  0.00     0.129 A 
HETATM   10  N   UNL     1      42.260 -14.917   4.982  1.00  0.00    -0.243 NA
HETATM   11  C   UNL     1      42.734 -16.121   4.582  1.00  0.00     0.125 A 
HETATM   12  C   UNL     1      43.790 -16.787   5.189  1.00  0.00    -0.044 A 
HETATM   13  C   UNL     1      44.242 -18.133   4.722  1.00  0.00     0.049 C 
HETATM   14  C   UNL     1      44.385 -16.170   6.290  1.00  0.00     0.012 A 
HETATM   15  C   UNL     1      43.917 -14.931   6.724  1.00  0.00     0.051 A 
ENDBRANCH   7   9
ENDBRANCH   5   7
ENDBRANCH   2   5
BRANCH   1  16
HETATM   16  C   UNL     1      43.835 -10.092   9.690  1.00  0.00     0.032 A 
HETATM   17  C   UNL     1      43.698  -8.698   9.649  1.00  0.00     0.017 A 
HETATM   18  C   UNL     1      43.414  -7.989  10.820  1.00  0.00     0.007 A 
HETATM   19  C   UNL     1      43.264  -8.659  12.040  1.00  0.00    -0.062 A 
HETATM   20  C   UNL     1      42.939  -7.904  13.295  1.00  0.00     0.048 C 
HETATM   21  C   UNL     1      43.362 -10.055  12.068  1.00  0.00     0.007 A 
HETATM   22  C   UNL     1      43.644 -10.767  10.901  1.00  0.00     0.017 A 
ENDBRANCH   1  16
TORSDOF 4
ENDMDL
MODEL 8
REMARK VINA RESULT:      -6.8     15.170     16.611
REMARK  4 active torsions:
REMARK  status: ('A' for Active; 'I' for Inactive)
REMARK    1  A    between atoms: C_5  and  C_6 
REMARK       I    between atoms: C_6  and  N_7 
REMARK    2  A    between atoms: N_7  and  C_8 
REMARK    3  A    between atoms: C_8  and  N_9 
REMARK    4  A    between atoms: N_9  and  C_10 
ROOT
HETATM    1  C   UNL     1      44.217 -29.199  -1.018  1.00  0.00     0.257 C 
HETATM    2  N   UNL     1      43.671 -29.963   0.011  1.00  0.00    -0.299 N 
HETATM    3  O   UNL     1      44.713 -28.085  -0.910  1.00  0.00    -0.267 OA
HETATM    4  H   UNL     1      43.390 -30.910  -0.228  1.00  0.00     0.171 HD
ENDROOT
BRANCH   2   5
HETATM    5  C   UNL     1      43.501 -29.694   1.354  1.00  0.00     0.180 C 
HETATM    6  S   UNL     1      42.364 -30.355   2.386  1.00  0.00    -0.040 SA
BRANCH   5   7
HETATM    7  N   UNL     1      44.366 -28.778   1.903  1.00  0.00    -0.318 N 
HETATM    8  H   UNL     1      43.990 -27.839   1.942  1.00  0.00     0.170 HD
BRANCH   7   9
HETATM    9  C   UNL     1      45.656 -28.975   2.412  1.00  0.00     0.129 A 
HETATM   10  N   UNL     1      46.658 -28.149   2.034  1.00  0.00    -0.243 NA
HETATM   11  C   UNL     1      47.889 -28.392   2.544  1.00  0.00     0.125 A 
HETATM   12  C   UNL     1      48.180 -29.421   3.429  1.00  0.00    -0.044 A 
HETATM   13  C   UNL     1      49.569 -29.658   3.928  1.00  0.00     0.049 C 
HETATM   14  C   UNL     1      47.129 -30.260   3.799  1.00  0.00     0.012 A 
HETATM   15  C   UNL     1      45.852 -30.034   3.289  1.00  0.00     0.051 A 
ENDBRANCH   7   9
ENDBRANCH   5   7
ENDBRANCH   2   5
BRANCH   1  16
HETATM   16  C   UNL     1      44.229 -29.861  -2.353  1.00  0.00     0.032 A 
HETATM   17  C   UNL     1      44.214 -31.254  -2.498  1.00  0.00     0.017 A 
HETATM   18  C   UNL     1      44.254 -31.825  -3.774  1.00  0.00     0.007 A 
HETATM   19  C   UNL     1      44.309 -31.015  -4.915  1.00  0.00    -0.062 A 
HETATM   20  C   UNL     1      44.332 -31.622  -6.287  1.00  0.00     0.048 C 
HETATM   21  C   UNL     1      44.283 -29.623  -4.766  1.00  0.00     0.007 A 
HETATM   22  C   UNL     1      44.242 -29.049  -3.494  1.00  0.00     0.017 A 
ENDBRANCH   1  16
TORSDOF 4
ENDMDL
MODEL 9
REMARK VINA RESULT:      -6.8      2.729      4.061
REMARK  4 active torsions:
REMARK  status: ('A' for Active; 'I' for Inactive)
REMARK    1  A    between atoms: C_5  and  C_6 
REMARK       I    between atoms: C_6  and  N_7 
REMARK    2  A    between atoms: N_7  and  C_8 
REMARK    3  A    between atoms: C_8  and  N_9 
REMARK    4  A    between atoms: N_9  and  C_10 
ROOT
HETATM    1  C   UNL     1      43.009 -15.132   4.088  1.00  0.00     0.257 C 
HETATM    2  N   UNL     1      43.066 -14.892   5.458  1.00  0.00    -0.299 N 
HETATM    3  O   UNL     1      42.847 -14.293   3.210  1.00  0.00    -0.267 OA
HETATM    4  H   UNL     1      43.305 -15.685   6.047  1.00  0.00     0.171 HD
ENDROOT
BRANCH   2   5
HETATM    5  C   UNL     1      42.925 -13.728   6.186  1.00  0.00     0.180 C 
HETATM    6  S   UNL     1      44.142 -12.767   6.809  1.00  0.00    -0.040 SA
BRANCH   5   7
HETATM    7  N   UNL     1      41.636 -13.315   6.424  1.00  0.00    -0.318 N 
HETATM    8  H   UNL     1      41.251 -13.669   7.292  1.00  0.00     0.170 HD
BRANCH   7   9
HETATM    9  C   UNL     1      40.817 -12.481   5.652  1.00  0.00     0.129 A 
HETATM   10  N   UNL     1      40.086 -13.008   4.643  1.00  0.00    -0.243 NA
HETATM   11  C   UNL     1      39.323 -12.155   3.919  1.00  0.00     0.125 A 
HETATM   12  C   UNL     1      39.240 -10.789   4.151  1.00  0.00    -0.044 A 
HETATM   13  C   UNL     1      38.406  -9.896   3.290  1.00  0.00     0.049 C 
HETATM   14  C   UNL     1      40.007 -10.272   5.195  1.00  0.00     0.012 A 
HETATM   15  C   UNL     1      40.802 -11.126   5.957  1.00  0.00     0.051 A 
ENDBRANCH   7   9
ENDBRANCH   5   7
ENDBRANCH   2   5
BRANCH   1  16
HETATM   16  C   UNL     1      43.226 -16.551   3.688  1.00  0.00     0.032 A 
HETATM   17  C   UNL     1      42.755 -17.067   2.474  1.00  0.00     0.017 A 
HETATM   18  C   UNL     1      42.963 -18.413   2.158  1.00  0.00     0.007 A 
HETATM   19  C   UNL     1      43.639 -19.257   3.048  1.00  0.00    -0.062 A 
HETATM   20  C   UNL     1      43.882 -20.697   2.705  1.00  0.00     0.048 C 
HETATM   21  C   UNL     1      44.143 -18.727   4.242  1.00  0.00     0.007 A 
HETATM   22  C   UNL     1      43.939 -17.383   4.559  1.00  0.00     0.017 A 
ENDBRANCH   1  16
TORSDOF 4
ENDMDL
MODEL 10
REMARK VINA RESULT:      -6.7     15.352     17.106
REMARK  4 active torsions:
REMARK  status: ('A' for Active; 'I' for Inactive)
REMARK    1  A    between atoms: C_5  and  C_6 
REMARK       I    between atoms: C_6  and  N_7 
REMARK    2  A    between atoms: N_7  and  C_8 
REMARK    3  A    between atoms: C_8  and  N_9 
REMARK    4  A    between atoms: N_9  and  C_10 
ROOT
HETATM    1  C   UNL     1      46.651 -28.858   2.245  1.00  0.00     0.257 C 
HETATM    2  N   UNL     1      45.471 -29.567   2.035  1.00  0.00    -0.299 N 
HETATM    3  O   UNL     1      46.880 -27.708   1.890  1.00  0.00    -0.267 OA
HETATM    4  H   UNL     1      45.405 -30.479   2.480  1.00  0.00     0.171 HD
ENDROOT
BRANCH   2   5
HETATM    5  C   UNL     1      44.308 -29.226   1.375  1.00  0.00     0.180 C 
HETATM    6  S   UNL     1      42.741 -29.603   1.818  1.00  0.00    -0.040 SA
BRANCH   5   7
HETATM    7  N   UNL     1      44.459 -28.493   0.222  1.00  0.00    -0.318 N 
HETATM    8  H   UNL     1      44.548 -27.497   0.385  1.00  0.00     0.170 HD
BRANCH   7   9
HETATM    9  C   UNL     1      44.519 -28.934  -1.106  1.00  0.00     0.129 A 
HETATM   10  N   UNL     1      44.048 -30.161  -1.426  1.00  0.00    -0.243 NA
HETATM   11  C   UNL     1      44.143 -30.544  -2.721  1.00  0.00     0.125 A 
HETATM   12  C   UNL     1      44.681 -29.759  -3.732  1.00  0.00    -0.044 A 
HETATM   13  C   UNL     1      44.791 -30.255  -5.137  1.00  0.00     0.049 C 
HETATM   14  C   UNL     1      45.162 -28.500  -3.374  1.00  0.00     0.012 A 
HETATM   15  C   UNL     1      45.078 -28.079  -2.048  1.00  0.00     0.051 A 
ENDBRANCH   7   9
ENDBRANCH   5   7
ENDBRANCH   2   5
BRANCH   1  16
HETATM   16  C   UNL     1      47.689 -29.584   3.030  1.00  0.00     0.032 A 
HETATM   17  C   UNL     1      47.478 -30.871   3.541  1.00  0.00     0.017 A 
HETATM   18  C   UNL     1      48.476 -31.497   4.294  1.00  0.00     0.007 A 
HETATM   19  C   UNL     1      49.691 -30.848   4.546  1.00  0.00    -0.062 A 
HETATM   20  C   UNL     1      50.772 -31.524   5.336  1.00  0.00     0.048 C 
HETATM   21  C   UNL     1      49.913 -29.578   3.999  1.00  0.00     0.007 A 
HETATM   22  C   UNL     1      48.919 -28.951   3.245  1.00  0.00     0.017 A 
ENDBRANCH   1  16
TORSDOF 4
ENDMDL
