MODEL 1
REMARK VINA RESULT:      -9.0      0.000      0.000
REMARK  6 active torsions:
REMARK  status: ('A' for Active; 'I' for Inactive)
REMARK    1  A    between atoms: C_5  and  N_6 
REMARK    2  A    between atoms: N_6  and  C_7 
REMARK    3  A    between atoms: C_7  and  N_8 
REMARK    4  A    between atoms: C_11  and  C_12 
REMARK    5  A    between atoms: N_14  and  C_15 
REMARK    6  A    between atoms: C_21  and  O_22 
ROOT
HETATM    1  N   UNL     1      43.361 -10.796   6.560  1.00  0.00    -0.358 N 
HETATM    2  C   UNL     1      41.916 -10.979   6.353  1.00  0.00     0.126 C 
HETATM    3  C   UNL     1      41.536 -10.940   4.875  1.00  0.00     0.031 C 
HETATM    4  C   UNL     1      42.385 -11.898   4.019  1.00  0.00     0.043 C 
HETATM    5  C   UNL     1      43.874 -11.637   4.305  1.00  0.00     0.031 C 
HETATM    6  C   UNL     1      44.189 -11.731   5.795  1.00  0.00     0.126 C 
ENDROOT
BRANCH   4   7
HETATM    7  C   UNL     1      42.019 -13.358   4.157  1.00  0.00     0.063 C 
HETATM    8  N   UNL     1      42.912 -14.329   3.941  1.00  0.00    -0.169 NA
HETATM    9  N   UNL     1      42.224 -15.494   4.105  1.00  0.00    -0.211 N 
HETATM   10  C   UNL     1      40.953 -15.251   4.626  1.00  0.00     0.165 C 
HETATM   11  C   UNL     1      40.784 -13.889   4.592  1.00  0.00     0.087 C 
BRANCH   9  12
HETATM   12  C   UNL     1      42.831 -16.736   3.762  1.00  0.00     0.061 A 
HETATM   13  C   UNL     1      42.470 -17.366   2.561  1.00  0.00     0.031 A 
HETATM   14  C   UNL     1      43.065 -18.574   2.195  1.00  0.00     0.002 A 
HETATM   15  C   UNL     1      44.006 -19.172   3.031  1.00  0.00     0.000 A 
HETATM   16  C   UNL     1      44.343 -18.570   4.243  1.00  0.00     0.002 A 
HETATM   17  C   UNL     1      43.756 -17.357   4.612  1.00  0.00     0.031 A 
ENDBRANCH   9  12
BRANCH  10  18
HETATM   18  O   UNL     1      40.115 -16.171   5.103  1.00  0.00    -0.345 OA
HETATM   19  H   UNL     1      40.514 -17.051   4.974  1.00  0.00     0.219 HD
ENDBRANCH  10  18
ENDBRANCH   4   7
BRANCH   1  20
HETATM   20  C   UNL     1      43.771 -10.356   7.811  1.00  0.00     0.174 C 
HETATM   21  S   UNL     1      45.371 -10.203   8.303  1.00  0.00    -0.041 SA
BRANCH  20  22
HETATM   22  N   UNL     1      42.814 -10.078   8.750  1.00  0.00    -0.333 N 
HETATM   23  H   UNL     1      41.934 -10.545   8.563  1.00  0.00     0.168 HD
BRANCH  22  24
HETATM   24  C   UNL     1      42.917  -9.481  10.025  1.00  0.00     0.034 A 
HETATM   25  C   UNL     1      43.022 -10.198  11.217  1.00  0.00     0.030 A 
HETATM   26  C   UNL     1      43.099  -9.534  12.446  1.00  0.00     0.009 A 
HETATM   27  C   UNL     1      43.041  -8.139  12.504  1.00  0.00    -0.062 A 
HETATM   28  C   UNL     1      43.156  -7.421  13.816  1.00  0.00     0.048 C 
HETATM   29  C   UNL     1      42.916  -7.418  11.313  1.00  0.00     0.009 A 
HETATM   30  C   UNL     1      42.843  -8.085  10.086  1.00  0.00     0.030 A 
ENDBRANCH  22  24
ENDBRANCH  20  22
ENDBRANCH   1  20
TORSDOF 6
ENDMDL
MODEL 2
REMARK VINA RESULT:      -8.9      4.928      8.506
REMARK  6 active torsions:
REMARK  status: ('A' for Active; 'I' for Inactive)
REMARK    1  A    between atoms: C_5  and  N_6 
REMARK    2  A    between atoms: N_6  and  C_7 
REMARK    3  A    between atoms: C_7  and  N_8 
REMARK    4  A    between atoms: C_11  and  C_12 
REMARK    5  A    between atoms: N_14  and  C_15 
REMARK    6  A    between atoms: C_21  and  O_22 
ROOT
HETATM    1  N   UNL     1      41.565 -13.712   4.810  1.00  0.00    -0.358 N 
HETATM    2  C   UNL     1      40.209 -13.780   4.244  1.00  0.00     0.126 C 
HETATM    3  C   UNL     1      39.540 -12.408   4.187  1.00  0.00     0.031 C 
HETATM    4  C   UNL     1      40.418 -11.348   3.500  1.00  0.00     0.043 C 
HETATM    5  C   UNL     1      41.812 -11.354   4.152  1.00  0.00     0.031 C 
HETATM    6  C   UNL     1      42.437 -12.746   4.138  1.00  0.00     0.126 C 
ENDROOT
BRANCH   4   7
HETATM    7  C   UNL     1      40.487 -11.465   1.994  1.00  0.00     0.063 C 
HETATM    8  N   UNL     1      39.553 -12.121   1.298  1.00  0.00    -0.169 NA
HETATM    9  N   UNL     1      39.965 -12.064   0.000  1.00  0.00    -0.211 N 
HETATM   10  C   UNL     1      41.048 -11.197  -0.139  1.00  0.00     0.165 C 
HETATM   11  C   UNL     1      41.437 -10.868   1.136  1.00  0.00     0.087 C 
BRANCH   9  12
HETATM   12  C   UNL     1      39.294 -12.830  -0.997  1.00  0.00     0.061 A 
HETATM   13  C   UNL     1      38.151 -12.299  -1.613  1.00  0.00     0.031 A 
HETATM   14  C   UNL     1      37.489 -13.023  -2.607  1.00  0.00     0.002 A 
HETATM   15  C   UNL     1      37.949 -14.285  -2.976  1.00  0.00     0.000 A 
HETATM   16  C   UNL     1      39.063 -14.834  -2.343  1.00  0.00     0.002 A 
HETATM   17  C   UNL     1      39.735 -14.112  -1.352  1.00  0.00     0.031 A 
ENDBRANCH   9  12
BRANCH  10  18
HETATM   18  O   UNL     1      41.549 -10.751  -1.291  1.00  0.00    -0.345 OA
HETATM   19  H   UNL     1      40.985 -11.070  -2.019  1.00  0.00     0.219 HD
ENDBRANCH  10  18
ENDBRANCH   4   7
BRANCH   1  20
HETATM   20  C   UNL     1      42.091 -14.884   5.337  1.00  0.00     0.174 C 
HETATM   21  S   UNL     1      41.550 -15.639   6.739  1.00  0.00    -0.041 SA
BRANCH  20  22
HETATM   22  N   UNL     1      43.171 -15.451   4.717  1.00  0.00    -0.333 N 
HETATM   23  H   UNL     1      44.039 -14.968   4.921  1.00  0.00     0.168 HD
BRANCH  22  24
HETATM   24  C   UNL     1      43.317 -16.698   4.072  1.00  0.00     0.034 A 
HETATM   25  C   UNL     1      44.162 -17.714   4.518  1.00  0.00     0.030 A 
HETATM   26  C   UNL     1      44.268 -18.917   3.812  1.00  0.00     0.009 A 
HETATM   27  C   UNL     1      43.552 -19.111   2.628  1.00  0.00    -0.062 A 
HETATM   28  C   UNL     1      43.637 -20.411   1.885  1.00  0.00     0.048 C 
HETATM   29  C   UNL     1      42.719 -18.088   2.168  1.00  0.00     0.009 A 
HETATM   30  C   UNL     1      42.612 -16.888   2.878  1.00  0.00     0.030 A 
ENDBRANCH  22  24
ENDBRANCH  20  22
ENDBRANCH   1  20
TORSDOF 6
ENDMDL
MODEL 3
REMARK VINA RESULT:      -8.8      2.472      9.637
REMARK  6 active torsions:
REMARK  status: ('A' for Active; 'I' for Inactive)
REMARK    1  A    between atoms: C_5  and  N_6 
REMARK    2  A    between atoms: N_6  and  C_7 
REMARK    3  A    between atoms: C_7  and  N_8 
REMARK    4  A    between atoms: C_11  and  C_12 
REMARK    5  A    between atoms: N_14  and  C_15 
REMARK    6  A    between atoms: C_21  and  O_22 
ROOT
HETATM    1  N   UNL     1      42.976 -13.704   5.875  1.00  0.00    -0.358 N 
HETATM    2  C   UNL     1      43.857 -13.196   6.938  1.00  0.00     0.126 C 
HETATM    3  C   UNL     1      44.507 -11.866   6.560  1.00  0.00     0.031 C 
HETATM    4  C   UNL     1      43.483 -10.819   6.087  1.00  0.00     0.043 C 
HETATM    5  C   UNL     1      42.607 -11.440   4.985  1.00  0.00     0.031 C 
HETATM    6  C   UNL     1      41.958 -12.743   5.444  1.00  0.00     0.126 C 
ENDROOT
BRANCH   4   7
HETATM    7  C   UNL     1      42.662 -10.196   7.192  1.00  0.00     0.063 C 
HETATM    8  N   UNL     1      43.182  -9.949   8.399  1.00  0.00    -0.169 NA
HETATM    9  N   UNL     1      42.154  -9.443   9.137  1.00  0.00    -0.211 N 
HETATM   10  C   UNL     1      41.046  -9.182   8.331  1.00  0.00     0.165 C 
HETATM   11  C   UNL     1      41.332  -9.729   7.105  1.00  0.00     0.087 C 
BRANCH   9  12
HETATM   12  C   UNL     1      42.311  -9.244  10.539  1.00  0.00     0.061 A 
HETATM   13  C   UNL     1      41.398  -9.840  11.422  1.00  0.00     0.031 A 
HETATM   14  C   UNL     1      41.543  -9.674  12.800  1.00  0.00     0.002 A 
HETATM   15  C   UNL     1      42.584  -8.899  13.305  1.00  0.00     0.000 A 
HETATM   16  C   UNL     1      43.474  -8.273  12.433  1.00  0.00     0.002 A 
HETATM   17  C   UNL     1      43.339  -8.441  11.052  1.00  0.00     0.031 A 
ENDBRANCH   9  12
BRANCH  10  18
HETATM   18  O   UNL     1      39.963  -8.492   8.691  1.00  0.00    -0.345 OA
HETATM   19  H   UNL     1      39.834  -8.596   9.651  1.00  0.00     0.219 HD
ENDBRANCH  10  18
ENDBRANCH   4   7
BRANCH   1  20
HETATM   20  C   UNL     1      42.700 -15.064   5.877  1.00  0.00     0.174 C 
HETATM   21  S   UNL     1      41.273 -15.759   6.431  1.00  0.00    -0.041 SA
BRANCH  20  22
HETATM   22  N   UNL     1      43.676 -15.928   5.457  1.00  0.00    -0.333 N 
HETATM   23  H   UNL     1      44.493 -15.918   6.058  1.00  0.00     0.168 HD
BRANCH  22  24
HETATM   24  C   UNL     1      43.638 -16.977   4.513  1.00  0.00     0.034 A 
HETATM   25  C   UNL     1      43.072 -16.865   3.243  1.00  0.00     0.030 A 
HETATM   26  C   UNL     1      43.055 -17.957   2.369  1.00  0.00     0.009 A 
HETATM   27  C   UNL     1      43.579 -19.191   2.765  1.00  0.00    -0.062 A 
HETATM   28  C   UNL     1      43.592 -20.356   1.821  1.00  0.00     0.048 C 
HETATM   29  C   UNL     1      44.129 -19.312   4.044  1.00  0.00     0.009 A 
HETATM   30  C   UNL     1      44.148 -18.216   4.914  1.00  0.00     0.030 A 
ENDBRANCH  22  24
ENDBRANCH  20  22
ENDBRANCH   1  20
TORSDOF 6
ENDMDL
MODEL 4
REMARK VINA RESULT:      -8.6      4.804      8.476
REMARK  6 active torsions:
REMARK  status: ('A' for Active; 'I' for Inactive)
REMARK    1  A    between atoms: C_5  and  N_6 
REMARK    2  A    between atoms: N_6  and  C_7 
REMARK    3  A    between atoms: C_7  and  N_8 
REMARK    4  A    between atoms: C_11  and  C_12 
REMARK    5  A    between atoms: N_14  and  C_15 
REMARK    6  A    between atoms: C_21  and  O_22 
ROOT
HETATM    1  N   UNL     1      42.273 -14.407   5.522  1.00  0.00    -0.358 N 
HETATM    2  C   UNL     1      40.839 -14.689   5.363  1.00  0.00     0.126 C 
HETATM    3  C   UNL     1      40.015 -13.412   5.205  1.00  0.00     0.031 C 
HETATM    4  C   UNL     1      40.564 -12.485   4.106  1.00  0.00     0.043 C 
HETATM    5  C   UNL     1      42.065 -12.252   4.351  1.00  0.00     0.031 C 
HETATM    6  C   UNL     1      42.831 -13.568   4.458  1.00  0.00     0.126 C 
ENDROOT
BRANCH   4   7
HETATM    7  C   UNL     1      40.275 -12.941   2.695  1.00  0.00     0.063 C 
HETATM    8  N   UNL     1      40.427 -12.124   1.647  1.00  0.00    -0.169 NA
HETATM    9  N   UNL     1      40.032 -12.849   0.564  1.00  0.00    -0.211 N 
HETATM   10  C   UNL     1      39.829 -14.186   0.908  1.00  0.00     0.165 C 
HETATM   11  C   UNL     1      39.908 -14.240   2.278  1.00  0.00     0.087 C 
BRANCH   9  12
HETATM   12  C   UNL     1      39.887 -12.218  -0.705  1.00  0.00     0.061 A 
HETATM   13  C   UNL     1      38.600 -12.002  -1.219  1.00  0.00     0.031 A 
HETATM   14  C   UNL     1      38.433 -11.368  -2.452  1.00  0.00     0.002 A 
HETATM   15  C   UNL     1      39.545 -10.965  -3.187  1.00  0.00     0.000 A 
HETATM   16  C   UNL     1      40.828 -11.209  -2.699  1.00  0.00     0.002 A 
HETATM   17  C   UNL     1      41.003 -11.837  -1.463  1.00  0.00     0.031 A 
ENDBRANCH   9  12
BRANCH  10  18
HETATM   18  O   UNL     1      39.651 -15.195   0.055  1.00  0.00    -0.345 OA
HETATM   19  H   UNL     1      40.295 -15.896   0.264  1.00  0.00     0.219 HD
ENDBRANCH  10  18
ENDBRANCH   4   7
BRANCH   1  20
HETATM   20  C   UNL     1      43.050 -15.390   6.120  1.00  0.00     0.174 C 
HETATM   21  S   UNL     1      43.007 -15.793   7.752  1.00  0.00    -0.041 SA
BRANCH  20  22
HETATM   22  N   UNL     1      43.969 -16.052   5.352  1.00  0.00    -0.333 N 
HETATM   23  H   UNL     1      44.925 -15.802   5.582  1.00  0.00     0.168 HD
BRANCH  22  24
HETATM   24  C   UNL     1      43.830 -17.170   4.502  1.00  0.00     0.034 A 
HETATM   25  C   UNL     1      44.254 -18.458   4.830  1.00  0.00     0.030 A 
HETATM   26  C   UNL     1      44.100 -19.514   3.925  1.00  0.00     0.009 A 
HETATM   27  C   UNL     1      43.546 -19.290   2.661  1.00  0.00    -0.062 A 
HETATM   28  C   UNL     1      43.349 -20.424   1.700  1.00  0.00     0.048 C 
HETATM   29  C   UNL     1      43.138 -17.997   2.322  1.00  0.00     0.009 A 
HETATM   30  C   UNL     1      43.290 -16.945   3.231  1.00  0.00     0.030 A 
ENDBRANCH  22  24
ENDBRANCH  20  22
ENDBRANCH   1  20
TORSDOF 6
ENDMDL
MODEL 5
REMARK VINA RESULT:      -8.6      2.567      9.892
REMARK  6 active torsions:
REMARK  status: ('A' for Active; 'I' for Inactive)
REMARK    1  A    between atoms: C_5  and  N_6 
REMARK    2  A    between atoms: N_6  and  C_7 
REMARK    3  A    between atoms: C_7  and  N_8 
REMARK    4  A    between atoms: C_11  and  C_12 
REMARK    5  A    between atoms: N_14  and  C_15 
REMARK    6  A    between atoms: C_21  and  O_22 
ROOT
HETATM    1  N   UNL     1      42.771 -11.154   6.352  1.00  0.00    -0.358 N 
HETATM    2  C   UNL     1      44.022 -11.562   7.010  1.00  0.00     0.126 C 
HETATM    3  C   UNL     1      44.882 -10.363   7.404  1.00  0.00     0.031 C 
HETATM    4  C   UNL     1      44.100  -9.313   8.213  1.00  0.00     0.043 C 
HETATM    5  C   UNL     1      42.811  -8.954   7.453  1.00  0.00     0.031 C 
HETATM    6  C   UNL     1      41.983 -10.193   7.127  1.00  0.00     0.126 C 
ENDROOT
BRANCH   4   7
HETATM    7  C   UNL     1      43.833  -9.696   9.651  1.00  0.00     0.063 C 
HETATM    8  N   UNL     1      43.162  -8.889  10.479  1.00  0.00    -0.169 NA
HETATM    9  N   UNL     1      43.159  -9.529  11.682  1.00  0.00    -0.211 N 
HETATM   10  C   UNL     1      43.648 -10.829  11.553  1.00  0.00     0.165 C 
HETATM   11  C   UNL     1      44.151 -10.920  10.279  1.00  0.00     0.087 C 
BRANCH   9  12
HETATM   12  C   UNL     1      42.687  -8.859  12.847  1.00  0.00     0.061 A 
HETATM   13  C   UNL     1      43.393  -7.748  13.331  1.00  0.00     0.031 A 
HETATM   14  C   UNL     1      42.939  -7.064  14.460  1.00  0.00     0.002 A 
HETATM   15  C   UNL     1      41.793  -7.495  15.124  1.00  0.00     0.000 A 
HETATM   16  C   UNL     1      41.106  -8.620  14.671  1.00  0.00     0.002 A 
HETATM   17  C   UNL     1      41.552  -9.305  13.537  1.00  0.00     0.031 A 
ENDBRANCH   9  12
BRANCH  10  18
HETATM   18  O   UNL     1      43.580 -11.785  12.480  1.00  0.00    -0.345 OA
HETATM   19  H   UNL     1      43.295 -11.383  13.320  1.00  0.00     0.219 HD
ENDBRANCH  10  18
ENDBRANCH   4   7
BRANCH   1  20
HETATM   20  C   UNL     1      42.139 -12.097   5.552  1.00  0.00     0.174 C 
HETATM   21  S   UNL     1      40.582 -12.681   5.796  1.00  0.00    -0.041 SA
BRANCH  20  22
HETATM   22  N   UNL     1      42.844 -12.651   4.517  1.00  0.00    -0.333 N 
HETATM   23  H   UNL     1      43.540 -12.020   4.135  1.00  0.00     0.168 HD
BRANCH  22  24
HETATM   24  C   UNL     1      42.939 -13.988   4.075  1.00  0.00     0.034 A 
HETATM   25  C   UNL     1      43.070 -15.085   4.926  1.00  0.00     0.030 A 
HETATM   26  C   UNL     1      43.179 -16.381   4.411  1.00  0.00     0.009 A 
HETATM   27  C   UNL     1      43.190 -16.597   3.030  1.00  0.00    -0.062 A 
HETATM   28  C   UNL     1      43.274 -17.987   2.473  1.00  0.00     0.048 C 
HETATM   29  C   UNL     1      43.078 -15.498   2.174  1.00  0.00     0.009 A 
HETATM   30  C   UNL     1      42.964 -14.204   2.693  1.00  0.00     0.030 A 
ENDBRANCH  22  24
ENDBRANCH  20  22
ENDBRANCH   1  20
TORSDOF 6
ENDMDL
MODEL 6
REMARK VINA RESULT:      -8.4      2.606      9.127
REMARK  6 active torsions:
REMARK  status: ('A' for Active; 'I' for Inactive)
REMARK    1  A    between atoms: C_5  and  N_6 
REMARK    2  A    between atoms: N_6  and  C_7 
REMARK    3  A    between atoms: C_7  and  N_8 
REMARK    4  A    between atoms: C_11  and  C_12 
REMARK    5  A    between atoms: N_14  and  C_15 
REMARK    6  A    between atoms: C_21  and  O_22 
ROOT
HETATM    1  N   UNL     1      41.886 -13.607   3.407  1.00  0.00    -0.358 N 
HETATM    2  C   UNL     1      43.088 -12.825   3.080  1.00  0.00     0.126 C 
HETATM    3  C   UNL     1      42.815 -11.322   3.081  1.00  0.00     0.031 C 
HETATM    4  C   UNL     1      42.129 -10.845   4.374  1.00  0.00     0.043 C 
HETATM    5  C   UNL     1      40.892 -11.721   4.636  1.00  0.00     0.031 C 
HETATM    6  C   UNL     1      41.244 -13.206   4.661  1.00  0.00     0.126 C 
ENDROOT
BRANCH   4   7
HETATM    7  C   UNL     1      43.041 -10.762   5.577  1.00  0.00     0.063 C 
HETATM    8  N   UNL     1      42.607 -10.305   6.756  1.00  0.00    -0.169 NA
HETATM    9  N   UNL     1      43.697 -10.326   7.574  1.00  0.00    -0.211 N 
HETATM   10  C   UNL     1      44.762 -10.990   6.964  1.00  0.00     0.165 C 
HETATM   11  C   UNL     1      44.379 -11.206   5.663  1.00  0.00     0.087 C 
BRANCH   9  12
HETATM   12  C   UNL     1      43.635  -9.723   8.862  1.00  0.00     0.061 A 
HETATM   13  C   UNL     1      43.335  -8.356   8.965  1.00  0.00     0.031 A 
HETATM   14  C   UNL     1      43.250  -7.748  10.219  1.00  0.00     0.002 A 
HETATM   15  C   UNL     1      43.484  -8.491  11.374  1.00  0.00     0.000 A 
HETATM   16  C   UNL     1      43.818  -9.841  11.278  1.00  0.00     0.002 A 
HETATM   17  C   UNL     1      43.898 -10.458  10.026  1.00  0.00     0.031 A 
ENDBRANCH   9  12
BRANCH  10  18
HETATM   18  O   UNL     1      45.889 -11.373   7.564  1.00  0.00    -0.345 OA
HETATM   19  H   UNL     1      46.009 -12.329   7.418  1.00  0.00     0.219 HD
ENDBRANCH  10  18
ENDBRANCH   4   7
BRANCH   1  20
HETATM   20  C   UNL     1      41.864 -14.934   3.000  1.00  0.00     0.174 C 
HETATM   21  S   UNL     1      40.487 -15.777   2.530  1.00  0.00    -0.041 SA
BRANCH  20  22
HETATM   22  N   UNL     1      43.033 -15.646   3.035  1.00  0.00    -0.333 N 
HETATM   23  H   UNL     1      43.833 -15.100   2.735  1.00  0.00     0.168 HD
BRANCH  22  24
HETATM   24  C   UNL     1      43.343 -16.885   3.637  1.00  0.00     0.034 A 
HETATM   25  C   UNL     1      43.447 -17.080   5.014  1.00  0.00     0.030 A 
HETATM   26  C   UNL     1      43.779 -18.334   5.535  1.00  0.00     0.009 A 
HETATM   27  C   UNL     1      44.042 -19.410   4.683  1.00  0.00    -0.062 A 
HETATM   28  C   UNL     1      44.367 -20.765   5.237  1.00  0.00     0.048 C 
HETATM   29  C   UNL     1      43.957 -19.214   3.301  1.00  0.00     0.009 A 
HETATM   30  C   UNL     1      43.621 -17.958   2.784  1.00  0.00     0.030 A 
ENDBRANCH  22  24
ENDBRANCH  20  22
ENDBRANCH   1  20
TORSDOF 6
ENDMDL
MODEL 7
REMARK VINA RESULT:      -8.1      2.769      9.149
REMARK  6 active torsions:
REMARK  status: ('A' for Active; 'I' for Inactive)
REMARK    1  A    between atoms: C_5  and  N_6 
REMARK    2  A    between atoms: N_6  and  C_7 
REMARK    3  A    between atoms: C_7  and  N_8 
REMARK    4  A    between atoms: C_11  and  C_12 
REMARK    5  A    between atoms: N_14  and  C_15 
REMARK    6  A    between atoms: C_21  and  O_22 
ROOT
HETATM    1  N   UNL     1      41.229 -13.681   5.102  1.00  0.00    -0.358 N 
HETATM    2  C   UNL     1      42.341 -12.778   4.771  1.00  0.00     0.126 C 
HETATM    3  C   UNL     1      41.867 -11.523   4.041  1.00  0.00     0.031 C 
HETATM    4  C   UNL     1      40.719 -10.807   4.776  1.00  0.00     0.043 C 
HETATM    5  C   UNL     1      39.609 -11.828   5.083  1.00  0.00     0.031 C 
HETATM    6  C   UNL     1      40.146 -13.035   5.847  1.00  0.00     0.126 C 
ENDROOT
BRANCH   4   7
HETATM    7  C   UNL     1      41.143 -10.032   6.002  1.00  0.00     0.063 C 
HETATM    8  N   UNL     1      42.321 -10.246   6.597  1.00  0.00    -0.169 NA
HETATM    9  N   UNL     1      42.335  -9.418   7.679  1.00  0.00    -0.211 N 
HETATM   10  C   UNL     1      41.253  -8.538   7.644  1.00  0.00     0.165 C 
HETATM   11  C   UNL     1      40.446  -8.970   6.621  1.00  0.00     0.087 C 
BRANCH   9  12
HETATM   12  C   UNL     1      43.373  -9.526   8.648  1.00  0.00     0.061 A 
HETATM   13  C   UNL     1      44.695  -9.250   8.269  1.00  0.00     0.031 A 
HETATM   14  C   UNL     1      45.726  -9.330   9.208  1.00  0.00     0.002 A 
HETATM   15  C   UNL     1      45.449  -9.705  10.520  1.00  0.00     0.000 A 
HETATM   16  C   UNL     1      44.143 -10.015  10.896  1.00  0.00     0.002 A 
HETATM   17  C   UNL     1      43.105  -9.930   9.963  1.00  0.00     0.031 A 
ENDBRANCH   9  12
BRANCH  10  18
HETATM   18  O   UNL     1      41.090  -7.469   8.424  1.00  0.00    -0.345 OA
HETATM   19  H   UNL     1      41.402  -6.682   7.942  1.00  0.00     0.219 HD
ENDBRANCH  10  18
ENDBRANCH   4   7
BRANCH   1  20
HETATM   20  C   UNL     1      41.542 -15.014   5.332  1.00  0.00     0.174 C 
HETATM   21  S   UNL     1      40.620 -16.076   6.253  1.00  0.00    -0.041 SA
BRANCH  20  22
HETATM   22  N   UNL     1      42.717 -15.503   4.829  1.00  0.00    -0.333 N 
HETATM   23  H   UNL     1      43.532 -15.045   5.222  1.00  0.00     0.168 HD
BRANCH  22  24
HETATM   24  C   UNL     1      42.988 -16.667   4.077  1.00  0.00     0.034 A 
HETATM   25  C   UNL     1      42.351 -16.988   2.878  1.00  0.00     0.030 A 
HETATM   26  C   UNL     1      42.659 -18.171   2.199  1.00  0.00     0.009 A 
HETATM   27  C   UNL     1      43.591 -19.070   2.727  1.00  0.00    -0.062 A 
HETATM   28  C   UNL     1      43.949 -20.324   1.987  1.00  0.00     0.048 C 
HETATM   29  C   UNL     1      44.217 -18.760   3.937  1.00  0.00     0.009 A 
HETATM   30  C   UNL     1      43.909 -17.574   4.611  1.00  0.00     0.030 A 
ENDBRANCH  22  24
ENDBRANCH  20  22
ENDBRANCH   1  20
TORSDOF 6
ENDMDL
MODEL 8
REMARK VINA RESULT:      -7.8      3.824      7.422
REMARK  6 active torsions:
REMARK  status: ('A' for Active; 'I' for Inactive)
REMARK    1  A    between atoms: C_5  and  N_6 
REMARK    2  A    between atoms: N_6  and  C_7 
REMARK    3  A    between atoms: C_7  and  N_8 
REMARK    4  A    between atoms: C_11  and  C_12 
REMARK    5  A    between atoms: N_14  and  C_15 
REMARK    6  A    between atoms: C_21  and  O_22 
ROOT
HETATM    1  N   UNL     1      41.070 -14.795   1.291  1.00  0.00    -0.358 N 
HETATM    2  C   UNL     1      40.626 -15.766   2.304  1.00  0.00     0.126 C 
HETATM    3  C   UNL     1      41.699 -16.810   2.609  1.00  0.00     0.031 C 
HETATM    4  C   UNL     1      43.061 -16.177   2.948  1.00  0.00     0.043 C 
HETATM    5  C   UNL     1      43.437 -15.177   1.841  1.00  0.00     0.031 C 
HETATM    6  C   UNL     1      42.339 -14.142   1.617  1.00  0.00     0.126 C 
ENDROOT
BRANCH   4   7
HETATM    7  C   UNL     1      43.147 -15.567   4.328  1.00  0.00     0.063 C 
HETATM    8  N   UNL     1      43.108 -14.244   4.515  1.00  0.00    -0.169 NA
HETATM    9  N   UNL     1      43.260 -14.064   5.857  1.00  0.00    -0.211 N 
HETATM   10  C   UNL     1      43.188 -15.283   6.532  1.00  0.00     0.165 C 
HETATM   11  C   UNL     1      43.192 -16.254   5.562  1.00  0.00     0.087 C 
BRANCH   9  12
HETATM   12  C   UNL     1      43.454 -12.756   6.386  1.00  0.00     0.061 A 
HETATM   13  C   UNL     1      42.405 -11.827   6.316  1.00  0.00     0.031 A 
HETATM   14  C   UNL     1      42.566 -10.545   6.846  1.00  0.00     0.002 A 
HETATM   15  C   UNL     1      43.776 -10.176   7.427  1.00  0.00     0.000 A 
HETATM   16  C   UNL     1      44.835 -11.082   7.468  1.00  0.00     0.002 A 
HETATM   17  C   UNL     1      44.679 -12.369   6.946  1.00  0.00     0.031 A 
ENDBRANCH   9  12
BRANCH  10  18
HETATM   18  O   UNL     1      43.083 -15.440   7.852  1.00  0.00    -0.345 OA
HETATM   19  H   UNL     1      42.330 -16.032   8.035  1.00  0.00     0.219 HD
ENDBRANCH  10  18
ENDBRANCH   4   7
BRANCH   1  20
HETATM   20  C   UNL     1      40.082 -14.107   0.600  1.00  0.00     0.174 C 
HETATM   21  S   UNL     1      40.089 -13.815  -1.056  1.00  0.00    -0.041 SA
BRANCH  20  22
HETATM   22  N   UNL     1      39.046 -13.564   1.311  1.00  0.00    -0.333 N 
HETATM   23  H   UNL     1      38.233 -14.169   1.343  1.00  0.00     0.168 HD
BRANCH  22  24
HETATM   24  C   UNL     1      39.006 -12.459   2.188  1.00  0.00     0.034 A 
HETATM   25  C   UNL     1      39.460 -12.492   3.507  1.00  0.00     0.030 A 
HETATM   26  C   UNL     1      39.368 -11.360   4.323  1.00  0.00     0.009 A 
HETATM   27  C   UNL     1      38.791 -10.182   3.841  1.00  0.00    -0.062 A 
HETATM   28  C   UNL     1      38.719  -8.956   4.701  1.00  0.00     0.048 C 
HETATM   29  C   UNL     1      38.317 -10.151   2.526  1.00  0.00     0.009 A 
HETATM   30  C   UNL     1      38.414 -11.284   1.712  1.00  0.00     0.030 A 
ENDBRANCH  22  24
ENDBRANCH  20  22
ENDBRANCH   1  20
TORSDOF 6
ENDMDL
MODEL 9
REMARK VINA RESULT:      -7.7      3.078      4.808
REMARK  6 active torsions:
REMARK  status: ('A' for Active; 'I' for Inactive)
REMARK    1  A    between atoms: C_5  and  N_6 
REMARK    2  A    between atoms: N_6  and  C_7 
REMARK    3  A    between atoms: C_7  and  N_8 
REMARK    4  A    between atoms: C_11  and  C_12 
REMARK    5  A    between atoms: N_14  and  C_15 
REMARK    6  A    between atoms: C_21  and  O_22 
ROOT
HETATM    1  N   UNL     1      43.504  -8.424  10.063  1.00  0.00    -0.358 N 
HETATM    2  C   UNL     1      44.130  -8.084   8.776  1.00  0.00     0.126 C 
HETATM    3  C   UNL     1      45.505  -8.731   8.616  1.00  0.00     0.031 C 
HETATM    4  C   UNL     1      45.481 -10.247   8.884  1.00  0.00     0.043 C 
HETATM    5  C   UNL     1      44.805 -10.504  10.242  1.00  0.00     0.031 C 
HETATM    6  C   UNL     1      43.422  -9.864  10.317  1.00  0.00     0.126 C 
ENDROOT
BRANCH   4   7
HETATM    7  C   UNL     1      44.873 -11.073   7.773  1.00  0.00     0.063 C 
HETATM    8  N   UNL     1      43.921 -11.980   8.013  1.00  0.00    -0.169 NA
HETATM    9  N   UNL     1      43.657 -12.554   6.806  1.00  0.00    -0.211 N 
HETATM   10  C   UNL     1      44.298 -11.864   5.778  1.00  0.00     0.165 C 
HETATM   11  C   UNL     1      45.136 -10.964   6.390  1.00  0.00     0.087 C 
BRANCH   9  12
HETATM   12  C   UNL     1      42.818 -13.702   6.729  1.00  0.00     0.061 A 
HETATM   13  C   UNL     1      43.273 -14.920   7.256  1.00  0.00     0.031 A 
HETATM   14  C   UNL     1      42.459 -16.054   7.209  1.00  0.00     0.002 A 
HETATM   15  C   UNL     1      41.199 -15.986   6.618  1.00  0.00     0.000 A 
HETATM   16  C   UNL     1      40.755 -14.789   6.060  1.00  0.00     0.002 A 
HETATM   17  C   UNL     1      41.561 -13.648   6.110  1.00  0.00     0.031 A 
ENDBRANCH   9  12
BRANCH  10  18
HETATM   18  O   UNL     1      44.081 -12.028   4.472  1.00  0.00    -0.345 OA
HETATM   19  H   UNL     1      44.891 -11.782   3.990  1.00  0.00     0.219 HD
ENDBRANCH  10  18
ENDBRANCH   4   7
BRANCH   1  20
HETATM   20  C   UNL     1      42.512  -7.572  10.529  1.00  0.00     0.174 C 
HETATM   21  S   UNL     1      41.062  -7.255   9.738  1.00  0.00    -0.041 SA
BRANCH  20  22
HETATM   22  N   UNL     1      42.738  -6.880  11.688  1.00  0.00    -0.333 N 
HETATM   23  H   UNL     1      43.065  -5.934  11.522  1.00  0.00     0.168 HD
BRANCH  22  24
HETATM   24  C   UNL     1      42.364  -7.160  13.020  1.00  0.00     0.034 A 
HETATM   25  C   UNL     1      42.163  -8.447  13.520  1.00  0.00     0.030 A 
HETATM   26  C   UNL     1      41.773  -8.643  14.849  1.00  0.00     0.009 A 
HETATM   27  C   UNL     1      41.549  -7.552  15.693  1.00  0.00    -0.062 A 
HETATM   28  C   UNL     1      41.162  -7.758  17.127  1.00  0.00     0.048 C 
HETATM   29  C   UNL     1      41.732  -6.261  15.189  1.00  0.00     0.009 A 
HETATM   30  C   UNL     1      42.126  -6.068  13.861  1.00  0.00     0.030 A 
ENDBRANCH  22  24
ENDBRANCH  20  22
ENDBRANCH   1  20
TORSDOF 6
ENDMDL
MODEL 10
REMARK VINA RESULT:      -7.6     18.033     20.809
REMARK  6 active torsions:
REMARK  status: ('A' for Active; 'I' for Inactive)
REMARK    1  A    between atoms: C_5  and  N_6 
REMARK    2  A    between atoms: N_6  and  C_7 
REMARK    3  A    between atoms: C_7  and  N_8 
REMARK    4  A    between atoms: C_11  and  C_12 
REMARK    5  A    between atoms: N_14  and  C_15 
REMARK    6  A    between atoms: C_21  and  O_22 
ROOT
HETATM    1  N   UNL     1      47.800 -30.089   1.685  1.00  0.00    -0.358 N 
HETATM    2  C   UNL     1      47.071 -31.124   0.938  1.00  0.00     0.126 C 
HETATM    3  C   UNL     1      45.559 -30.912   0.985  1.00  0.00     0.031 C 
HETATM    4  C   UNL     1      45.147 -29.486   0.580  1.00  0.00     0.043 C 
HETATM    5  C   UNL     1      45.962 -28.476   1.407  1.00  0.00     0.031 C 
HETATM    6  C   UNL     1      47.463 -28.722   1.280  1.00  0.00     0.126 C 
ENDROOT
BRANCH   4   7
HETATM    7  C   UNL     1      45.220 -29.207  -0.904  1.00  0.00     0.063 C 
HETATM    8  N   UNL     1      44.962 -30.155  -1.811  1.00  0.00    -0.169 NA
HETATM    9  N   UNL     1      45.173 -29.564  -3.020  1.00  0.00    -0.211 N 
HETATM   10  C   UNL     1      45.364 -28.190  -2.875  1.00  0.00     0.165 C 
HETATM   11  C   UNL     1      45.471 -27.963  -1.525  1.00  0.00     0.087 C 
BRANCH   9  12
HETATM   12  C   UNL     1      45.171 -30.349  -4.209  1.00  0.00     0.061 A 
HETATM   13  C   UNL     1      44.102 -30.224  -5.109  1.00  0.00     0.031 A 
HETATM   14  C   UNL     1      44.088 -30.968  -6.291  1.00  0.00     0.002 A 
HETATM   15  C   UNL     1      45.125 -31.855  -6.571  1.00  0.00     0.000 A 
HETATM   16  C   UNL     1      46.172 -32.011  -5.664  1.00  0.00     0.002 A 
HETATM   17  C   UNL     1      46.196 -31.264  -4.483  1.00  0.00     0.031 A 
ENDBRANCH   9  12
BRANCH  10  18
HETATM   18  O   UNL     1      45.380 -27.295  -3.863  1.00  0.00    -0.345 OA
HETATM   19  H   UNL     1      45.870 -26.509  -3.562  1.00  0.00     0.219 HD
ENDBRANCH  10  18
ENDBRANCH   4   7
BRANCH   1  20
HETATM   20  C   UNL     1      49.085 -30.400   2.108  1.00  0.00     0.174 C 
HETATM   21  S   UNL     1      49.469 -31.134   3.570  1.00  0.00    -0.041 SA
BRANCH  20  22
HETATM   22  N   UNL     1      50.139 -30.034   1.314  1.00  0.00    -0.333 N 
HETATM   23  H   UNL     1      50.727 -29.329   1.744  1.00  0.00     0.168 HD
BRANCH  22  24
HETATM   24  C   UNL     1      50.672 -30.632   0.151  1.00  0.00     0.034 A 
HETATM   25  C   UNL     1      51.596 -31.677   0.164  1.00  0.00     0.030 A 
HETATM   26  C   UNL     1      52.094 -32.204  -1.032  1.00  0.00     0.009 A 
HETATM   27  C   UNL     1      51.698 -31.673  -2.262  1.00  0.00    -0.062 A 
HETATM   28  C   UNL     1      52.204 -32.256  -3.548  1.00  0.00     0.048 C 
HETATM   29  C   UNL     1      50.786 -30.613  -2.278  1.00  0.00     0.009 A 
HETATM   30  C   UNL     1      50.287 -30.091  -1.080  1.00  0.00     0.030 A 
ENDBRANCH  22  24
ENDBRANCH  20  22
ENDBRANCH   1  20
TORSDOF 6
ENDMDL
