MODEL 1
REMARK VINA RESULT:     -10.4      0.000      0.000
REMARK  7 active torsions:
REMARK  status: ('A' for Active; 'I' for Inactive)
REMARK    1  A    between atoms: C_2  and  C_3 
REMARK    2  A    between atoms: C_4  and  N_5 
REMARK    3  A    between atoms: N_5  and  C_6 
REMARK    4  A    between atoms: C_8  and  N_9 
REMARK    5  A    between atoms: C_11  and  C_12 
REMARK    6  A    between atoms: C_12  and  N_13 
REMARK    7  A    between atoms: C_17  and  C_18 
ROOT
HETATM    1  C   UNL     1      41.138 -11.212   4.562  1.00  0.00     0.218 C 
ENDROOT
BRANCH   1   2
HETATM    2  C   UNL     1      40.887 -11.117   3.072  1.00  0.00     0.166 A 
HETATM    3  N   UNL     1      41.679 -10.291   2.388  1.00  0.00    -0.200 NA
HETATM    4  C   UNL     1      41.403 -10.191   1.101  1.00  0.00     0.219 A 
HETATM    5  N   UNL     1      40.452 -10.857   0.476  1.00  0.00    -0.031 NA
HETATM    6  C   UNL     1      39.724 -11.681   1.224  1.00  0.00     0.731 A 
HETATM    7  N   UNL     1      39.930 -11.875   2.524  1.00  0.00    -0.045 NA
BRANCH   4   8
HETATM    8  N   UNL     1      42.202  -9.360   0.341  1.00  0.00    -0.270 NA
HETATM    9  H   UNL     1      42.271  -9.720  -0.601  1.00  0.00     0.127 HD
HETATM   10  H   UNL     1      43.066  -9.162   0.824  1.00  0.00     0.127 HD
ENDBRANCH   4   8
BRANCH   6  11
HETATM   11  N   UNL     1      38.706 -12.439   0.644  1.00  0.00    -0.188 N 
HETATM   12  H   UNL     1      37.811 -12.125   0.992  1.00  0.00     0.184 HD
BRANCH  11  13
HETATM   13  C   UNL     1      38.660 -13.103  -0.598  1.00  0.00     0.055 A 
HETATM   14  C   UNL     1      39.486 -14.225  -0.837  1.00  0.00    -0.031 A 
HETATM   15  C   UNL     1      39.446 -14.864  -2.092  1.00  0.00     0.009 A 
HETATM   16  C   UNL     1      38.607 -14.407  -3.106  1.00  0.00     0.001 A 
HETATM   17  C   UNL     1      37.805 -13.297  -2.882  1.00  0.00     0.002 A 
HETATM   18  C   UNL     1      37.840 -12.649  -1.645  1.00  0.00     0.030 A 
BRANCH  14  19
HETATM   19  C   UNL     1      40.479 -14.733   0.184  1.00  0.00     0.036 C 
HETATM   20  C   UNL     1      39.858 -15.780   1.099  1.00  0.00     0.010 C 
ENDBRANCH  14  19
ENDBRANCH  11  13
ENDBRANCH   6  11
ENDBRANCH   1   2
BRANCH   1  21
HETATM   21  N   UNL     1      42.033 -12.277   4.962  1.00  0.00    -0.260 N 
HETATM   22  C   UNL     1      43.382 -12.153   4.989  1.00  0.00     0.326 C 
HETATM   23  O   UNL     1      44.050 -11.211   4.597  1.00  0.00    -0.247 OA
HETATM   24  N   UNL     1      43.915 -13.263   5.595  1.00  0.00    -0.321 N 
HETATM   25  C   UNL     1      42.917 -14.267   5.900  1.00  0.00     0.140 C 
HETATM   26  H   UNL     1      44.917 -13.400   5.612  1.00  0.00     0.165 HD
HETATM   27  C   UNL     1      41.656 -13.410   5.626  1.00  0.00     0.261 C 
HETATM   28  C   UNL     1      42.950 -14.664   7.375  1.00  0.00     0.054 C 
HETATM   29  O   UNL     1      40.511 -13.707   5.945  1.00  0.00    -0.270 OA
BRANCH  25  30
HETATM   30  C   UNL     1      43.097 -15.466   4.973  1.00  0.00    -0.020 A 
HETATM   31  C   UNL     1      43.480 -16.737   5.438  1.00  0.00     0.022 A 
HETATM   32  C   UNL     1      43.590 -17.839   4.568  1.00  0.00    -0.025 A 
HETATM   33  C   UNL     1      43.322 -17.668   3.192  1.00  0.00    -0.026 A 
HETATM   34  C   UNL     1      43.958 -19.110   5.039  1.00  0.00     0.012 A 
HETATM   35  C   UNL     1      42.969 -16.400   2.719  1.00  0.00     0.013 A 
HETATM   36  C   UNL     1      43.414 -18.771   2.327  1.00  0.00     0.012 A 
HETATM   37  C   UNL     1      42.862 -15.316   3.593  1.00  0.00     0.011 A 
HETATM   38  C   UNL     1      43.769 -20.030   2.814  1.00  0.00     0.001 A 
HETATM   39  C   UNL     1      44.043 -20.198   4.169  1.00  0.00     0.001 A 
ENDBRANCH  25  30
ENDBRANCH   1  21
TORSDOF 7
ENDMDL
MODEL 2
REMARK VINA RESULT:     -10.2      1.713      7.187
REMARK  7 active torsions:
REMARK  status: ('A' for Active; 'I' for Inactive)
REMARK    1  A    between atoms: C_2  and  C_3 
REMARK    2  A    between atoms: C_4  and  N_5 
REMARK    3  A    between atoms: N_5  and  C_6 
REMARK    4  A    between atoms: C_8  and  N_9 
REMARK    5  A    between atoms: C_11  and  C_12 
REMARK    6  A    between atoms: C_12  and  N_13 
REMARK    7  A    between atoms: C_17  and  C_18 
ROOT
HETATM    1  C   UNL     1      41.794 -12.300   5.268  1.00  0.00     0.218 C 
ENDROOT
BRANCH   1   2
HETATM    2  C   UNL     1      41.733 -13.793   5.510  1.00  0.00     0.166 A 
HETATM    3  N   UNL     1      40.647 -14.248   6.136  1.00  0.00    -0.200 NA
HETATM    4  C   UNL     1      40.644 -15.546   6.377  1.00  0.00     0.219 A 
HETATM    5  N   UNL     1      41.598 -16.385   6.023  1.00  0.00    -0.031 NA
HETATM    6  C   UNL     1      42.634 -15.857   5.378  1.00  0.00     0.731 A 
HETATM    7  N   UNL     1      42.728 -14.568   5.063  1.00  0.00    -0.045 NA
BRANCH   4   8
HETATM    8  N   UNL     1      39.536 -16.074   7.010  1.00  0.00    -0.270 NA
HETATM    9  H   UNL     1      39.827 -16.629   7.803  1.00  0.00     0.127 HD
HETATM   10  H   UNL     1      38.922 -16.514   6.339  1.00  0.00     0.127 HD
ENDBRANCH   4   8
BRANCH   6  11
HETATM   11  N   UNL     1      43.682 -16.672   4.949  1.00  0.00    -0.188 N 
HETATM   12  H   UNL     1      44.462 -16.582   5.585  1.00  0.00     0.184 HD
BRANCH  11  13
HETATM   13  C   UNL     1      43.659 -17.867   4.203  1.00  0.00     0.055 A 
HETATM   14  C   UNL     1      43.120 -17.881   2.897  1.00  0.00    -0.031 A 
HETATM   15  C   UNL     1      43.082 -19.089   2.172  1.00  0.00     0.009 A 
HETATM   16  C   UNL     1      43.566 -20.273   2.723  1.00  0.00     0.001 A 
HETATM   17  C   UNL     1      44.083 -20.269   4.011  1.00  0.00     0.002 A 
HETATM   18  C   UNL     1      44.119 -19.080   4.743  1.00  0.00     0.030 A 
BRANCH  14  19
HETATM   19  C   UNL     1      42.504 -16.655   2.260  1.00  0.00     0.036 C 
HETATM   20  C   UNL     1      43.544 -15.826   1.518  1.00  0.00     0.010 C 
ENDBRANCH  14  19
ENDBRANCH  11  13
ENDBRANCH   6  11
ENDBRANCH   1   2
BRANCH   1  21
HETATM   21  N   UNL     1      41.125 -11.850   4.066  1.00  0.00    -0.260 N 
HETATM   22  C   UNL     1      39.867 -11.346   4.053  1.00  0.00     0.326 C 
HETATM   23  O   UNL     1      39.079 -11.289   4.982  1.00  0.00    -0.247 OA
HETATM   24  N   UNL     1      39.609 -10.836   2.805  1.00  0.00    -0.321 N 
HETATM   25  C   UNL     1      40.678 -11.097   1.862  1.00  0.00     0.140 C 
HETATM   26  H   UNL     1      38.681 -10.512   2.571  1.00  0.00     0.165 HD
HETATM   27  C   UNL     1      41.740 -11.598   2.872  1.00  0.00     0.261 C 
HETATM   28  C   UNL     1      41.173  -9.812   1.201  1.00  0.00     0.054 C 
HETATM   29  O   UNL     1      42.933 -11.751   2.634  1.00  0.00    -0.270 OA
BRANCH  25  30
HETATM   30  C   UNL     1      40.219 -12.135   0.842  1.00  0.00    -0.020 A 
HETATM   31  C   UNL     1      39.212 -11.876  -0.106  1.00  0.00     0.022 A 
HETATM   32  C   UNL     1      38.842 -12.833  -1.070  1.00  0.00    -0.025 A 
HETATM   33  C   UNL     1      39.484 -14.091  -1.084  1.00  0.00    -0.026 A 
HETATM   34  C   UNL     1      37.847 -12.565  -2.024  1.00  0.00     0.012 A 
HETATM   35  C   UNL     1      40.466 -14.365  -0.125  1.00  0.00     0.013 A 
HETATM   36  C   UNL     1      39.128 -15.039  -2.056  1.00  0.00     0.012 A 
HETATM   37  C   UNL     1      40.824 -13.405   0.824  1.00  0.00     0.011 A 
HETATM   38  C   UNL     1      38.146 -14.751  -3.005  1.00  0.00     0.001 A 
HETATM   39  C   UNL     1      37.504 -13.516  -2.987  1.00  0.00     0.001 A 
ENDBRANCH  25  30
ENDBRANCH   1  21
TORSDOF 7
ENDMDL
MODEL 3
REMARK VINA RESULT:     -10.0      4.413      8.348
REMARK  7 active torsions:
REMARK  status: ('A' for Active; 'I' for Inactive)
REMARK    1  A    between atoms: C_2  and  C_3 
REMARK    2  A    between atoms: C_4  and  N_5 
REMARK    3  A    between atoms: N_5  and  C_6 
REMARK    4  A    between atoms: C_8  and  N_9 
REMARK    5  A    between atoms: C_11  and  C_12 
REMARK    6  A    between atoms: C_12  and  N_13 
REMARK    7  A    between atoms: C_17  and  C_18 
ROOT
HETATM    1  C   UNL     1      41.169 -10.241   5.459  1.00  0.00     0.218 C 
ENDROOT
BRANCH   1   2
HETATM    2  C   UNL     1      42.038 -10.174   6.696  1.00  0.00     0.166 A 
HETATM    3  N   UNL     1      43.189 -10.846   6.650  1.00  0.00    -0.200 NA
HETATM    4  C   UNL     1      43.902 -10.809   7.761  1.00  0.00     0.219 A 
HETATM    5  N   UNL     1      43.569 -10.150   8.854  1.00  0.00    -0.031 NA
HETATM    6  C   UNL     1      42.419  -9.483   8.810  1.00  0.00     0.731 A 
HETATM    7  N   UNL     1      41.636  -9.433   7.736  1.00  0.00    -0.045 NA
BRANCH   4   8
HETATM    8  N   UNL     1      45.111 -11.476   7.764  1.00  0.00    -0.270 NA
HETATM    9  H   UNL     1      45.491 -11.500   6.828  1.00  0.00     0.127 HD
HETATM   10  H   UNL     1      45.027 -12.357   8.252  1.00  0.00     0.127 HD
ENDBRANCH   4   8
BRANCH   6  11
HETATM   11  N   UNL     1      41.996  -8.744   9.914  1.00  0.00    -0.188 N 
HETATM   12  H   UNL     1      41.792  -7.796   9.628  1.00  0.00     0.184 HD
BRANCH  11  13
HETATM   13  C   UNL     1      41.349  -9.159  11.095  1.00  0.00     0.055 A 
HETATM   14  C   UNL     1      41.936  -8.907  12.356  1.00  0.00    -0.031 A 
HETATM   15  C   UNL     1      41.290  -9.350  13.526  1.00  0.00     0.009 A 
HETATM   16  C   UNL     1      40.079 -10.037  13.463  1.00  0.00     0.001 A 
HETATM   17  C   UNL     1      39.506 -10.301  12.228  1.00  0.00     0.002 A 
HETATM   18  C   UNL     1      40.140  -9.875  11.059  1.00  0.00     0.030 A 
BRANCH  14  19
HETATM   19  C   UNL     1      43.285  -8.237  12.503  1.00  0.00     0.036 C 
HETATM   20  C   UNL     1      43.345  -7.364  13.750  1.00  0.00     0.010 C 
ENDBRANCH  14  19
ENDBRANCH  11  13
ENDBRANCH   6  11
ENDBRANCH   1   2
BRANCH   1  21
HETATM   21  N   UNL     1      40.776 -11.577   5.063  1.00  0.00    -0.260 N 
HETATM   22  C   UNL     1      39.816 -12.294   5.696  1.00  0.00     0.326 C 
HETATM   23  O   UNL     1      39.224 -12.003   6.722  1.00  0.00    -0.247 OA
HETATM   24  N   UNL     1      39.552 -13.423   4.961  1.00  0.00    -0.321 N 
HETATM   25  C   UNL     1      40.442 -13.574   3.828  1.00  0.00     0.140 C 
HETATM   26  H   UNL     1      38.937 -14.136   5.329  1.00  0.00     0.165 HD
HETATM   27  C   UNL     1      41.086 -12.166   3.870  1.00  0.00     0.261 C 
HETATM   28  C   UNL     1      39.669 -13.739   2.521  1.00  0.00     0.054 C 
HETATM   29  O   UNL     1      41.768 -11.668   2.981  1.00  0.00    -0.270 OA
BRANCH  25  30
HETATM   30  C   UNL     1      41.404 -14.731   4.083  1.00  0.00    -0.020 A 
HETATM   31  C   UNL     1      41.576 -15.792   3.176  1.00  0.00     0.022 A 
HETATM   32  C   UNL     1      42.506 -16.821   3.411  1.00  0.00    -0.025 A 
HETATM   33  C   UNL     1      43.281 -16.802   4.592  1.00  0.00    -0.026 A 
HETATM   34  C   UNL     1      42.686 -17.871   2.496  1.00  0.00     0.012 A 
HETATM   35  C   UNL     1      43.095 -15.764   5.513  1.00  0.00     0.013 A 
HETATM   36  C   UNL     1      44.223 -17.818   4.819  1.00  0.00     0.012 A 
HETATM   37  C   UNL     1      42.169 -14.748   5.265  1.00  0.00     0.011 A 
HETATM   38  C   UNL     1      44.397 -18.847   3.892  1.00  0.00     0.001 A 
HETATM   39  C   UNL     1      43.627 -18.874   2.732  1.00  0.00     0.001 A 
ENDBRANCH  25  30
ENDBRANCH   1  21
TORSDOF 7
ENDMDL
MODEL 4
REMARK VINA RESULT:      -9.9      1.417      2.129
REMARK  7 active torsions:
REMARK  status: ('A' for Active; 'I' for Inactive)
REMARK    1  A    between atoms: C_2  and  C_3 
REMARK    2  A    between atoms: C_4  and  N_5 
REMARK    3  A    between atoms: N_5  and  C_6 
REMARK    4  A    between atoms: C_8  and  N_9 
REMARK    5  A    between atoms: C_11  and  C_12 
REMARK    6  A    between atoms: C_12  and  N_13 
REMARK    7  A    between atoms: C_17  and  C_18 
ROOT
HETATM    1  C   UNL     1      41.316 -11.697   5.523  1.00  0.00     0.218 C 
ENDROOT
BRANCH   1   2
HETATM    2  C   UNL     1      40.665 -11.638   4.158  1.00  0.00     0.166 A 
HETATM    3  N   UNL     1      39.549 -10.914   4.064  1.00  0.00    -0.200 NA
HETATM    4  C   UNL     1      38.977 -10.922   2.875  1.00  0.00     0.219 A 
HETATM    5  N   UNL     1      39.442 -11.553   1.814  1.00  0.00    -0.031 NA
HETATM    6  C   UNL     1      40.574 -12.230   1.984  1.00  0.00     0.731 A 
HETATM    7  N   UNL     1      41.245 -12.270   3.131  1.00  0.00    -0.045 NA
BRANCH   4   8
HETATM    8  N   UNL     1      37.826 -10.176   2.716  1.00  0.00    -0.270 NA
HETATM    9  H   UNL     1      37.185 -10.370   3.473  1.00  0.00     0.127 HD
HETATM   10  H   UNL     1      37.471 -10.269   1.775  1.00  0.00     0.127 HD
ENDBRANCH   4   8
BRANCH   6  11
HETATM   11  N   UNL     1      41.148 -12.914   0.912  1.00  0.00    -0.188 N 
HETATM   12  H   UNL     1      41.934 -13.458   1.240  1.00  0.00     0.184 HD
BRANCH  11  13
HETATM   13  C   UNL     1      40.574 -13.369  -0.292  1.00  0.00     0.055 A 
HETATM   14  C   UNL     1      40.662 -12.585  -1.465  1.00  0.00    -0.031 A 
HETATM   15  C   UNL     1      40.062 -13.042  -2.655  1.00  0.00     0.009 A 
HETATM   16  C   UNL     1      39.378 -14.254  -2.696  1.00  0.00     0.001 A 
HETATM   17  C   UNL     1      39.275 -15.021  -1.543  1.00  0.00     0.002 A 
HETATM   18  C   UNL     1      39.858 -14.576  -0.355  1.00  0.00     0.030 A 
BRANCH  14  19
HETATM   19  C   UNL     1      41.320 -11.222  -1.482  1.00  0.00     0.036 C 
HETATM   20  C   UNL     1      40.722 -10.324  -2.557  1.00  0.00     0.010 C 
ENDBRANCH  14  19
ENDBRANCH  11  13
ENDBRANCH   6  11
ENDBRANCH   1   2
BRANCH   1  21
HETATM   21  N   UNL     1      42.149 -12.859   5.751  1.00  0.00    -0.260 N 
HETATM   22  C   UNL     1      43.502 -12.812   5.808  1.00  0.00     0.326 C 
HETATM   23  O   UNL     1      44.224 -11.855   5.580  1.00  0.00    -0.247 OA
HETATM   24  N   UNL     1      43.969 -14.032   6.229  1.00  0.00    -0.321 N 
HETATM   25  C   UNL     1      42.917 -15.019   6.359  1.00  0.00     0.140 C 
HETATM   26  H   UNL     1      44.962 -14.222   6.231  1.00  0.00     0.165 HD
HETATM   27  C   UNL     1      41.706 -14.064   6.218  1.00  0.00     0.261 C 
HETATM   28  C   UNL     1      42.906 -15.651   7.749  1.00  0.00     0.054 C 
HETATM   29  O   UNL     1      40.542 -14.348   6.476  1.00  0.00    -0.270 OA
BRANCH  25  30
HETATM   30  C   UNL     1      43.051 -16.058   5.249  1.00  0.00    -0.020 A 
HETATM   31  C   UNL     1      43.509 -17.367   5.484  1.00  0.00     0.022 A 
HETATM   32  C   UNL     1      43.575 -18.323   4.453  1.00  0.00    -0.025 A 
HETATM   33  C   UNL     1      43.185 -17.962   3.145  1.00  0.00    -0.026 A 
HETATM   34  C   UNL     1      44.019 -19.633   4.695  1.00  0.00     0.012 A 
HETATM   35  C   UNL     1      42.756 -16.653   2.898  1.00  0.00     0.013 A 
HETATM   36  C   UNL     1      43.234 -18.920   2.119  1.00  0.00     0.012 A 
HETATM   37  C   UNL     1      42.694 -15.716   3.932  1.00  0.00     0.011 A 
HETATM   38  C   UNL     1      43.665 -20.221   2.380  1.00  0.00     0.001 A 
HETATM   39  C   UNL     1      44.060 -20.577   3.667  1.00  0.00     0.001 A 
ENDBRANCH  25  30
ENDBRANCH   1  21
TORSDOF 7
ENDMDL
MODEL 5
REMARK VINA RESULT:      -9.9      2.422      6.262
REMARK  7 active torsions:
REMARK  status: ('A' for Active; 'I' for Inactive)
REMARK    1  A    between atoms: C_2  and  C_3 
REMARK    2  A    between atoms: C_4  and  N_5 
REMARK    3  A    between atoms: N_5  and  C_6 
REMARK    4  A    between atoms: C_8  and  N_9 
REMARK    5  A    between atoms: C_11  and  C_12 
REMARK    6  A    between atoms: C_12  and  N_13 
REMARK    7  A    between atoms: C_17  and  C_18 
ROOT
HETATM    1  C   UNL     1      41.069 -10.014   6.830  1.00  0.00     0.218 C 
ENDROOT
BRANCH   1   2
HETATM    2  C   UNL     1      42.199 -11.020   6.849  1.00  0.00     0.166 A 
HETATM    3  N   UNL     1      43.325 -10.637   7.452  1.00  0.00    -0.200 NA
HETATM    4  C   UNL     1      44.309 -11.515   7.409  1.00  0.00     0.219 A 
HETATM    5  N   UNL     1      44.235 -12.710   6.854  1.00  0.00    -0.031 NA
HETATM    6  C   UNL     1      43.070 -13.027   6.298  1.00  0.00     0.731 A 
HETATM    7  N   UNL     1      42.006 -12.228   6.305  1.00  0.00    -0.045 NA
BRANCH   4   8
HETATM    8  N   UNL     1      45.494 -11.176   8.031  1.00  0.00    -0.270 NA
HETATM    9  H   UNL     1      45.902 -10.372   7.575  1.00  0.00     0.127 HD
HETATM   10  H   UNL     1      46.081 -11.991   8.142  1.00  0.00     0.127 HD
ENDBRANCH   4   8
BRANCH   6  11
HETATM   11  N   UNL     1      42.895 -14.277   5.703  1.00  0.00    -0.188 N 
HETATM   12  H   UNL     1      42.225 -14.814   6.236  1.00  0.00     0.184 HD
BRANCH  11  13
HETATM   13  C   UNL     1      43.039 -14.674   4.359  1.00  0.00     0.055 A 
HETATM   14  C   UNL     1      43.155 -16.044   4.029  1.00  0.00    -0.031 A 
HETATM   15  C   UNL     1      43.323 -16.423   2.683  1.00  0.00     0.009 A 
HETATM   16  C   UNL     1      43.379 -15.471   1.668  1.00  0.00     0.001 A 
HETATM   17  C   UNL     1      43.281 -14.124   1.988  1.00  0.00     0.002 A 
HETATM   18  C   UNL     1      43.123 -13.733   3.319  1.00  0.00     0.030 A 
BRANCH  14  19
HETATM   19  C   UNL     1      43.181 -17.132   5.080  1.00  0.00     0.036 C 
HETATM   20  C   UNL     1      43.946 -18.358   4.598  1.00  0.00     0.010 C 
ENDBRANCH  14  19
ENDBRANCH  11  13
ENDBRANCH   6  11
ENDBRANCH   1   2
BRANCH   1  21
HETATM   21  N   UNL     1      40.175 -10.124   5.697  1.00  0.00    -0.260 N 
HETATM   22  C   UNL     1      38.880 -10.510   5.799  1.00  0.00     0.326 C 
HETATM   23  O   UNL     1      38.301 -10.918   6.792  1.00  0.00    -0.247 OA
HETATM   24  N   UNL     1      38.266 -10.321   4.586  1.00  0.00    -0.321 N 
HETATM   25  C   UNL     1      39.189  -9.899   3.552  1.00  0.00     0.140 C 
HETATM   26  H   UNL     1      37.322 -10.652   4.437  1.00  0.00     0.165 HD
HETATM   27  C   UNL     1      40.406  -9.592   4.460  1.00  0.00     0.261 C 
HETATM   28  C   UNL     1      38.725  -8.611   2.873  1.00  0.00     0.054 C 
HETATM   29  O   UNL     1      41.412  -8.981   4.119  1.00  0.00    -0.270 OA
BRANCH  25  30
HETATM   30  C   UNL     1      39.397 -11.037   2.556  1.00  0.00    -0.020 A 
HETATM   31  C   UNL     1      39.493 -12.384   2.949  1.00  0.00     0.022 A 
HETATM   32  C   UNL     1      39.634 -13.420   2.007  1.00  0.00    -0.025 A 
HETATM   33  C   UNL     1      39.695 -13.105   0.632  1.00  0.00    -0.026 A 
HETATM   34  C   UNL     1      39.714 -14.765   2.403  1.00  0.00     0.012 A 
HETATM   35  C   UNL     1      39.630 -11.764   0.236  1.00  0.00     0.013 A 
HETATM   36  C   UNL     1      39.818 -14.139  -0.310  1.00  0.00     0.012 A 
HETATM   37  C   UNL     1      39.487 -10.747   1.182  1.00  0.00     0.011 A 
HETATM   38  C   UNL     1      39.883 -15.472   0.100  1.00  0.00     0.001 A 
HETATM   39  C   UNL     1      39.833 -15.784   1.456  1.00  0.00     0.001 A 
ENDBRANCH  25  30
ENDBRANCH   1  21
TORSDOF 7
ENDMDL
MODEL 6
REMARK VINA RESULT:      -9.8      3.941      7.918
REMARK  7 active torsions:
REMARK  status: ('A' for Active; 'I' for Inactive)
REMARK    1  A    between atoms: C_2  and  C_3 
REMARK    2  A    between atoms: C_4  and  N_5 
REMARK    3  A    between atoms: N_5  and  C_6 
REMARK    4  A    between atoms: C_8  and  N_9 
REMARK    5  A    between atoms: C_11  and  C_12 
REMARK    6  A    between atoms: C_12  and  N_13 
REMARK    7  A    between atoms: C_17  and  C_18 
ROOT
HETATM    1  C   UNL     1      41.631 -10.758   4.947  1.00  0.00     0.218 C 
ENDROOT
BRANCH   1   2
HETATM    2  C   UNL     1      42.752 -10.724   5.963  1.00  0.00     0.166 A 
HETATM    3  N   UNL     1      43.972 -11.019   5.510  1.00  0.00    -0.200 NA
HETATM    4  C   UNL     1      44.921 -11.031   6.428  1.00  0.00     0.219 A 
HETATM    5  N   UNL     1      44.744 -10.749   7.704  1.00  0.00    -0.031 NA
HETATM    6  C   UNL     1      43.504 -10.439   8.070  1.00  0.00     0.731 A 
HETATM    7  N   UNL     1      42.478 -10.374   7.225  1.00  0.00    -0.045 NA
BRANCH   4   8
HETATM    8  N   UNL     1      46.206 -11.315   6.012  1.00  0.00    -0.270 NA
HETATM    9  H   UNL     1      46.864 -11.068   6.739  1.00  0.00     0.127 HD
HETATM   10  H   UNL     1      46.372 -10.935   5.091  1.00  0.00     0.127 HD
ENDBRANCH   4   8
BRANCH   6  11
HETATM   11  N   UNL     1      43.227 -10.110   9.398  1.00  0.00    -0.188 N 
HETATM   12  H   UNL     1      43.599 -10.825  10.008  1.00  0.00     0.184 HD
BRANCH  11  13
HETATM   13  C   UNL     1      43.037  -8.852  10.004  1.00  0.00     0.055 A 
HETATM   14  C   UNL     1      42.731  -8.763  11.381  1.00  0.00    -0.031 A 
HETATM   15  C   UNL     1      42.521  -7.500  11.967  1.00  0.00     0.009 A 
HETATM   16  C   UNL     1      42.606  -6.333  11.212  1.00  0.00     0.001 A 
HETATM   17  C   UNL     1      42.891  -6.415   9.856  1.00  0.00     0.002 A 
HETATM   18  C   UNL     1      43.094  -7.661   9.260  1.00  0.00     0.030 A 
BRANCH  14  19
HETATM   19  C   UNL     1      42.544  -9.987  12.251  1.00  0.00     0.036 C 
HETATM   20  C   UNL     1      41.124 -10.078  12.793  1.00  0.00     0.010 C 
ENDBRANCH  14  19
ENDBRANCH  11  13
ENDBRANCH   6  11
ENDBRANCH   1   2
BRANCH   1  21
HETATM   21  N   UNL     1      41.180 -12.084   4.582  1.00  0.00    -0.260 N 
HETATM   22  C   UNL     1      40.190 -12.744   5.230  1.00  0.00     0.326 C 
HETATM   23  O   UNL     1      39.611 -12.403   6.248  1.00  0.00    -0.247 OA
HETATM   24  N   UNL     1      39.876 -13.877   4.521  1.00  0.00    -0.321 N 
HETATM   25  C   UNL     1      40.759 -14.093   3.393  1.00  0.00     0.140 C 
HETATM   26  H   UNL     1      39.231 -14.554   4.905  1.00  0.00     0.165 HD
HETATM   27  C   UNL     1      41.464 -12.714   3.403  1.00  0.00     0.261 C 
HETATM   28  C   UNL     1      39.979 -14.255   2.090  1.00  0.00     0.054 C 
HETATM   29  O   UNL     1      42.167 -12.268   2.504  1.00  0.00    -0.270 OA
BRANCH  25  30
HETATM   30  C   UNL     1      41.670 -15.285   3.676  1.00  0.00    -0.020 A 
HETATM   31  C   UNL     1      41.758 -16.396   2.818  1.00  0.00     0.022 A 
HETATM   32  C   UNL     1      42.643 -17.459   3.076  1.00  0.00    -0.025 A 
HETATM   33  C   UNL     1      43.457 -17.423   4.229  1.00  0.00    -0.026 A 
HETATM   34  C   UNL     1      42.739 -18.560   2.208  1.00  0.00     0.012 A 
HETATM   35  C   UNL     1      43.352 -16.334   5.103  1.00  0.00     0.013 A 
HETATM   36  C   UNL     1      44.353 -18.475   4.478  1.00  0.00     0.012 A 
HETATM   37  C   UNL     1      42.471 -15.285   4.833  1.00  0.00     0.011 A 
HETATM   38  C   UNL     1      44.444 -19.555   3.598  1.00  0.00     0.001 A 
HETATM   39  C   UNL     1      43.636 -19.598   2.465  1.00  0.00     0.001 A 
ENDBRANCH  25  30
ENDBRANCH   1  21
TORSDOF 7
ENDMDL
MODEL 7
REMARK VINA RESULT:      -9.7      4.980      8.409
REMARK  7 active torsions:
REMARK  status: ('A' for Active; 'I' for Inactive)
REMARK    1  A    between atoms: C_2  and  C_3 
REMARK    2  A    between atoms: C_4  and  N_5 
REMARK    3  A    between atoms: N_5  and  C_6 
REMARK    4  A    between atoms: C_8  and  N_9 
REMARK    5  A    between atoms: C_11  and  C_12 
REMARK    6  A    between atoms: C_12  and  N_13 
REMARK    7  A    between atoms: C_17  and  C_18 
ROOT
HETATM    1  C   UNL     1      42.807 -10.899   5.798  1.00  0.00     0.218 C 
ENDROOT
BRANCH   1   2
HETATM    2  C   UNL     1      41.513 -11.674   5.926  1.00  0.00     0.166 A 
HETATM    3  N   UNL     1      40.440 -10.978   6.305  1.00  0.00    -0.200 NA
HETATM    4  C   UNL     1      39.338 -11.688   6.457  1.00  0.00     0.219 A 
HETATM    5  N   UNL     1      39.236 -12.985   6.236  1.00  0.00    -0.031 NA
HETATM    6  C   UNL     1      40.344 -13.601   5.835  1.00  0.00     0.731 A 
HETATM    7  N   UNL     1      41.502 -12.978   5.627  1.00  0.00    -0.045 NA
BRANCH   4   8
HETATM    8  N   UNL     1      38.193 -11.016   6.833  1.00  0.00    -0.270 NA
HETATM    9  H   UNL     1      37.725 -10.651   6.014  1.00  0.00     0.127 HD
HETATM   10  H   UNL     1      38.394 -10.365   7.578  1.00  0.00     0.127 HD
ENDBRANCH   4   8
BRANCH   6  11
HETATM   11  N   UNL     1      40.326 -14.969   5.560  1.00  0.00    -0.188 N 
HETATM   12  H   UNL     1      39.422 -15.350   5.806  1.00  0.00     0.184 HD
BRANCH  11  13
HETATM   13  C   UNL     1      41.047 -15.717   4.609  1.00  0.00     0.055 A 
HETATM   14  C   UNL     1      42.195 -16.445   4.997  1.00  0.00    -0.031 A 
HETATM   15  C   UNL     1      42.920 -17.169   4.030  1.00  0.00     0.009 A 
HETATM   16  C   UNL     1      42.527 -17.178   2.694  1.00  0.00     0.001 A 
HETATM   17  C   UNL     1      41.410 -16.452   2.304  1.00  0.00     0.002 A 
HETATM   18  C   UNL     1      40.686 -15.723   3.251  1.00  0.00     0.030 A 
BRANCH  14  19
HETATM   19  C   UNL     1      42.730 -16.423   6.412  1.00  0.00     0.036 C 
HETATM   20  C   UNL     1      44.085 -15.732   6.489  1.00  0.00     0.010 C 
ENDBRANCH  14  19
ENDBRANCH  11  13
ENDBRANCH   6  11
ENDBRANCH   1   2
BRANCH   1  21
HETATM   21  N   UNL     1      43.367 -10.437   7.050  1.00  0.00    -0.260 N 
HETATM   22  C   UNL     1      44.300 -11.123   7.753  1.00  0.00     0.326 C 
HETATM   23  O   UNL     1      44.728 -12.242   7.525  1.00  0.00    -0.247 OA
HETATM   24  N   UNL     1      44.757 -10.328   8.774  1.00  0.00    -0.321 N 
HETATM   25  C   UNL     1      44.035  -9.076   8.874  1.00  0.00     0.140 C 
HETATM   26  H   UNL     1      45.382 -10.707   9.472  1.00  0.00     0.165 HD
HETATM   27  C   UNL     1      43.266  -9.162   7.532  1.00  0.00     0.261 C 
HETATM   28  C   UNL     1      44.980  -7.876   8.840  1.00  0.00     0.054 C 
HETATM   29  O   UNL     1      42.659  -8.240   6.999  1.00  0.00    -0.270 OA
BRANCH  25  30
HETATM   30  C   UNL     1      43.158  -9.089  10.123  1.00  0.00    -0.020 A 
HETATM   31  C   UNL     1      43.555  -8.503  11.338  1.00  0.00     0.022 A 
HETATM   32  C   UNL     1      42.707  -8.484  12.461  1.00  0.00    -0.025 A 
HETATM   33  C   UNL     1      41.428  -9.077  12.377  1.00  0.00    -0.026 A 
HETATM   34  C   UNL     1      43.102  -7.885  13.668  1.00  0.00     0.012 A 
HETATM   35  C   UNL     1      41.038  -9.688  11.179  1.00  0.00     0.013 A 
HETATM   36  C   UNL     1      40.574  -9.043  13.491  1.00  0.00     0.012 A 
HETATM   37  C   UNL     1      41.890  -9.697  10.072  1.00  0.00     0.011 A 
HETATM   38  C   UNL     1      40.978  -8.432  14.678  1.00  0.00     0.001 A 
HETATM   39  C   UNL     1      42.243  -7.855  14.767  1.00  0.00     0.001 A 
ENDBRANCH  25  30
ENDBRANCH   1  21
TORSDOF 7
ENDMDL
MODEL 8
REMARK VINA RESULT:      -9.7      3.531      6.414
REMARK  7 active torsions:
REMARK  status: ('A' for Active; 'I' for Inactive)
REMARK    1  A    between atoms: C_2  and  C_3 
REMARK    2  A    between atoms: C_4  and  N_5 
REMARK    3  A    between atoms: N_5  and  C_6 
REMARK    4  A    between atoms: C_8  and  N_9 
REMARK    5  A    between atoms: C_11  and  C_12 
REMARK    6  A    between atoms: C_12  and  N_13 
REMARK    7  A    between atoms: C_17  and  C_18 
ROOT
HETATM    1  C   UNL     1      39.654 -12.712   4.423  1.00  0.00     0.218 C 
ENDROOT
BRANCH   1   2
HETATM    2  C   UNL     1      39.461 -11.481   5.282  1.00  0.00     0.166 A 
HETATM    3  N   UNL     1      38.511 -10.629   4.892  1.00  0.00    -0.200 NA
HETATM    4  C   UNL     1      38.399  -9.541   5.632  1.00  0.00     0.219 A 
HETATM    5  N   UNL     1      39.120  -9.276   6.704  1.00  0.00    -0.031 NA
HETATM    6  C   UNL     1      40.027 -10.188   7.041  1.00  0.00     0.731 A 
HETATM    7  N   UNL     1      40.208 -11.329   6.381  1.00  0.00    -0.045 NA
BRANCH   4   8
HETATM    8  N   UNL     1      37.421  -8.632   5.283  1.00  0.00    -0.270 NA
HETATM    9  H   UNL     1      36.589  -9.121   4.981  1.00  0.00     0.127 HD
HETATM   10  H   UNL     1      37.796  -7.931   4.660  1.00  0.00     0.127 HD
ENDBRANCH   4   8
BRANCH   6  11
HETATM   11  N   UNL     1      40.824  -9.999   8.171  1.00  0.00    -0.188 N 
HETATM   12  H   UNL     1      40.938 -10.879   8.655  1.00  0.00     0.184 HD
BRANCH  11  13
HETATM   13  C   UNL     1      41.830  -9.046   8.427  1.00  0.00     0.055 A 
HETATM   14  C   UNL     1      43.193  -9.402   8.316  1.00  0.00    -0.031 A 
HETATM   15  C   UNL     1      44.187  -8.445   8.598  1.00  0.00     0.009 A 
HETATM   16  C   UNL     1      43.850  -7.151   8.989  1.00  0.00     0.001 A 
HETATM   17  C   UNL     1      42.513  -6.800   9.115  1.00  0.00     0.002 A 
HETATM   18  C   UNL     1      41.517  -7.742   8.845  1.00  0.00     0.030 A 
BRANCH  14  19
HETATM   19  C   UNL     1      43.640 -10.806   7.974  1.00  0.00     0.036 C 
HETATM   20  C   UNL     1      44.280 -10.870   6.593  1.00  0.00     0.010 C 
ENDBRANCH  14  19
ENDBRANCH  11  13
ENDBRANCH   6  11
ENDBRANCH   1   2
BRANCH   1  21
HETATM   21  N   UNL     1      40.972 -13.306   4.499  1.00  0.00    -0.260 N 
HETATM   22  C   UNL     1      42.056 -12.811   3.853  1.00  0.00     0.326 C 
HETATM   23  O   UNL     1      42.089 -11.893   3.050  1.00  0.00    -0.247 OA
HETATM   24  N   UNL     1      43.173 -13.480   4.288  1.00  0.00    -0.321 N 
HETATM   25  C   UNL     1      42.856 -14.573   5.185  1.00  0.00     0.140 C 
HETATM   26  H   UNL     1      44.066 -13.322   3.841  1.00  0.00     0.165 HD
HETATM   27  C   UNL     1      41.365 -14.230   5.425  1.00  0.00     0.261 C 
HETATM   28  C   UNL     1      43.621 -14.461   6.502  1.00  0.00     0.054 C 
HETATM   29  O   UNL     1      40.654 -14.717   6.297  1.00  0.00    -0.270 OA
BRANCH  25  30
HETATM   30  C   UNL     1      43.107 -15.903   4.479  1.00  0.00    -0.020 A 
HETATM   31  C   UNL     1      43.453 -17.078   5.171  1.00  0.00     0.022 A 
HETATM   32  C   UNL     1      43.630 -18.303   4.502  1.00  0.00    -0.025 A 
HETATM   33  C   UNL     1      43.469 -18.360   3.100  1.00  0.00    -0.026 A 
HETATM   34  C   UNL     1      43.961 -19.478   5.198  1.00  0.00     0.012 A 
HETATM   35  C   UNL     1      43.153 -17.189   2.402  1.00  0.00     0.013 A 
HETATM   36  C   UNL     1      43.627 -19.586   2.434  1.00  0.00     0.012 A 
HETATM   37  C   UNL     1      42.979 -15.980   3.080  1.00  0.00     0.011 A 
HETATM   38  C   UNL     1      43.943 -20.746   3.143  1.00  0.00     0.001 A 
HETATM   39  C   UNL     1      44.112 -20.691   4.525  1.00  0.00     0.001 A 
ENDBRANCH  25  30
ENDBRANCH   1  21
TORSDOF 7
ENDMDL
MODEL 9
REMARK VINA RESULT:      -9.6      2.727      6.787
REMARK  7 active torsions:
REMARK  status: ('A' for Active; 'I' for Inactive)
REMARK    1  A    between atoms: C_2  and  C_3 
REMARK    2  A    between atoms: C_4  and  N_5 
REMARK    3  A    between atoms: N_5  and  C_6 
REMARK    4  A    between atoms: C_8  and  N_9 
REMARK    5  A    between atoms: C_11  and  C_12 
REMARK    6  A    between atoms: C_12  and  N_13 
REMARK    7  A    between atoms: C_17  and  C_18 
ROOT
HETATM    1  C   UNL     1      38.965 -13.071   3.337  1.00  0.00     0.218 C 
ENDROOT
BRANCH   1   2
HETATM    2  C   UNL     1      40.023 -13.679   2.440  1.00  0.00     0.166 A 
HETATM    3  N   UNL     1      39.794 -13.618   1.128  1.00  0.00    -0.200 NA
HETATM    4  C   UNL     1      40.708 -14.200   0.374  1.00  0.00     0.219 A 
HETATM    5  N   UNL     1      41.801 -14.786   0.824  1.00  0.00    -0.031 NA
HETATM    6  C   UNL     1      41.969 -14.781   2.143  1.00  0.00     0.731 A 
HETATM    7  N   UNL     1      41.123 -14.203   2.993  1.00  0.00    -0.045 NA
BRANCH   4   8
HETATM    8  N   UNL     1      40.530 -14.154  -0.994  1.00  0.00    -0.270 NA
HETATM    9  H   UNL     1      40.993 -14.941  -1.427  1.00  0.00     0.127 HD
HETATM   10  H   UNL     1      40.754 -13.234  -1.349  1.00  0.00     0.127 HD
ENDBRANCH   4   8
BRANCH   6  11
HETATM   11  N   UNL     1      43.104 -15.362   2.707  1.00  0.00    -0.188 N 
HETATM   12  H   UNL     1      43.627 -14.661   3.214  1.00  0.00     0.184 HD
BRANCH  11  13
HETATM   13  C   UNL     1      43.340 -16.690   3.118  1.00  0.00     0.055 A 
HETATM   14  C   UNL     1      43.640 -16.975   4.469  1.00  0.00    -0.031 A 
HETATM   15  C   UNL     1      43.896 -18.305   4.860  1.00  0.00     0.009 A 
HETATM   16  C   UNL     1      43.861 -19.345   3.935  1.00  0.00     0.001 A 
HETATM   17  C   UNL     1      43.582 -19.069   2.603  1.00  0.00     0.002 A 
HETATM   18  C   UNL     1      43.334 -17.755   2.201  1.00  0.00     0.030 A 
BRANCH  14  19
HETATM   19  C   UNL     1      43.772 -15.892   5.517  1.00  0.00     0.036 C 
HETATM   20  C   UNL     1      44.563 -16.375   6.726  1.00  0.00     0.010 C 
ENDBRANCH  14  19
ENDBRANCH  11  13
ENDBRANCH   6  11
ENDBRANCH   1   2
BRANCH   1  21
HETATM   21  N   UNL     1      39.448 -12.049   4.240  1.00  0.00    -0.260 N 
HETATM   22  C   UNL     1      39.494 -10.731   3.925  1.00  0.00     0.326 C 
HETATM   23  O   UNL     1      39.255 -10.216   2.846  1.00  0.00    -0.247 OA
HETATM   24  N   UNL     1      39.811 -10.018   5.055  1.00  0.00    -0.321 N 
HETATM   25  C   UNL     1      40.119 -10.870   6.185  1.00  0.00     0.140 C 
HETATM   26  H   UNL     1      39.995  -9.026   4.994  1.00  0.00     0.165 HD
HETATM   27  C   UNL     1      39.637 -12.213   5.583  1.00  0.00     0.261 C 
HETATM   28  C   UNL     1      39.265 -10.523   7.403  1.00  0.00     0.054 C 
HETATM   29  O   UNL     1      39.462 -13.252   6.210  1.00  0.00    -0.270 OA
BRANCH  25  30
HETATM   30  C   UNL     1      41.614 -10.798   6.487  1.00  0.00    -0.020 A 
HETATM   31  C   UNL     1      42.188  -9.765   7.250  1.00  0.00     0.022 A 
HETATM   32  C   UNL     1      43.561  -9.749   7.556  1.00  0.00    -0.025 A 
HETATM   33  C   UNL     1      44.393 -10.786   7.078  1.00  0.00    -0.026 A 
HETATM   34  C   UNL     1      44.128  -8.724   8.331  1.00  0.00     0.012 A 
HETATM   35  C   UNL     1      43.833 -11.801   6.294  1.00  0.00     0.013 A 
HETATM   36  C   UNL     1      45.760 -10.780   7.399  1.00  0.00     0.012 A 
HETATM   37  C   UNL     1      42.468 -11.805   5.999  1.00  0.00     0.011 A 
HETATM   38  C   UNL     1      46.303  -9.761   8.181  1.00  0.00     0.001 A 
HETATM   39  C   UNL     1      45.488  -8.731   8.645  1.00  0.00     0.001 A 
ENDBRANCH  25  30
ENDBRANCH   1  21
TORSDOF 7
ENDMDL
MODEL 10
REMARK VINA RESULT:      -9.3      3.246      7.965
REMARK  7 active torsions:
REMARK  status: ('A' for Active; 'I' for Inactive)
REMARK    1  A    between atoms: C_2  and  C_3 
REMARK    2  A    between atoms: C_4  and  N_5 
REMARK    3  A    between atoms: N_5  and  C_6 
REMARK    4  A    between atoms: C_8  and  N_9 
REMARK    5  A    between atoms: C_11  and  C_12 
REMARK    6  A    between atoms: C_12  and  N_13 
REMARK    7  A    between atoms: C_17  and  C_18 
ROOT
HETATM    1  C   UNL     1      41.428 -12.264   3.473  1.00  0.00     0.218 C 
ENDROOT
BRANCH   1   2
HETATM    2  C   UNL     1      41.503 -13.665   2.904  1.00  0.00     0.166 A 
HETATM    3  N   UNL     1      40.478 -14.051   2.143  1.00  0.00    -0.200 NA
HETATM    4  C   UNL     1      40.547 -15.294   1.702  1.00  0.00     0.219 A 
HETATM    5  N   UNL     1      41.542 -16.127   1.937  1.00  0.00    -0.031 NA
HETATM    6  C   UNL     1      42.538 -15.656   2.682  1.00  0.00     0.731 A 
HETATM    7  N   UNL     1      42.582 -14.414   3.157  1.00  0.00    -0.045 NA
BRANCH   4   8
HETATM    8  N   UNL     1      39.520 -15.743   0.897  1.00  0.00    -0.270 NA
HETATM    9  H   UNL     1      38.651 -15.309   1.177  1.00  0.00     0.127 HD
HETATM   10  H   UNL     1      39.534 -16.751   0.834  1.00  0.00     0.127 HD
ENDBRANCH   4   8
BRANCH   6  11
HETATM   11  N   UNL     1      43.642 -16.462   2.967  1.00  0.00    -0.188 N 
HETATM   12  H   UNL     1      44.400 -15.888   3.307  1.00  0.00     0.184 HD
BRANCH  11  13
HETATM   13  C   UNL     1      43.705 -17.817   3.348  1.00  0.00     0.055 A 
HETATM   14  C   UNL     1      43.984 -18.168   4.689  1.00  0.00    -0.031 A 
HETATM   15  C   UNL     1      44.068 -19.527   5.050  1.00  0.00     0.009 A 
HETATM   16  C   UNL     1      43.884 -20.534   4.106  1.00  0.00     0.001 A 
HETATM   17  C   UNL     1      43.625 -20.196   2.785  1.00  0.00     0.002 A 
HETATM   18  C   UNL     1      43.547 -18.853   2.412  1.00  0.00     0.030 A 
BRANCH  14  19
HETATM   19  C   UNL     1      44.274 -17.133   5.754  1.00  0.00     0.036 C 
HETATM   20  C   UNL     1      43.456 -17.382   7.015  1.00  0.00     0.010 C 
ENDBRANCH  14  19
ENDBRANCH  11  13
ENDBRANCH   6  11
ENDBRANCH   1   2
BRANCH   1  21
HETATM   21  N   UNL     1      42.055 -12.098   4.766  1.00  0.00    -0.260 N 
HETATM   22  C   UNL     1      41.583 -12.660   5.906  1.00  0.00     0.326 C 
HETATM   23  O   UNL     1      40.543 -13.278   6.055  1.00  0.00    -0.247 OA
HETATM   24  N   UNL     1      42.506 -12.474   6.905  1.00  0.00    -0.321 N 
HETATM   25  C   UNL     1      43.619 -11.645   6.490  1.00  0.00     0.140 C 
HETATM   26  H   UNL     1      42.283 -12.732   7.856  1.00  0.00     0.165 HD
HETATM   27  C   UNL     1      43.321 -11.624   4.971  1.00  0.00     0.261 C 
HETATM   28  C   UNL     1      44.959 -12.336   6.735  1.00  0.00     0.054 C 
HETATM   29  O   UNL     1      44.090 -11.237   4.099  1.00  0.00    -0.270 OA
BRANCH  25  30
HETATM   30  C   UNL     1      43.532 -10.287   7.183  1.00  0.00    -0.020 A 
HETATM   31  C   UNL     1      42.412  -9.444   7.067  1.00  0.00     0.022 A 
HETATM   32  C   UNL     1      42.335  -8.220   7.757  1.00  0.00    -0.025 A 
HETATM   33  C   UNL     1      43.410  -7.815   8.578  1.00  0.00    -0.026 A 
HETATM   34  C   UNL     1      41.208  -7.388   7.651  1.00  0.00     0.012 A 
HETATM   35  C   UNL     1      44.540  -8.636   8.675  1.00  0.00     0.013 A 
HETATM   36  C   UNL     1      43.327  -6.602   9.281  1.00  0.00     0.012 A 
HETATM   37  C   UNL     1      44.602  -9.849   7.986  1.00  0.00     0.011 A 
HETATM   38  C   UNL     1      42.194  -5.794   9.174  1.00  0.00     0.001 A 
HETATM   39  C   UNL     1      41.136  -6.186   8.357  1.00  0.00     0.001 A 
ENDBRANCH  25  30
ENDBRANCH   1  21
TORSDOF 7
ENDMDL
