MODEL 1
REMARK VINA RESULT:      -8.5      0.000      0.000
REMARK  3 active torsions:
REMARK  status: ('A' for Active; 'I' for Inactive)
REMARK    1  A    between atoms: C_5  and  N_6 
REMARK       I    between atoms: N_6  and  C_7 
REMARK    2  A    between atoms: C_7  and  C_8 
REMARK    3  A    between atoms: C_8  and  C_9 
ROOT
HETATM    1  C   UNL     1      41.643 -13.179   1.734  1.00  0.00     0.286 C 
HETATM    2  N   UNL     1      41.180 -13.952   0.505  1.00  0.00    -0.056 N 
HETATM    3  H   UNL     1      41.972 -13.905  -0.171  1.00  0.00     0.278 HD
HETATM    4  H   UNL     1      41.055 -14.945   0.728  1.00  0.00     0.278 HD
HETATM    5  C   UNL     1      39.931 -13.360  -0.098  1.00  0.00     0.209 C 
HETATM    6  C   UNL     1      40.207 -11.885  -0.493  1.00  0.00     0.115 C 
HETATM    7  N   UNL     1      40.829 -11.126   0.594  1.00  0.00    -0.353 N 
HETATM    8  C   UNL     1      41.723 -11.656   1.493  1.00  0.00     0.249 C 
HETATM    9  O   UNL     1      42.460 -10.919   2.138  1.00  0.00    -0.271 OA
HETATM   10  C   UNL     1      39.478 -14.222  -1.275  1.00  0.00     0.035 C 
HETATM   11  C   UNL     1      40.362 -14.070  -2.510  1.00  0.00     0.002 C 
HETATM   12  C   UNL     1      40.512 -12.608  -2.907  1.00  0.00     0.002 C 
HETATM   13  C   UNL     1      41.066 -11.769  -1.761  1.00  0.00     0.027 C 
HETATM   14  H   UNL     1      40.916 -10.118   0.484  1.00  0.00     0.163 HD
ENDROOT
BRANCH   1  15
HETATM   15  C   UNL     1      42.959 -13.739   2.288  1.00  0.00     0.146 C 
BRANCH  15  16
HETATM   16  C   UNL     1      42.848 -14.020   3.765  1.00  0.00     0.224 C 
HETATM   17  N   UNL     1      42.845 -15.280   4.268  1.00  0.00    -0.327 N 
HETATM   18  H   UNL     1      42.640 -15.288   5.263  1.00  0.00     0.169 HD
HETATM   19  O   UNL     1      42.791 -13.057   4.542  1.00  0.00    -0.273 OA
BRANCH  17  20
HETATM   20  C   UNL     1      43.034 -16.555   3.696  1.00  0.00     0.034 A 
HETATM   21  C   UNL     1      42.405 -17.031   2.547  1.00  0.00     0.030 A 
HETATM   22  C   UNL     1      42.673 -18.320   2.066  1.00  0.00     0.009 A 
HETATM   23  C   UNL     1      43.577 -19.158   2.725  1.00  0.00    -0.062 A 
HETATM   24  C   UNL     1      43.874 -20.525   2.186  1.00  0.00     0.048 C 
HETATM   25  C   UNL     1      44.240 -18.672   3.853  1.00  0.00     0.009 A 
HETATM   26  C   UNL     1      43.971 -17.385   4.330  1.00  0.00     0.030 A 
ENDBRANCH  17  20
ENDBRANCH  15  16
ENDBRANCH   1  15
TORSDOF 3
ENDMDL
MODEL 2
REMARK VINA RESULT:      -8.4      3.243      4.992
REMARK  3 active torsions:
REMARK  status: ('A' for Active; 'I' for Inactive)
REMARK    1  A    between atoms: C_5  and  N_6 
REMARK       I    between atoms: N_6  and  C_7 
REMARK    2  A    between atoms: C_7  and  C_8 
REMARK    3  A    between atoms: C_8  and  C_9 
ROOT
HETATM    1  C   UNL     1      40.573 -14.431   4.027  1.00  0.00     0.286 C 
HETATM    2  N   UNL     1      41.561 -13.346   3.621  1.00  0.00    -0.056 N 
HETATM    3  H   UNL     1      42.492 -13.814   3.580  1.00  0.00     0.278 HD
HETATM    4  H   UNL     1      41.367 -13.017   2.668  1.00  0.00     0.278 HD
HETATM    5  C   UNL     1      41.584 -12.203   4.605  1.00  0.00     0.209 C 
HETATM    6  C   UNL     1      41.967 -12.748   6.007  1.00  0.00     0.115 C 
HETATM    7  N   UNL     1      41.172 -13.918   6.384  1.00  0.00    -0.353 N 
HETATM    8  C   UNL     1      40.734 -14.873   5.497  1.00  0.00     0.249 C 
HETATM    9  O   UNL     1      40.392 -15.979   5.902  1.00  0.00    -0.271 OA
HETATM   10  C   UNL     1      42.534 -11.119   4.101  1.00  0.00     0.035 C 
HETATM   11  C   UNL     1      44.007 -11.497   4.233  1.00  0.00     0.002 C 
HETATM   12  C   UNL     1      44.343 -11.926   5.656  1.00  0.00     0.002 C 
HETATM   13  C   UNL     1      43.462 -13.081   6.116  1.00  0.00     0.027 C 
HETATM   14  H   UNL     1      41.247 -14.258   7.341  1.00  0.00     0.163 HD
ENDROOT
BRANCH   1  15
HETATM   15  C   UNL     1      40.620 -15.625   3.065  1.00  0.00     0.146 C 
BRANCH  15  16
HETATM   16  C   UNL     1      41.746 -15.477   2.074  1.00  0.00     0.224 C 
HETATM   17  N   UNL     1      42.882 -16.215   2.149  1.00  0.00    -0.327 N 
HETATM   18  H   UNL     1      43.580 -15.900   1.480  1.00  0.00     0.169 HD
HETATM   19  O   UNL     1      41.605 -14.673   1.142  1.00  0.00    -0.273 OA
BRANCH  17  20
HETATM   20  C   UNL     1      43.294 -17.286   2.968  1.00  0.00     0.034 A 
HETATM   21  C   UNL     1      43.646 -17.189   4.313  1.00  0.00     0.030 A 
HETATM   22  C   UNL     1      44.039 -18.326   5.034  1.00  0.00     0.009 A 
HETATM   23  C   UNL     1      44.085 -19.582   4.422  1.00  0.00    -0.062 A 
HETATM   24  C   UNL     1      44.482 -20.794   5.210  1.00  0.00     0.048 C 
HETATM   25  C   UNL     1      43.695 -19.690   3.087  1.00  0.00     0.009 A 
HETATM   26  C   UNL     1      43.303 -18.555   2.371  1.00  0.00     0.030 A 
ENDBRANCH  17  20
ENDBRANCH  15  16
ENDBRANCH   1  15
TORSDOF 3
ENDMDL
MODEL 3
REMARK VINA RESULT:      -8.0      1.713      2.089
REMARK  3 active torsions:
REMARK  status: ('A' for Active; 'I' for Inactive)
REMARK    1  A    between atoms: C_5  and  N_6 
REMARK       I    between atoms: N_6  and  C_7 
REMARK    2  A    between atoms: C_7  and  C_8 
REMARK    3  A    between atoms: C_8  and  C_9 
ROOT
HETATM    1  C   UNL     1      39.834 -14.929   1.421  1.00  0.00     0.286 C 
HETATM    2  N   UNL     1      40.235 -14.906  -0.048  1.00  0.00    -0.056 N 
HETATM    3  H   UNL     1      41.193 -14.496  -0.072  1.00  0.00     0.278 HD
HETATM    4  H   UNL     1      40.326 -15.860  -0.415  1.00  0.00     0.278 HD
HETATM    5  C   UNL     1      39.285 -14.084  -0.883  1.00  0.00     0.209 C 
HETATM    6  C   UNL     1      39.255 -12.632  -0.336  1.00  0.00     0.115 C 
HETATM    7  N   UNL     1      39.056 -12.588   1.114  1.00  0.00    -0.353 N 
HETATM    8  C   UNL     1      39.556 -13.521   1.991  1.00  0.00     0.249 C 
HETATM    9  O   UNL     1      39.660 -13.253   3.182  1.00  0.00    -0.271 OA
HETATM   10  C   UNL     1      39.698 -14.165  -2.351  1.00  0.00     0.035 C 
HETATM   11  C   UNL     1      40.956 -13.362  -2.669  1.00  0.00     0.002 C 
HETATM   12  C   UNL     1      40.826 -11.919  -2.199  1.00  0.00     0.002 C 
HETATM   13  C   UNL     1      40.518 -11.841  -0.708  1.00  0.00     0.027 C 
HETATM   14  H   UNL     1      38.877 -11.683   1.544  1.00  0.00     0.163 HD
ENDROOT
BRANCH   1  15
HETATM   15  C   UNL     1      40.852 -15.697   2.271  1.00  0.00     0.146 C 
BRANCH  15  16
HETATM   16  C   UNL     1      42.250 -15.182   2.038  1.00  0.00     0.224 C 
HETATM   17  N   UNL     1      43.351 -15.842   2.477  1.00  0.00    -0.327 N 
HETATM   18  H   UNL     1      44.197 -15.294   2.343  1.00  0.00     0.169 HD
HETATM   19  O   UNL     1      42.388 -14.133   1.393  1.00  0.00    -0.273 OA
BRANCH  17  20
HETATM   20  C   UNL     1      43.553 -17.093   3.096  1.00  0.00     0.034 A 
HETATM   21  C   UNL     1      43.578 -18.325   2.444  1.00  0.00     0.030 A 
HETATM   22  C   UNL     1      43.790 -19.510   3.163  1.00  0.00     0.009 A 
HETATM   23  C   UNL     1      43.984 -19.485   4.546  1.00  0.00    -0.062 A 
HETATM   24  C   UNL     1      44.235 -20.757   5.300  1.00  0.00     0.048 C 
HETATM   25  C   UNL     1      44.000 -18.251   5.197  1.00  0.00     0.009 A 
HETATM   26  C   UNL     1      43.787 -17.070   4.478  1.00  0.00     0.030 A 
ENDBRANCH  17  20
ENDBRANCH  15  16
ENDBRANCH   1  15
TORSDOF 3
ENDMDL
MODEL 4
REMARK VINA RESULT:      -7.9      2.505      6.905
REMARK  3 active torsions:
REMARK  status: ('A' for Active; 'I' for Inactive)
REMARK    1  A    between atoms: C_5  and  N_6 
REMARK       I    between atoms: N_6  and  C_7 
REMARK    2  A    between atoms: C_7  and  C_8 
REMARK    3  A    between atoms: C_8  and  C_9 
ROOT
HETATM    1  C   UNL     1      42.164 -16.553   4.848  1.00  0.00     0.286 C 
HETATM    2  N   UNL     1      42.327 -17.531   3.691  1.00  0.00    -0.056 N 
HETATM    3  H   UNL     1      41.748 -18.362   3.942  1.00  0.00     0.278 HD
HETATM    4  H   UNL     1      41.917 -17.149   2.832  1.00  0.00     0.278 HD
HETATM    5  C   UNL     1      43.767 -17.930   3.486  1.00  0.00     0.209 C 
HETATM    6  C   UNL     1      44.305 -18.580   4.788  1.00  0.00     0.115 C 
HETATM    7  N   UNL     1      44.015 -17.771   5.973  1.00  0.00    -0.353 N 
HETATM    8  C   UNL     1      42.875 -17.019   6.136  1.00  0.00     0.249 C 
HETATM    9  O   UNL     1      42.529 -16.659   7.255  1.00  0.00    -0.271 OA
HETATM   10  C   UNL     1      43.870 -18.848   2.269  1.00  0.00     0.035 C 
HETATM   11  C   UNL     1      43.331 -20.252   2.524  1.00  0.00     0.002 C 
HETATM   12  C   UNL     1      43.972 -20.876   3.757  1.00  0.00     0.002 C 
HETATM   13  C   UNL     1      43.773 -20.006   4.993  1.00  0.00     0.027 C 
HETATM   14  H   UNL     1      44.452 -18.039   6.853  1.00  0.00     0.163 HD
ENDROOT
BRANCH   1  15
HETATM   15  C   UNL     1      40.688 -16.221   5.100  1.00  0.00     0.146 C 
BRANCH  15  16
HETATM   16  C   UNL     1      40.487 -14.736   5.259  1.00  0.00     0.224 C 
HETATM   17  N   UNL     1      40.314 -13.908   4.197  1.00  0.00    -0.327 N 
HETATM   18  H   UNL     1      40.317 -12.930   4.478  1.00  0.00     0.169 HD
HETATM   19  O   UNL     1      40.447 -14.268   6.405  1.00  0.00    -0.273 OA
BRANCH  17  20
HETATM   20  C   UNL     1      40.164 -14.121   2.812  1.00  0.00     0.034 A 
HETATM   21  C   UNL     1      40.018 -15.362   2.194  1.00  0.00     0.030 A 
HETATM   22  C   UNL     1      39.873 -15.455   0.802  1.00  0.00     0.009 A 
HETATM   23  C   UNL     1      39.869 -14.308   0.003  1.00  0.00    -0.062 A 
HETATM   24  C   UNL     1      39.688 -14.420  -1.481  1.00  0.00     0.048 C 
HETATM   25  C   UNL     1      39.974 -13.062   0.621  1.00  0.00     0.009 A 
HETATM   26  C   UNL     1      40.119 -12.972   2.010  1.00  0.00     0.030 A 
ENDBRANCH  17  20
ENDBRANCH  15  16
ENDBRANCH   1  15
TORSDOF 3
ENDMDL
MODEL 5
REMARK VINA RESULT:      -7.9      1.994      3.049
REMARK  3 active torsions:
REMARK  status: ('A' for Active; 'I' for Inactive)
REMARK    1  A    between atoms: C_5  and  N_6 
REMARK       I    between atoms: N_6  and  C_7 
REMARK    2  A    between atoms: C_7  and  C_8 
REMARK    3  A    between atoms: C_8  and  C_9 
ROOT
HETATM    1  C   UNL     1      40.742 -12.974   0.333  1.00  0.00     0.286 C 
HETATM    2  N   UNL     1      40.186 -11.798  -0.460  1.00  0.00    -0.056 N 
HETATM    3  H   UNL     1      39.245 -11.605  -0.054  1.00  0.00     0.278 HD
HETATM    4  H   UNL     1      40.745 -10.954  -0.296  1.00  0.00     0.278 HD
HETATM    5  C   UNL     1      40.075 -12.109  -1.931  1.00  0.00     0.209 C 
HETATM    6  C   UNL     1      39.149 -13.340  -2.122  1.00  0.00     0.115 C 
HETATM    7  N   UNL     1      39.519 -14.454  -1.246  1.00  0.00    -0.353 N 
HETATM    8  C   UNL     1      40.019 -14.303   0.026  1.00  0.00     0.249 C 
HETATM    9  O   UNL     1      39.976 -15.237   0.819  1.00  0.00    -0.271 OA
HETATM   10  C   UNL     1      39.585 -10.869  -2.677  1.00  0.00     0.035 C 
HETATM   11  C   UNL     1      38.107 -10.569  -2.445  1.00  0.00     0.002 C 
HETATM   12  C   UNL     1      37.241 -11.786  -2.747  1.00  0.00     0.002 C 
HETATM   13  C   UNL     1      37.666 -12.995  -1.921  1.00  0.00     0.027 C 
HETATM   14  H   UNL     1      39.066 -15.353  -1.399  1.00  0.00     0.163 HD
ENDROOT
BRANCH   1  15
HETATM   15  C   UNL     1      40.771 -12.676   1.837  1.00  0.00     0.146 C 
BRANCH  15  16
HETATM   16  C   UNL     1      42.146 -12.243   2.276  1.00  0.00     0.224 C 
HETATM   17  N   UNL     1      43.074 -13.122   2.733  1.00  0.00    -0.327 N 
HETATM   18  H   UNL     1      43.895 -12.647   3.099  1.00  0.00     0.169 HD
HETATM   19  O   UNL     1      42.442 -11.044   2.182  1.00  0.00    -0.273 OA
BRANCH  17  20
HETATM   20  C   UNL     1      43.118 -14.528   2.828  1.00  0.00     0.034 A 
HETATM   21  C   UNL     1      42.887 -15.270   3.986  1.00  0.00     0.030 A 
HETATM   22  C   UNL     1      42.954 -16.670   3.963  1.00  0.00     0.009 A 
HETATM   23  C   UNL     1      43.251 -17.355   2.782  1.00  0.00    -0.062 A 
HETATM   24  C   UNL     1      43.295 -18.854   2.765  1.00  0.00     0.048 C 
HETATM   25  C   UNL     1      43.443 -16.619   1.612  1.00  0.00     0.009 A 
HETATM   26  C   UNL     1      43.375 -15.222   1.637  1.00  0.00     0.030 A 
ENDBRANCH  17  20
ENDBRANCH  15  16
ENDBRANCH   1  15
TORSDOF 3
ENDMDL
MODEL 6
REMARK VINA RESULT:      -7.7      3.739      6.705
REMARK  3 active torsions:
REMARK  status: ('A' for Active; 'I' for Inactive)
REMARK    1  A    between atoms: C_5  and  N_6 
REMARK       I    between atoms: N_6  and  C_7 
REMARK    2  A    between atoms: C_7  and  C_8 
REMARK    3  A    between atoms: C_8  and  C_9 
ROOT
HETATM    1  C   UNL     1      41.079 -13.377   4.616  1.00  0.00     0.286 C 
HETATM    2  N   UNL     1      42.130 -14.474   4.726  1.00  0.00    -0.056 N 
HETATM    3  H   UNL     1      42.744 -14.360   3.890  1.00  0.00     0.278 HD
HETATM    4  H   UNL     1      42.732 -14.319   5.542  1.00  0.00     0.278 HD
HETATM    5  C   UNL     1      41.513 -15.850   4.748  1.00  0.00     0.209 C 
HETATM    6  C   UNL     1      40.688 -16.058   3.450  1.00  0.00     0.115 C 
HETATM    7  N   UNL     1      39.781 -14.940   3.184  1.00  0.00    -0.353 N 
HETATM    8  C   UNL     1      40.064 -13.628   3.480  1.00  0.00     0.249 C 
HETATM    9  O   UNL     1      39.444 -12.724   2.930  1.00  0.00    -0.271 OA
HETATM   10  C   UNL     1      42.611 -16.895   4.936  1.00  0.00     0.035 C 
HETATM   11  C   UNL     1      43.467 -17.103   3.689  1.00  0.00     0.002 C 
HETATM   12  C   UNL     1      42.605 -17.404   2.470  1.00  0.00     0.002 C 
HETATM   13  C   UNL     1      41.579 -16.303   2.223  1.00  0.00     0.027 C 
HETATM   14  H   UNL     1      39.095 -15.048   2.439  1.00  0.00     0.163 HD
ENDROOT
BRANCH   1  15
HETATM   15  C   UNL     1      41.722 -11.989   4.510  1.00  0.00     0.146 C 
BRANCH  15  16
HETATM   16  C   UNL     1      43.126 -12.083   3.970  1.00  0.00     0.224 C 
HETATM   17  N   UNL     1      44.208 -11.679   4.683  1.00  0.00    -0.327 N 
HETATM   18  H   UNL     1      45.057 -11.699   4.124  1.00  0.00     0.169 HD
HETATM   19  O   UNL     1      43.291 -12.579   2.847  1.00  0.00    -0.273 OA
BRANCH  17  20
HETATM   20  C   UNL     1      44.385 -11.219   6.004  1.00  0.00     0.034 A 
HETATM   21  C   UNL     1      43.368 -10.807   6.863  1.00  0.00     0.030 A 
HETATM   22  C   UNL     1      43.662 -10.370   8.163  1.00  0.00     0.009 A 
HETATM   23  C   UNL     1      44.979 -10.339   8.628  1.00  0.00    -0.062 A 
HETATM   24  C   UNL     1      45.277  -9.893  10.029  1.00  0.00     0.048 C 
HETATM   25  C   UNL     1      45.997 -10.788   7.786  1.00  0.00     0.009 A 
HETATM   26  C   UNL     1      45.701 -11.224   6.490  1.00  0.00     0.030 A 
ENDBRANCH  17  20
ENDBRANCH  15  16
ENDBRANCH   1  15
TORSDOF 3
ENDMDL
MODEL 7
REMARK VINA RESULT:      -7.5      4.705      7.729
REMARK  3 active torsions:
REMARK  status: ('A' for Active; 'I' for Inactive)
REMARK    1  A    between atoms: C_5  and  N_6 
REMARK       I    between atoms: N_6  and  C_7 
REMARK    2  A    between atoms: C_7  and  C_8 
REMARK    3  A    between atoms: C_8  and  C_9 
ROOT
HETATM    1  C   UNL     1      41.944 -13.316   6.023  1.00  0.00     0.286 C 
HETATM    2  N   UNL     1      42.804 -14.150   5.081  1.00  0.00    -0.056 N 
HETATM    3  H   UNL     1      42.514 -13.875   4.118  1.00  0.00     0.278 HD
HETATM    4  H   UNL     1      43.792 -13.889   5.166  1.00  0.00     0.278 HD
HETATM    5  C   UNL     1      42.604 -15.630   5.293  1.00  0.00     0.209 C 
HETATM    6  C   UNL     1      41.108 -15.978   5.067  1.00  0.00     0.115 C 
HETATM    7  N   UNL     1      40.213 -15.085   5.807  1.00  0.00    -0.353 N 
HETATM    8  C   UNL     1      40.464 -13.753   6.033  1.00  0.00     0.249 C 
HETATM    9  O   UNL     1      39.548 -12.997   6.336  1.00  0.00    -0.271 OA
HETATM   10  C   UNL     1      43.546 -16.406   4.375  1.00  0.00     0.035 C 
HETATM   11  C   UNL     1      43.122 -16.376   2.910  1.00  0.00     0.002 C 
HETATM   12  C   UNL     1      41.676 -16.825   2.742  1.00  0.00     0.002 C 
HETATM   13  C   UNL     1      40.726 -15.977   3.580  1.00  0.00     0.027 C 
HETATM   14  H   UNL     1      39.223 -15.322   5.839  1.00  0.00     0.163 HD
ENDROOT
BRANCH   1  15
HETATM   15  C   UNL     1      42.093 -11.816   5.741  1.00  0.00     0.146 C 
BRANCH  15  16
HETATM   16  C   UNL     1      43.535 -11.451   5.497  1.00  0.00     0.224 C 
HETATM   17  N   UNL     1      44.273 -10.758   6.401  1.00  0.00    -0.327 N 
HETATM   18  H   UNL     1      45.180 -10.494   6.024  1.00  0.00     0.169 HD
HETATM   19  O   UNL     1      44.066 -11.831   4.444  1.00  0.00    -0.273 OA
BRANCH  17  20
HETATM   20  C   UNL     1      44.032 -10.314   7.717  1.00  0.00     0.034 A 
HETATM   21  C   UNL     1      42.844  -9.751   8.178  1.00  0.00     0.030 A 
HETATM   22  C   UNL     1      42.715  -9.346   9.515  1.00  0.00     0.009 A 
HETATM   23  C   UNL     1      43.772  -9.499  10.415  1.00  0.00    -0.062 A 
HETATM   24  C   UNL     1      43.613  -9.085  11.848  1.00  0.00     0.048 C 
HETATM   25  C   UNL     1      44.950 -10.099   9.969  1.00  0.00     0.009 A 
HETATM   26  C   UNL     1      45.076 -10.502   8.635  1.00  0.00     0.030 A 
ENDBRANCH  17  20
ENDBRANCH  15  16
ENDBRANCH   1  15
TORSDOF 3
ENDMDL
MODEL 8
REMARK VINA RESULT:      -7.5      3.733      7.478
REMARK  3 active torsions:
REMARK  status: ('A' for Active; 'I' for Inactive)
REMARK    1  A    between atoms: C_5  and  N_6 
REMARK       I    between atoms: N_6  and  C_7 
REMARK    2  A    between atoms: C_7  and  C_8 
REMARK    3  A    between atoms: C_8  and  C_9 
ROOT
HETATM    1  C   UNL     1      42.288 -16.528   4.680  1.00  0.00     0.286 C 
HETATM    2  N   UNL     1      42.537 -17.564   3.591  1.00  0.00    -0.056 N 
HETATM    3  H   UNL     1      41.873 -18.344   3.788  1.00  0.00     0.278 HD
HETATM    4  H   UNL     1      42.275 -17.193   2.671  1.00  0.00     0.278 HD
HETATM    5  C   UNL     1      43.960 -18.064   3.600  1.00  0.00     0.209 C 
HETATM    6  C   UNL     1      44.270 -18.690   4.986  1.00  0.00     0.115 C 
HETATM    7  N   UNL     1      43.879 -17.813   6.091  1.00  0.00    -0.353 N 
HETATM    8  C   UNL     1      42.784 -16.982   6.069  1.00  0.00     0.249 C 
HETATM    9  O   UNL     1      42.315 -16.552   7.117  1.00  0.00    -0.271 OA
HETATM   10  C   UNL     1      44.162 -19.038   2.441  1.00  0.00     0.035 C 
HETATM   11  C   UNL     1      43.496 -20.392   2.668  1.00  0.00     0.002 C 
HETATM   12  C   UNL     1      43.919 -21.002   3.998  1.00  0.00     0.002 C 
HETATM   13  C   UNL     1      43.616 -20.068   5.164  1.00  0.00     0.027 C 
HETATM   14  H   UNL     1      44.173 -18.070   7.032  1.00  0.00     0.163 HD
ENDROOT
BRANCH   1  15
HETATM   15  C   UNL     1      40.819 -16.090   4.715  1.00  0.00     0.146 C 
BRANCH  15  16
HETATM   16  C   UNL     1      40.468 -15.272   3.498  1.00  0.00     0.224 C 
HETATM   17  N   UNL     1      40.679 -13.932   3.437  1.00  0.00    -0.327 N 
HETATM   18  H   UNL     1      40.274 -13.525   2.598  1.00  0.00     0.169 HD
HETATM   19  O   UNL     1      40.001 -15.858   2.512  1.00  0.00    -0.273 OA
BRANCH  17  20
HETATM   20  C   UNL     1      41.306 -13.006   4.296  1.00  0.00     0.034 A 
HETATM   21  C   UNL     1      42.668 -12.708   4.310  1.00  0.00     0.030 A 
HETATM   22  C   UNL     1      43.183 -11.763   5.210  1.00  0.00     0.009 A 
HETATM   23  C   UNL     1      42.346 -11.098   6.110  1.00  0.00    -0.062 A 
HETATM   24  C   UNL     1      42.906 -10.072   7.049  1.00  0.00     0.048 C 
HETATM   25  C   UNL     1      40.977 -11.365   6.071  1.00  0.00     0.009 A 
HETATM   26  C   UNL     1      40.465 -12.307   5.173  1.00  0.00     0.030 A 
ENDBRANCH  17  20
ENDBRANCH  15  16
ENDBRANCH   1  15
TORSDOF 3
ENDMDL
MODEL 9
REMARK VINA RESULT:      -7.4      2.446      6.186
REMARK  3 active torsions:
REMARK  status: ('A' for Active; 'I' for Inactive)
REMARK    1  A    between atoms: C_5  and  N_6 
REMARK       I    between atoms: N_6  and  C_7 
REMARK    2  A    between atoms: C_7  and  C_8 
REMARK    3  A    between atoms: C_8  and  C_9 
ROOT
HETATM    1  C   UNL     1      41.956 -13.439   5.936  1.00  0.00     0.286 C 
HETATM    2  N   UNL     1      42.839 -14.282   5.025  1.00  0.00    -0.056 N 
HETATM    3  H   UNL     1      42.597 -13.993   4.052  1.00  0.00     0.278 HD
HETATM    4  H   UNL     1      43.828 -14.043   5.155  1.00  0.00     0.278 HD
HETATM    5  C   UNL     1      42.600 -15.759   5.214  1.00  0.00     0.209 C 
HETATM    6  C   UNL     1      41.109 -16.075   4.920  1.00  0.00     0.115 C 
HETATM    7  N   UNL     1      40.200 -15.171   5.628  1.00  0.00    -0.353 N 
HETATM    8  C   UNL     1      40.468 -13.846   5.878  1.00  0.00     0.249 C 
HETATM    9  O   UNL     1      39.556 -13.073   6.147  1.00  0.00    -0.271 OA
HETATM   10  C   UNL     1      43.566 -16.547   4.331  1.00  0.00     0.035 C 
HETATM   11  C   UNL     1      43.207 -16.496   2.849  1.00  0.00     0.002 C 
HETATM   12  C   UNL     1      41.761 -16.914   2.615  1.00  0.00     0.002 C 
HETATM   13  C   UNL     1      40.792 -16.054   3.418  1.00  0.00     0.027 C 
HETATM   14  H   UNL     1      39.205 -15.387   5.615  1.00  0.00     0.163 HD
ENDROOT
BRANCH   1  15
HETATM   15  C   UNL     1      42.147 -11.940   5.675  1.00  0.00     0.146 C 
BRANCH  15  16
HETATM   16  C   UNL     1      43.402 -11.685   4.880  1.00  0.00     0.224 C 
HETATM   17  N   UNL     1      43.403 -11.613   3.524  1.00  0.00    -0.327 N 
HETATM   18  H   UNL     1      44.346 -11.559   3.151  1.00  0.00     0.169 HD
HETATM   19  O   UNL     1      44.461 -11.503   5.497  1.00  0.00    -0.273 OA
BRANCH  17  20
HETATM   20  C   UNL     1      42.384 -11.628   2.549  1.00  0.00     0.034 A 
HETATM   21  C   UNL     1      41.680 -10.514   2.096  1.00  0.00     0.030 A 
HETATM   22  C   UNL     1      40.685 -10.647   1.116  1.00  0.00     0.009 A 
HETATM   23  C   UNL     1      40.378 -11.896   0.571  1.00  0.00    -0.062 A 
HETATM   24  C   UNL     1      39.330 -12.021  -0.494  1.00  0.00     0.048 C 
HETATM   25  C   UNL     1      41.108 -13.008   0.992  1.00  0.00     0.009 A 
HETATM   26  C   UNL     1      42.100 -12.873   1.970  1.00  0.00     0.030 A 
ENDBRANCH  17  20
ENDBRANCH  15  16
ENDBRANCH   1  15
TORSDOF 3
ENDMDL
MODEL 10
REMARK VINA RESULT:      -7.3      1.943      6.411
REMARK  3 active torsions:
REMARK  status: ('A' for Active; 'I' for Inactive)
REMARK    1  A    between atoms: C_5  and  N_6 
REMARK       I    between atoms: N_6  and  C_7 
REMARK    2  A    between atoms: C_7  and  C_8 
REMARK    3  A    between atoms: C_8  and  C_9 
ROOT
HETATM    1  C   UNL     1      40.708 -13.042   3.493  1.00  0.00     0.286 C 
HETATM    2  N   UNL     1      41.481 -13.840   2.451  1.00  0.00    -0.056 N 
HETATM    3  H   UNL     1      40.894 -14.677   2.244  1.00  0.00     0.278 HD
HETATM    4  H   UNL     1      41.549 -13.317   1.570  1.00  0.00     0.278 HD
HETATM    5  C   UNL     1      42.841 -14.257   2.951  1.00  0.00     0.209 C 
HETATM    6  C   UNL     1      42.671 -15.116   4.232  1.00  0.00     0.115 C 
HETATM    7  N   UNL     1      41.781 -14.484   5.209  1.00  0.00    -0.353 N 
HETATM    8  C   UNL     1      40.685 -13.723   4.878  1.00  0.00     0.249 C 
HETATM    9  O   UNL     1      39.801 -13.524   5.703  1.00  0.00    -0.271 OA
HETATM   10  C   UNL     1      43.591 -14.984   1.836  1.00  0.00     0.035 C 
HETATM   11  C   UNL     1      43.061 -16.390   1.569  1.00  0.00     0.002 C 
HETATM   12  C   UNL     1      43.013 -17.216   2.847  1.00  0.00     0.002 C 
HETATM   13  C   UNL     1      42.173 -16.535   3.923  1.00  0.00     0.027 C 
HETATM   14  H   UNL     1      41.721 -14.898   6.138  1.00  0.00     0.163 HD
ENDROOT
BRANCH   1  15
HETATM   15  C   UNL     1      39.296 -12.697   3.004  1.00  0.00     0.146 C 
BRANCH  15  16
HETATM   16  C   UNL     1      39.275 -11.358   2.312  1.00  0.00     0.224 C 
HETATM   17  N   UNL     1      39.233 -11.239   0.961  1.00  0.00    -0.327 N 
HETATM   18  H   UNL     1      39.349 -10.273   0.664  1.00  0.00     0.169 HD
HETATM   19  O   UNL     1      39.264 -10.336   3.012  1.00  0.00    -0.273 OA
BRANCH  17  20
HETATM   20  C   UNL     1      39.094 -12.165  -0.094  1.00  0.00     0.034 A 
HETATM   21  C   UNL     1      40.014 -13.157  -0.427  1.00  0.00     0.030 A 
HETATM   22  C   UNL     1      39.769 -14.028  -1.498  1.00  0.00     0.009 A 
HETATM   23  C   UNL     1      38.599 -13.923  -2.255  1.00  0.00    -0.062 A 
HETATM   24  C   UNL     1      38.338 -14.877  -3.383  1.00  0.00     0.048 C 
HETATM   25  C   UNL     1      37.658 -12.957  -1.900  1.00  0.00     0.009 A 
HETATM   26  C   UNL     1      37.904 -12.089  -0.831  1.00  0.00     0.030 A 
ENDBRANCH  17  20
ENDBRANCH  15  16
ENDBRANCH   1  15
TORSDOF 3
ENDMDL
