MODEL 1
REMARK VINA RESULT:      -9.1      0.000      0.000
REMARK  10 active torsions:
REMARK  status: ('A' for Active; 'I' for Inactive)
REMARK    1  A    between atoms: N_2  and  C_4 
REMARK    2  A    between atoms: C_4  and  C_5 
REMARK    3  A    between atoms: N_6  and  C_7 
REMARK    4  A    between atoms: C_11  and  N_12 
REMARK    5  A    between atoms: C_15  and  C_16 
REMARK       I    between atoms: C_16  and  N_17 
REMARK    6  A    between atoms: N_17  and  N_18 
REMARK    7  A    between atoms: C_19  and  C_20 
REMARK    8  A    between atoms: C_22  and  O_23 
REMARK    9  A    between atoms: O_23  and  C_24 
REMARK   10  A    between atoms: C_24  and  C_25 
ROOT
HETATM    1  C   UNL     1      40.542 -10.537   6.471  1.00  0.00     0.293 C 
HETATM    2  N   UNL     1      40.745 -11.901   6.409  1.00  0.00    -0.242 N 
HETATM    3  O   UNL     1      40.738  -9.736   5.555  1.00  0.00    -0.264 OA
HETATM    4  H   UNL     1      40.571 -12.492   7.219  1.00  0.00     0.192 HD
ENDROOT
BRANCH   1   5
HETATM    5  C   UNL     1      40.072 -10.045   7.759  1.00  0.00     0.170 A 
HETATM    6  C   UNL     1      40.873  -9.589   8.799  1.00  0.00     0.096 A 
HETATM    7  N   UNL     1      39.976  -9.332   9.836  1.00  0.00    -0.215 N 
HETATM    8  N   UNL     1      38.712  -9.516   9.363  1.00  0.00     0.012 NA
HETATM    9  N   UNL     1      38.764  -9.971   8.123  1.00  0.00    -0.152 NA
BRANCH   6  10
HETATM   10  C   UNL     1      42.336  -9.335   8.809  1.00  0.00     0.295 C 
BRANCH  10  11
HETATM   11  N   UNL     1      43.163 -10.508   9.273  1.00  0.00    -0.073 N 
HETATM   12  C   UNL     1      43.781 -10.321  10.623  1.00  0.00     0.269 C 
HETATM   13  H   UNL     1      42.504 -11.314   9.322  1.00  0.00     0.279 HD
HETATM   14  C   UNL     1      44.181 -10.918   8.248  1.00  0.00     0.269 C 
ENDBRANCH  10  11
ENDBRANCH   6  10
BRANCH   7  15
HETATM   15  C   UNL     1      40.231  -8.992  11.186  1.00  0.00     0.225 A 
HETATM   16  N   UNL     1      40.922  -7.889  11.483  1.00  0.00    -0.081 NA
HETATM   17  O   UNL     1      40.993  -7.904  12.878  1.00  0.00    -0.103 OA
HETATM   18  N   UNL     1      40.364  -9.025  13.399  1.00  0.00    -0.083 NA
HETATM   19  C   UNL     1      39.895  -9.701  12.353  1.00  0.00     0.201 A 
BRANCH  19  20
HETATM   20  N   UNL     1      39.218 -10.857  12.437  1.00  0.00    -0.379 N 
HETATM   21  H   UNL     1      39.719 -11.742  12.431  1.00  0.00     0.158 HD
HETATM   22  H   UNL     1      38.213 -10.935  12.297  1.00  0.00     0.158 HD
ENDBRANCH  19  20
ENDBRANCH   7  15
ENDBRANCH   1   5
BRANCH   2  23
HETATM   23  N   UNL     1      41.128 -12.455   5.226  1.00  0.00    -0.184 NA
HETATM   24  C   UNL     1      40.319 -13.317   4.698  1.00  0.00     0.150 C 
BRANCH  24  25
HETATM   25  C   UNL     1      40.628 -13.955   3.400  1.00  0.00    -0.014 A 
HETATM   26  C   UNL     1      41.090 -15.273   3.375  1.00  0.00     0.049 A 
HETATM   27  C   UNL     1      41.357 -15.897   2.153  1.00  0.00     0.070 A 
HETATM   28  C   UNL     1      41.184 -15.186   0.962  1.00  0.00     0.037 A 
HETATM   29  C   UNL     1      40.729 -13.867   0.990  1.00  0.00     0.004 A 
HETATM   30  C   UNL     1      40.447 -13.250   2.206  1.00  0.00     0.013 A 
BRANCH  27  31
HETATM   31  O   UNL     1      41.805 -17.188   2.243  1.00  0.00    -0.346 OA
BRANCH  31  32
HETATM   32  C   UNL     1      43.224 -17.353   2.320  1.00  0.00     0.219 C 
BRANCH  32  33
HETATM   33  C   UNL     1      43.552 -18.502   3.238  1.00  0.00     0.026 A 
HETATM   34  C   UNL     1      43.801 -18.339   4.608  1.00  0.00     0.045 A 
HETATM   35 CL   UNL     1      43.754 -16.785   5.365  1.00  0.00    -0.084 Cl
HETATM   36  C   UNL     1      44.078 -19.445   5.422  1.00  0.00     0.024 A 
HETATM   37  C   UNL     1      44.102 -20.731   4.881  1.00  0.00     0.005 A 
HETATM   38  C   UNL     1      43.850 -20.909   3.525  1.00  0.00     0.043 A 
HETATM   39  C   UNL     1      43.580 -19.802   2.722  1.00  0.00     0.126 A 
HETATM   40  F   UNL     1      43.326 -20.011   1.422  1.00  0.00    -0.205 F 
ENDBRANCH  32  33
ENDBRANCH  31  32
ENDBRANCH  27  31
ENDBRANCH  24  25
ENDBRANCH   2  23
TORSDOF 10
ENDMDL
MODEL 2
REMARK VINA RESULT:      -9.0      1.642      2.714
REMARK  10 active torsions:
REMARK  status: ('A' for Active; 'I' for Inactive)
REMARK    1  A    between atoms: N_2  and  C_4 
REMARK    2  A    between atoms: C_4  and  C_5 
REMARK    3  A    between atoms: N_6  and  C_7 
REMARK    4  A    between atoms: C_11  and  N_12 
REMARK    5  A    between atoms: C_15  and  C_16 
REMARK       I    between atoms: C_16  and  N_17 
REMARK    6  A    between atoms: N_17  and  N_18 
REMARK    7  A    between atoms: C_19  and  C_20 
REMARK    8  A    between atoms: C_22  and  O_23 
REMARK    9  A    between atoms: O_23  and  C_24 
REMARK   10  A    between atoms: C_24  and  C_25 
ROOT
HETATM    1  C   UNL     1      43.587 -11.577   6.598  1.00  0.00     0.293 C 
HETATM    2  N   UNL     1      42.750 -12.675   6.613  1.00  0.00    -0.242 N 
HETATM    3  O   UNL     1      44.244 -11.183   5.633  1.00  0.00    -0.264 OA
HETATM    4  H   UNL     1      42.253 -12.941   7.459  1.00  0.00     0.192 HD
ENDROOT
BRANCH   1   5
HETATM    5  C   UNL     1      43.683 -10.864   7.864  1.00  0.00     0.170 A 
HETATM    6  C   UNL     1      42.834  -9.853   8.298  1.00  0.00     0.096 A 
HETATM    7  N   UNL     1      43.393  -9.426   9.502  1.00  0.00    -0.215 N 
HETATM    8  N   UNL     1      44.442 -10.243   9.800  1.00  0.00     0.012 NA
HETATM    9  N   UNL     1      44.639 -11.093   8.805  1.00  0.00    -0.152 NA
BRANCH   6  10
HETATM   10  C   UNL     1      41.566  -9.374   7.691  1.00  0.00     0.295 C 
BRANCH  10  11
HETATM   11  N   UNL     1      40.341 -10.132   8.140  1.00  0.00    -0.073 N 
HETATM   12  C   UNL     1      39.494 -10.641   7.015  1.00  0.00     0.269 C 
HETATM   13  H   UNL     1      40.699 -10.949   8.678  1.00  0.00     0.279 HD
HETATM   14  C   UNL     1      39.532  -9.352   9.135  1.00  0.00     0.269 C 
ENDBRANCH  10  11
ENDBRANCH   6  10
BRANCH   7  15
HETATM   15  C   UNL     1      43.046  -8.322  10.318  1.00  0.00     0.225 A 
HETATM   16  N   UNL     1      43.041  -7.087   9.811  1.00  0.00    -0.081 NA
HETATM   17  O   UNL     1      42.686  -6.282  10.895  1.00  0.00    -0.103 OA
HETATM   18  N   UNL     1      42.505  -7.039  12.043  1.00  0.00    -0.083 NA
HETATM   19  C   UNL     1      42.731  -8.302  11.687  1.00  0.00     0.201 A 
BRANCH  19  20
HETATM   20  N   UNL     1      42.656  -9.351  12.522  1.00  0.00    -0.379 N 
HETATM   21  H   UNL     1      43.008  -9.271  13.472  1.00  0.00     0.158 HD
HETATM   22  H   UNL     1      42.461 -10.302  12.218  1.00  0.00     0.158 HD
ENDBRANCH  19  20
ENDBRANCH   7  15
ENDBRANCH   1   5
BRANCH   2  23
HETATM   23  N   UNL     1      42.555 -13.367   5.457  1.00  0.00    -0.184 NA
HETATM   24  C   UNL     1      41.340 -13.426   5.012  1.00  0.00     0.150 C 
BRANCH  24  25
HETATM   25  C   UNL     1      41.025 -14.128   3.750  1.00  0.00    -0.014 A 
HETATM   26  C   UNL     1      41.546 -15.405   3.525  1.00  0.00     0.049 A 
HETATM   27  C   UNL     1      41.230 -16.092   2.349  1.00  0.00     0.070 A 
HETATM   28  C   UNL     1      40.414 -15.482   1.391  1.00  0.00     0.037 A 
HETATM   29  C   UNL     1      39.901 -14.204   1.615  1.00  0.00     0.004 A 
HETATM   30  C   UNL     1      40.202 -13.526   2.794  1.00  0.00     0.013 A 
BRANCH  27  31
HETATM   31  O   UNL     1      41.794 -17.334   2.231  1.00  0.00    -0.346 OA
BRANCH  31  32
HETATM   32  C   UNL     1      43.213 -17.395   2.396  1.00  0.00     0.219 C 
BRANCH  32  33
HETATM   33  C   UNL     1      43.573 -18.568   3.270  1.00  0.00     0.026 A 
HETATM   34  C   UNL     1      43.854 -18.444   4.638  1.00  0.00     0.045 A 
HETATM   35 CL   UNL     1      43.813 -16.914   5.443  1.00  0.00    -0.084 Cl
HETATM   36  C   UNL     1      44.158 -19.572   5.411  1.00  0.00     0.024 A 
HETATM   37  C   UNL     1      44.179 -20.841   4.831  1.00  0.00     0.005 A 
HETATM   38  C   UNL     1      43.896 -20.980   3.476  1.00  0.00     0.043 A 
HETATM   39  C   UNL     1      43.598 -19.852   2.715  1.00  0.00     0.126 A 
HETATM   40  F   UNL     1      43.314 -20.023   1.415  1.00  0.00    -0.205 F 
ENDBRANCH  32  33
ENDBRANCH  31  32
ENDBRANCH  27  31
ENDBRANCH  24  25
ENDBRANCH   2  23
TORSDOF 10
ENDMDL
MODEL 3
REMARK VINA RESULT:      -8.8      4.956     11.250
REMARK  10 active torsions:
REMARK  status: ('A' for Active; 'I' for Inactive)
REMARK    1  A    between atoms: N_2  and  C_4 
REMARK    2  A    between atoms: C_4  and  C_5 
REMARK    3  A    between atoms: N_6  and  C_7 
REMARK    4  A    between atoms: C_11  and  N_12 
REMARK    5  A    between atoms: C_15  and  C_16 
REMARK       I    between atoms: C_16  and  N_17 
REMARK    6  A    between atoms: N_17  and  N_18 
REMARK    7  A    between atoms: C_19  and  C_20 
REMARK    8  A    between atoms: C_22  and  O_23 
REMARK    9  A    between atoms: O_23  and  C_24 
REMARK   10  A    between atoms: C_24  and  C_25 
ROOT
HETATM    1  C   UNL     1      42.974 -15.090   6.514  1.00  0.00     0.293 C 
HETATM    2  N   UNL     1      43.989 -14.159   6.415  1.00  0.00    -0.242 N 
HETATM    3  O   UNL     1      41.858 -14.892   6.998  1.00  0.00    -0.264 OA
HETATM    4  H   UNL     1      44.889 -14.409   6.013  1.00  0.00     0.192 HD
ENDROOT
BRANCH   1   5
HETATM    5  C   UNL     1      43.306 -16.414   6.006  1.00  0.00     0.170 A 
HETATM    6  C   UNL     1      43.357 -16.784   4.667  1.00  0.00     0.096 A 
HETATM    7  N   UNL     1      43.611 -18.155   4.699  1.00  0.00    -0.215 N 
HETATM    8  N   UNL     1      43.819 -18.522   5.995  1.00  0.00     0.012 NA
HETATM    9  N   UNL     1      43.610 -17.484   6.788  1.00  0.00    -0.152 NA
BRANCH   6  10
HETATM   10  C   UNL     1      43.258 -15.929   3.457  1.00  0.00     0.295 C 
BRANCH  10  11
HETATM   11  N   UNL     1      41.981 -16.110   2.676  1.00  0.00    -0.073 N 
HETATM   12  C   UNL     1      41.892 -15.258   1.448  1.00  0.00     0.269 C 
HETATM   13  H   UNL     1      41.971 -17.110   2.383  1.00  0.00     0.279 HD
HETATM   14  C   UNL     1      40.765 -15.961   3.543  1.00  0.00     0.269 C 
ENDBRANCH  10  11
ENDBRANCH   6  10
BRANCH   7  15
HETATM   15  C   UNL     1      43.618 -19.097   3.642  1.00  0.00     0.225 A 
HETATM   16  N   UNL     1      43.266 -18.726   2.409  1.00  0.00    -0.081 NA
HETATM   17  O   UNL     1      43.367 -19.904   1.664  1.00  0.00    -0.103 OA
HETATM   18  N   UNL     1      43.755 -20.969   2.462  1.00  0.00    -0.083 NA
HETATM   19  C   UNL     1      43.907 -20.472   3.687  1.00  0.00     0.201 A 
BRANCH  19  20
HETATM   20  N   UNL     1      44.279 -21.191   4.758  1.00  0.00    -0.379 N 
HETATM   21  H   UNL     1      45.252 -21.205   5.049  1.00  0.00     0.158 HD
HETATM   22  H   UNL     1      43.694 -21.902   5.192  1.00  0.00     0.158 HD
ENDBRANCH  19  20
ENDBRANCH   7  15
ENDBRANCH   1   5
BRANCH   2  23
HETATM   23  N   UNL     1      43.748 -12.880   6.813  1.00  0.00    -0.184 NA
HETATM   24  C   UNL     1      44.754 -12.220   7.293  1.00  0.00     0.150 C 
BRANCH  24  25
HETATM   25  C   UNL     1      44.604 -10.815   7.727  1.00  0.00    -0.014 A 
HETATM   26  C   UNL     1      43.329 -10.309   7.991  1.00  0.00     0.049 A 
HETATM   27  C   UNL     1      43.178  -8.990   8.431  1.00  0.00     0.070 A 
HETATM   28  C   UNL     1      44.305  -8.177   8.579  1.00  0.00     0.037 A 
HETATM   29  C   UNL     1      45.578  -8.683   8.308  1.00  0.00     0.004 A 
HETATM   30  C   UNL     1      45.731 -10.001   7.885  1.00  0.00     0.013 A 
BRANCH  27  31
HETATM   31  O   UNL     1      41.886  -8.597   8.660  1.00  0.00    -0.346 OA
BRANCH  31  32
HETATM   32  C   UNL     1      41.267  -9.136   9.832  1.00  0.00     0.219 C 
BRANCH  32  33
HETATM   33  C   UNL     1      41.793  -8.431  11.054  1.00  0.00     0.026 A 
HETATM   34  C   UNL     1      42.737  -9.002  11.920  1.00  0.00     0.045 A 
HETATM   35 CL   UNL     1      43.379 -10.585  11.653  1.00  0.00    -0.084 Cl
HETATM   36  C   UNL     1      43.212  -8.291  13.030  1.00  0.00     0.024 A 
HETATM   37  C   UNL     1      42.758  -6.997  13.288  1.00  0.00     0.005 A 
HETATM   38  C   UNL     1      41.827  -6.415  12.433  1.00  0.00     0.043 A 
HETATM   39  C   UNL     1      41.357  -7.131  11.334  1.00  0.00     0.126 A 
HETATM   40  F   UNL     1      40.472  -6.534  10.522  1.00  0.00    -0.205 F 
ENDBRANCH  32  33
ENDBRANCH  31  32
ENDBRANCH  27  31
ENDBRANCH  24  25
ENDBRANCH   2  23
TORSDOF 10
ENDMDL
MODEL 4
REMARK VINA RESULT:      -8.7      2.508      5.036
REMARK  10 active torsions:
REMARK  status: ('A' for Active; 'I' for Inactive)
REMARK    1  A    between atoms: N_2  and  C_4 
REMARK    2  A    between atoms: C_4  and  C_5 
REMARK    3  A    between atoms: N_6  and  C_7 
REMARK    4  A    between atoms: C_11  and  N_12 
REMARK    5  A    between atoms: C_15  and  C_16 
REMARK       I    between atoms: C_16  and  N_17 
REMARK    6  A    between atoms: N_17  and  N_18 
REMARK    7  A    between atoms: C_19  and  C_20 
REMARK    8  A    between atoms: C_22  and  O_23 
REMARK    9  A    between atoms: O_23  and  C_24 
REMARK   10  A    between atoms: C_24  and  C_25 
ROOT
HETATM    1  C   UNL     1      44.144 -11.806   7.003  1.00  0.00     0.293 C 
HETATM    2  N   UNL     1      43.254 -12.856   7.109  1.00  0.00    -0.242 N 
HETATM    3  O   UNL     1      44.941 -11.626   6.081  1.00  0.00    -0.264 OA
HETATM    4  H   UNL     1      42.637 -12.938   7.914  1.00  0.00     0.192 HD
ENDROOT
BRANCH   1   5
HETATM    5  C   UNL     1      44.112 -10.861   8.111  1.00  0.00     0.170 A 
HETATM    6  C   UNL     1      43.248  -9.780   8.236  1.00  0.00     0.096 A 
HETATM    7  N   UNL     1      43.674  -9.131   9.395  1.00  0.00    -0.215 N 
HETATM    8  N   UNL     1      44.656  -9.883   9.969  1.00  0.00     0.012 NA
HETATM    9  N   UNL     1      44.942 -10.910   9.187  1.00  0.00    -0.152 NA
BRANCH   6  10
HETATM   10  C   UNL     1      42.076  -9.419   7.399  1.00  0.00     0.295 C 
BRANCH  10  11
HETATM   11  N   UNL     1      40.789 -10.083   7.819  1.00  0.00    -0.073 N 
HETATM   12  C   UNL     1      40.019 -10.689   6.687  1.00  0.00     0.269 C 
HETATM   13  H   UNL     1      41.067 -10.846   8.472  1.00  0.00     0.279 HD
HETATM   14  C   UNL     1      39.931  -9.172   8.648  1.00  0.00     0.269 C 
ENDBRANCH  10  11
ENDBRANCH   6  10
BRANCH   7  15
HETATM   15  C   UNL     1      43.268  -7.888   9.936  1.00  0.00     0.225 A 
HETATM   16  N   UNL     1      43.450  -6.762   9.242  1.00  0.00    -0.081 NA
HETATM   17  O   UNL     1      42.963  -5.764  10.090  1.00  0.00    -0.103 OA
HETATM   18  N   UNL     1      42.516  -6.300  11.289  1.00  0.00    -0.083 NA
HETATM   19  C   UNL     1      42.708  -7.614  11.195  1.00  0.00     0.201 A 
BRANCH  19  20
HETATM   20  N   UNL     1      42.402  -8.497  12.160  1.00  0.00    -0.379 N 
HETATM   21  H   UNL     1      41.626  -8.314  12.790  1.00  0.00     0.158 HD
HETATM   22  H   UNL     1      43.020  -9.251  12.453  1.00  0.00     0.158 HD
ENDBRANCH  19  20
ENDBRANCH   7  15
ENDBRANCH   1   5
BRANCH   2  23
HETATM   23  N   UNL     1      43.175 -13.755   6.090  1.00  0.00    -0.184 NA
HETATM   24  C   UNL     1      43.676 -14.930   6.311  1.00  0.00     0.150 C 
BRANCH  24  25
HETATM   25  C   UNL     1      43.615 -15.988   5.280  1.00  0.00    -0.014 A 
HETATM   26  C   UNL     1      42.840 -15.788   4.134  1.00  0.00     0.049 A 
HETATM   27  C   UNL     1      42.800 -16.769   3.139  1.00  0.00     0.070 A 
HETATM   28  C   UNL     1      43.517 -17.957   3.309  1.00  0.00     0.037 A 
HETATM   29  C   UNL     1      44.285 -18.156   4.457  1.00  0.00     0.004 A 
HETATM   30  C   UNL     1      44.338 -17.173   5.442  1.00  0.00     0.013 A 
BRANCH  27  31
HETATM   31  O   UNL     1      42.010 -16.471   2.060  1.00  0.00    -0.346 OA
BRANCH  31  32
HETATM   32  C   UNL     1      40.891 -15.620   2.322  1.00  0.00     0.219 C 
BRANCH  32  33
HETATM   33  C   UNL     1      40.677 -14.691   1.156  1.00  0.00     0.026 A 
HETATM   34  C   UNL     1      41.270 -13.423   1.070  1.00  0.00     0.045 A 
HETATM   35 CL   UNL     1      42.307 -12.815   2.312  1.00  0.00    -0.084 Cl
HETATM   36  C   UNL     1      41.057 -12.608  -0.050  1.00  0.00     0.024 A 
HETATM   37  C   UNL     1      40.255 -13.050  -1.103  1.00  0.00     0.005 A 
HETATM   38  C   UNL     1      39.666 -14.308  -1.035  1.00  0.00     0.043 A 
HETATM   39  C   UNL     1      39.880 -15.109   0.085  1.00  0.00     0.126 A 
HETATM   40  F   UNL     1      39.309 -16.323   0.111  1.00  0.00    -0.205 F 
ENDBRANCH  32  33
ENDBRANCH  31  32
ENDBRANCH  27  31
ENDBRANCH  24  25
ENDBRANCH   2  23
TORSDOF 10
ENDMDL
MODEL 5
REMARK VINA RESULT:      -8.6      1.457      1.701
REMARK  10 active torsions:
REMARK  status: ('A' for Active; 'I' for Inactive)
REMARK    1  A    between atoms: N_2  and  C_4 
REMARK    2  A    between atoms: C_4  and  C_5 
REMARK    3  A    between atoms: N_6  and  C_7 
REMARK    4  A    between atoms: C_11  and  N_12 
REMARK    5  A    between atoms: C_15  and  C_16 
REMARK       I    between atoms: C_16  and  N_17 
REMARK    6  A    between atoms: N_17  and  N_18 
REMARK    7  A    between atoms: C_19  and  C_20 
REMARK    8  A    between atoms: C_22  and  O_23 
REMARK    9  A    between atoms: O_23  and  C_24 
REMARK   10  A    between atoms: C_24  and  C_25 
ROOT
HETATM    1  C   UNL     1      41.996 -10.983   6.200  1.00  0.00     0.293 C 
HETATM    2  N   UNL     1      41.138 -12.064   6.213  1.00  0.00    -0.242 N 
HETATM    3  O   UNL     1      42.889 -10.779   5.376  1.00  0.00    -0.264 OA
HETATM    4  H   UNL     1      40.435 -12.164   6.941  1.00  0.00     0.192 HD
ENDROOT
BRANCH   1   5
HETATM    5  C   UNL     1      41.803 -10.035   7.289  1.00  0.00     0.170 A 
HETATM    6  C   UNL     1      42.642  -9.869   8.385  1.00  0.00     0.096 A 
HETATM    7  N   UNL     1      41.984  -8.934   9.184  1.00  0.00    -0.215 N 
HETATM    8  N   UNL     1      40.883  -8.496   8.511  1.00  0.00     0.012 NA
HETATM    9  N   UNL     1      40.754  -9.175   7.383  1.00  0.00    -0.152 NA
BRANCH   6  10
HETATM   10  C   UNL     1      43.979 -10.465   8.636  1.00  0.00     0.295 C 
BRANCH  10  11
HETATM   11  N   UNL     1      45.061  -9.966   7.711  1.00  0.00    -0.073 N 
HETATM   12  C   UNL     1      45.879 -11.055   7.089  1.00  0.00     0.269 C 
HETATM   13  H   UNL     1      44.566  -9.453   6.951  1.00  0.00     0.279 HD
HETATM   14  C   UNL     1      45.925  -8.928   8.366  1.00  0.00     0.269 C 
ENDBRANCH  10  11
ENDBRANCH   6  10
BRANCH   7  15
HETATM   15  C   UNL     1      42.289  -8.491  10.493  1.00  0.00     0.225 A 
HETATM   16  N   UNL     1      42.704  -7.240  10.700  1.00  0.00    -0.081 NA
HETATM   17  O   UNL     1      42.927  -7.185  12.078  1.00  0.00    -0.103 OA
HETATM   18  N   UNL     1      42.665  -8.408  12.676  1.00  0.00    -0.083 NA
HETATM   19  C   UNL     1      42.273  -9.218  11.696  1.00  0.00     0.201 A 
BRANCH  19  20
HETATM   20  N   UNL     1      41.927 -10.504  11.866  1.00  0.00    -0.379 N 
HETATM   21  H   UNL     1      41.281 -10.947  11.219  1.00  0.00     0.158 HD
HETATM   22  H   UNL     1      42.098 -11.027  12.722  1.00  0.00     0.158 HD
ENDBRANCH  19  20
ENDBRANCH   7  15
ENDBRANCH   1   5
BRANCH   2  23
HETATM   23  N   UNL     1      41.210 -12.970   5.199  1.00  0.00    -0.184 NA
HETATM   24  C   UNL     1      40.497 -12.723   4.146  1.00  0.00     0.150 C 
BRANCH  24  25
HETATM   25  C   UNL     1      40.526 -13.629   2.978  1.00  0.00    -0.014 A 
HETATM   26  C   UNL     1      41.014 -14.929   3.129  1.00  0.00     0.049 A 
HETATM   27  C   UNL     1      41.018 -15.805   2.039  1.00  0.00     0.070 A 
HETATM   28  C   UNL     1      40.556 -15.363   0.796  1.00  0.00     0.037 A 
HETATM   29  C   UNL     1      40.075 -14.061   0.647  1.00  0.00     0.004 A 
HETATM   30  C   UNL     1      40.056 -13.194   1.736  1.00  0.00     0.013 A 
BRANCH  27  31
HETATM   31  O   UNL     1      41.518 -17.054   2.297  1.00  0.00    -0.346 OA
BRANCH  31  32
HETATM   32  C   UNL     1      42.941 -17.183   2.230  1.00  0.00     0.219 C 
BRANCH  32  33
HETATM   33  C   UNL     1      43.392 -18.299   3.137  1.00  0.00     0.026 A 
HETATM   34  C   UNL     1      43.679 -18.110   4.496  1.00  0.00     0.045 A 
HETATM   35 CL   UNL     1      43.539 -16.561   5.252  1.00  0.00    -0.084 Cl
HETATM   36  C   UNL     1      44.071 -19.188   5.301  1.00  0.00     0.024 A 
HETATM   37  C   UNL     1      44.175 -20.471   4.762  1.00  0.00     0.005 A 
HETATM   38  C   UNL     1      43.887 -20.674   3.416  1.00  0.00     0.043 A 
HETATM   39  C   UNL     1      43.502 -19.595   2.623  1.00  0.00     0.126 A 
HETATM   40  F   UNL     1      43.216 -19.829   1.333  1.00  0.00    -0.205 F 
ENDBRANCH  32  33
ENDBRANCH  31  32
ENDBRANCH  27  31
ENDBRANCH  24  25
ENDBRANCH   2  23
TORSDOF 10
ENDMDL
MODEL 6
REMARK VINA RESULT:      -8.5      5.910      9.698
REMARK  10 active torsions:
REMARK  status: ('A' for Active; 'I' for Inactive)
REMARK    1  A    between atoms: N_2  and  C_4 
REMARK    2  A    between atoms: C_4  and  C_5 
REMARK    3  A    between atoms: N_6  and  C_7 
REMARK    4  A    between atoms: C_11  and  N_12 
REMARK    5  A    between atoms: C_15  and  C_16 
REMARK       I    between atoms: C_16  and  N_17 
REMARK    6  A    between atoms: N_17  and  N_18 
REMARK    7  A    between atoms: C_19  and  C_20 
REMARK    8  A    between atoms: C_22  and  O_23 
REMARK    9  A    between atoms: O_23  and  C_24 
REMARK   10  A    between atoms: C_24  and  C_25 
ROOT
HETATM    1  C   UNL     1      40.461 -14.485   0.254  1.00  0.00     0.293 C 
HETATM    2  N   UNL     1      41.803 -14.502   0.577  1.00  0.00    -0.242 N 
HETATM    3  O   UNL     1      39.562 -15.058   0.873  1.00  0.00    -0.264 OA
HETATM    4  H   UNL     1      42.484 -14.011   0.002  1.00  0.00     0.192 HD
ENDROOT
BRANCH   1   5
HETATM    5  C   UNL     1      40.128 -13.724  -0.942  1.00  0.00     0.170 A 
HETATM    6  C   UNL     1      39.579 -12.448  -0.971  1.00  0.00     0.096 A 
HETATM    7  N   UNL     1      39.351 -12.201  -2.324  1.00  0.00    -0.215 N 
HETATM    8  N   UNL     1      39.864 -13.241  -3.041  1.00  0.00     0.012 NA
HETATM    9  N   UNL     1      40.308 -14.173  -2.214  1.00  0.00    -0.152 NA
BRANCH   6  10
HETATM   10  C   UNL     1      39.355 -11.502   0.152  1.00  0.00     0.295 C 
BRANCH  10  11
HETATM   11  N   UNL     1      38.306 -11.951   1.138  1.00  0.00    -0.073 N 
HETATM   12  C   UNL     1      37.028 -11.175   1.063  1.00  0.00     0.269 C 
HETATM   13  H   UNL     1      38.102 -12.944   0.898  1.00  0.00     0.279 HD
HETATM   14  C   UNL     1      38.840 -12.006   2.540  1.00  0.00     0.269 C 
ENDBRANCH  10  11
ENDBRANCH   6  10
BRANCH   7  15
HETATM   15  C   UNL     1      38.670 -11.126  -2.944  1.00  0.00     0.225 A 
HETATM   16  N   UNL     1      37.336 -11.098  -2.967  1.00  0.00    -0.081 NA
HETATM   17  O   UNL     1      37.037  -9.930  -3.671  1.00  0.00    -0.103 OA
HETATM   18  N   UNL     1      38.193  -9.283  -4.081  1.00  0.00    -0.083 NA
HETATM   19  C   UNL     1      39.205 -10.024  -3.635  1.00  0.00     0.201 A 
BRANCH  19  20
HETATM   20  N   UNL     1      40.502  -9.734  -3.828  1.00  0.00    -0.379 N 
HETATM   21  H   UNL     1      40.901  -8.894  -3.420  1.00  0.00     0.158 HD
HETATM   22  H   UNL     1      41.083 -10.185  -4.531  1.00  0.00     0.158 HD
ENDBRANCH  19  20
ENDBRANCH   7  15
ENDBRANCH   1   5
BRANCH   2  23
HETATM   23  N   UNL     1      42.197 -15.140   1.712  1.00  0.00    -0.184 NA
HETATM   24  C   UNL     1      42.814 -16.269   1.560  1.00  0.00     0.150 C 
BRANCH  24  25
HETATM   25  C   UNL     1      43.309 -17.029   2.728  1.00  0.00    -0.014 A 
HETATM   26  C   UNL     1      43.579 -16.355   3.922  1.00  0.00     0.049 A 
HETATM   27  C   UNL     1      44.018 -17.068   5.042  1.00  0.00     0.070 A 
HETATM   28  C   UNL     1      44.210 -18.449   4.951  1.00  0.00     0.037 A 
HETATM   29  C   UNL     1      43.947 -19.119   3.755  1.00  0.00     0.004 A 
HETATM   30  C   UNL     1      43.494 -18.412   2.643  1.00  0.00     0.013 A 
BRANCH  27  31
HETATM   31  O   UNL     1      44.253 -16.310   6.159  1.00  0.00    -0.346 OA
BRANCH  31  32
HETATM   32  C   UNL     1      43.123 -16.082   7.006  1.00  0.00     0.219 C 
BRANCH  32  33
HETATM   33  C   UNL     1      42.414 -14.824   6.578  1.00  0.00     0.026 A 
HETATM   34  C   UNL     1      41.036 -14.774   6.321  1.00  0.00     0.045 A 
HETATM   35 CL   UNL     1      40.028 -16.170   6.473  1.00  0.00    -0.084 Cl
HETATM   36  C   UNL     1      40.421 -13.571   5.949  1.00  0.00     0.024 A 
HETATM   37  C   UNL     1      41.171 -12.400   5.836  1.00  0.00     0.005 A 
HETATM   38  C   UNL     1      42.537 -12.433   6.096  1.00  0.00     0.043 A 
HETATM   39  C   UNL     1      43.141 -13.634   6.460  1.00  0.00     0.126 A 
HETATM   40  F   UNL     1      44.457 -13.628   6.718  1.00  0.00    -0.205 F 
ENDBRANCH  32  33
ENDBRANCH  31  32
ENDBRANCH  27  31
ENDBRANCH  24  25
ENDBRANCH   2  23
TORSDOF 10
ENDMDL
MODEL 7
REMARK VINA RESULT:      -8.4      1.317      1.814
REMARK  10 active torsions:
REMARK  status: ('A' for Active; 'I' for Inactive)
REMARK    1  A    between atoms: N_2  and  C_4 
REMARK    2  A    between atoms: C_4  and  C_5 
REMARK    3  A    between atoms: N_6  and  C_7 
REMARK    4  A    between atoms: C_11  and  N_12 
REMARK    5  A    between atoms: C_15  and  C_16 
REMARK       I    between atoms: C_16  and  N_17 
REMARK    6  A    between atoms: N_17  and  N_18 
REMARK    7  A    between atoms: C_19  and  C_20 
REMARK    8  A    between atoms: C_22  and  O_23 
REMARK    9  A    between atoms: O_23  and  C_24 
REMARK   10  A    between atoms: C_24  and  C_25 
ROOT
HETATM    1  C   UNL     1      39.251 -10.848   6.854  1.00  0.00     0.293 C 
HETATM    2  N   UNL     1      39.930 -12.023   6.603  1.00  0.00    -0.242 N 
HETATM    3  O   UNL     1      38.510 -10.259   6.064  1.00  0.00    -0.264 OA
HETATM    4  H   UNL     1      40.535 -12.437   7.308  1.00  0.00     0.192 HD
ENDROOT
BRANCH   1   5
HETATM    5  C   UNL     1      39.475 -10.281   8.177  1.00  0.00     0.170 A 
HETATM    6  C   UNL     1      40.587  -9.547   8.572  1.00  0.00     0.096 A 
HETATM    7  N   UNL     1      40.386  -9.322   9.933  1.00  0.00    -0.215 N 
HETATM    8  N   UNL     1      39.154  -9.800  10.267  1.00  0.00     0.012 NA
HETATM    9  N   UNL     1      38.613 -10.402   9.221  1.00  0.00    -0.152 NA
BRANCH   6  10
HETATM   10  C   UNL     1      41.705  -9.028   7.744  1.00  0.00     0.295 C 
BRANCH  10  11
HETATM   11  N   UNL     1      41.542  -7.591   7.316  1.00  0.00    -0.073 N 
HETATM   12  C   UNL     1      42.398  -6.628   8.078  1.00  0.00     0.269 C 
HETATM   13  H   UNL     1      41.826  -7.563   6.314  1.00  0.00     0.279 HD
HETATM   14  C   UNL     1      40.101  -7.168   7.309  1.00  0.00     0.269 C 
ENDBRANCH  10  11
ENDBRANCH   6  10
BRANCH   7  15
HETATM   15  C   UNL     1      41.259  -8.761  10.895  1.00  0.00     0.225 A 
HETATM   16  N   UNL     1      41.131  -7.482  11.255  1.00  0.00    -0.081 NA
HETATM   17  O   UNL     1      42.161  -7.289  12.177  1.00  0.00    -0.103 OA
HETATM   18  N   UNL     1      42.908  -8.445  12.343  1.00  0.00    -0.083 NA
HETATM   19  C   UNL     1      42.353  -9.356  11.547  1.00  0.00     0.201 A 
BRANCH  19  20
HETATM   20  N   UNL     1      42.789 -10.620  11.419  1.00  0.00    -0.379 N 
HETATM   21  H   UNL     1      43.669 -10.900  11.843  1.00  0.00     0.158 HD
HETATM   22  H   UNL     1      42.408 -11.284  10.748  1.00  0.00     0.158 HD
ENDBRANCH  19  20
ENDBRANCH   7  15
ENDBRANCH   1   5
BRANCH   2  23
HETATM   23  N   UNL     1      39.734 -12.653   5.412  1.00  0.00    -0.184 NA
HETATM   24  C   UNL     1      40.778 -13.174   4.851  1.00  0.00     0.150 C 
BRANCH  24  25
HETATM   25  C   UNL     1      40.668 -13.906   3.571  1.00  0.00    -0.014 A 
HETATM   26  C   UNL     1      41.212 -15.188   3.462  1.00  0.00     0.049 A 
HETATM   27  C   UNL     1      41.088 -15.901   2.266  1.00  0.00     0.070 A 
HETATM   28  C   UNL     1      40.441 -15.314   1.175  1.00  0.00     0.037 A 
HETATM   29  C   UNL     1      39.904 -14.030   1.284  1.00  0.00     0.004 A 
HETATM   30  C   UNL     1      40.014 -13.325   2.480  1.00  0.00     0.013 A 
BRANCH  27  31
HETATM   31  O   UNL     1      41.657 -17.147   2.269  1.00  0.00    -0.346 OA
BRANCH  31  32
HETATM   32  C   UNL     1      43.080 -17.184   2.412  1.00  0.00     0.219 C 
BRANCH  32  33
HETATM   33  C   UNL     1      43.475 -18.373   3.247  1.00  0.00     0.026 A 
HETATM   34  C   UNL     1      43.791 -18.279   4.610  1.00  0.00     0.045 A 
HETATM   35 CL   UNL     1      43.754 -16.771   5.453  1.00  0.00    -0.084 Cl
HETATM   36  C   UNL     1      44.129 -19.422   5.346  1.00  0.00     0.024 A 
HETATM   37  C   UNL     1      44.149 -20.676   4.735  1.00  0.00     0.005 A 
HETATM   38  C   UNL     1      43.831 -20.786   3.385  1.00  0.00     0.043 A 
HETATM   39  C   UNL     1      43.501 -19.643   2.660  1.00  0.00     0.126 A 
HETATM   40  F   UNL     1      43.184 -19.786   1.364  1.00  0.00    -0.205 F 
ENDBRANCH  32  33
ENDBRANCH  31  32
ENDBRANCH  27  31
ENDBRANCH  24  25
ENDBRANCH   2  23
TORSDOF 10
ENDMDL
MODEL 8
REMARK VINA RESULT:      -8.4      5.873      9.119
REMARK  10 active torsions:
REMARK  status: ('A' for Active; 'I' for Inactive)
REMARK    1  A    between atoms: N_2  and  C_4 
REMARK    2  A    between atoms: C_4  and  C_5 
REMARK    3  A    between atoms: N_6  and  C_7 
REMARK    4  A    between atoms: C_11  and  N_12 
REMARK    5  A    between atoms: C_15  and  C_16 
REMARK       I    between atoms: C_16  and  N_17 
REMARK    6  A    between atoms: N_17  and  N_18 
REMARK    7  A    between atoms: C_19  and  C_20 
REMARK    8  A    between atoms: C_22  and  O_23 
REMARK    9  A    between atoms: O_23  and  C_24 
REMARK   10  A    between atoms: C_24  and  C_25 
ROOT
HETATM    1  C   UNL     1      40.526 -14.157   0.200  1.00  0.00     0.293 C 
HETATM    2  N   UNL     1      41.673 -13.624   0.754  1.00  0.00    -0.242 N 
HETATM    3  O   UNL     1      39.906 -15.133   0.626  1.00  0.00    -0.264 OA
HETATM    4  H   UNL     1      42.132 -12.821   0.330  1.00  0.00     0.192 HD
ENDROOT
BRANCH   1   5
HETATM    5  C   UNL     1      40.056 -13.483  -1.002  1.00  0.00     0.170 A 
HETATM    6  C   UNL     1      39.375 -12.272  -1.045  1.00  0.00     0.096 A 
HETATM    7  N   UNL     1      39.056 -12.104  -2.392  1.00  0.00    -0.215 N 
HETATM    8  N   UNL     1      39.638 -13.114  -3.099  1.00  0.00     0.012 NA
HETATM    9  N   UNL     1      40.218 -13.961  -2.265  1.00  0.00    -0.152 NA
BRANCH   6  10
HETATM   10  C   UNL     1      39.111 -11.310   0.055  1.00  0.00     0.295 C 
BRANCH  10  11
HETATM   11  N   UNL     1      38.065 -11.771   1.040  1.00  0.00    -0.073 N 
HETATM   12  C   UNL     1      36.802 -10.968   1.006  1.00  0.00     0.269 C 
HETATM   13  H   UNL     1      37.838 -12.751   0.770  1.00  0.00     0.279 HD
HETATM   14  C   UNL     1      38.615 -11.881   2.432  1.00  0.00     0.269 C 
ENDBRANCH  10  11
ENDBRANCH   6  10
BRANCH   7  15
HETATM   15  C   UNL     1      38.236 -11.131  -3.012  1.00  0.00     0.225 A 
HETATM   16  N   UNL     1      36.909 -11.277  -3.023  1.00  0.00    -0.081 NA
HETATM   17  O   UNL     1      36.455 -10.161  -3.730  1.00  0.00    -0.103 OA
HETATM   18  N   UNL     1      37.514  -9.372  -4.153  1.00  0.00    -0.083 NA
HETATM   19  C   UNL     1      38.617  -9.973  -3.712  1.00  0.00     0.201 A 
BRANCH  19  20
HETATM   20  N   UNL     1      39.864  -9.518  -3.918  1.00  0.00    -0.379 N 
HETATM   21  H   UNL     1      40.488  -9.371  -3.130  1.00  0.00     0.158 HD
HETATM   22  H   UNL     1      40.177  -9.105  -4.793  1.00  0.00     0.158 HD
ENDBRANCH  19  20
ENDBRANCH   7  15
ENDBRANCH   1   5
BRANCH   2  23
HETATM   23  N   UNL     1      42.151 -14.155   1.912  1.00  0.00    -0.184 NA
HETATM   24  C   UNL     1      41.987 -13.451   2.987  1.00  0.00     0.150 C 
BRANCH  24  25
HETATM   25  C   UNL     1      42.444 -13.950   4.301  1.00  0.00    -0.014 A 
HETATM   26  C   UNL     1      42.671 -15.318   4.476  1.00  0.00     0.049 A 
HETATM   27  C   UNL     1      43.133 -15.798   5.705  1.00  0.00     0.070 A 
HETATM   28  C   UNL     1      43.340 -14.906   6.761  1.00  0.00     0.037 A 
HETATM   29  C   UNL     1      43.106 -13.542   6.586  1.00  0.00     0.004 A 
HETATM   30  C   UNL     1      42.661 -13.060   5.357  1.00  0.00     0.013 A 
BRANCH  27  31
HETATM   31  O   UNL     1      43.321 -17.153   5.767  1.00  0.00    -0.346 OA
BRANCH  31  32
HETATM   32  C   UNL     1      44.507 -17.648   5.138  1.00  0.00     0.219 C 
BRANCH  32  33
HETATM   33  C   UNL     1      44.138 -18.663   4.088  1.00  0.00     0.026 A 
HETATM   34  C   UNL     1      44.035 -20.036   4.355  1.00  0.00     0.045 A 
HETATM   35 CL   UNL     1      44.329 -20.684   5.931  1.00  0.00    -0.084 Cl
HETATM   36  C   UNL     1      43.664 -20.935   3.346  1.00  0.00     0.024 A 
HETATM   37  C   UNL     1      43.383 -20.475   2.059  1.00  0.00     0.005 A 
HETATM   38  C   UNL     1      43.475 -19.116   1.781  1.00  0.00     0.043 A 
HETATM   39  C   UNL     1      43.849 -18.230   2.790  1.00  0.00     0.126 A 
HETATM   40  F   UNL     1      43.912 -16.923   2.492  1.00  0.00    -0.205 F 
ENDBRANCH  32  33
ENDBRANCH  31  32
ENDBRANCH  27  31
ENDBRANCH  24  25
ENDBRANCH   2  23
TORSDOF 10
ENDMDL
MODEL 9
REMARK VINA RESULT:      -8.3      1.921      2.955
REMARK  10 active torsions:
REMARK  status: ('A' for Active; 'I' for Inactive)
REMARK    1  A    between atoms: N_2  and  C_4 
REMARK    2  A    between atoms: C_4  and  C_5 
REMARK    3  A    between atoms: N_6  and  C_7 
REMARK    4  A    between atoms: C_11  and  N_12 
REMARK    5  A    between atoms: C_15  and  C_16 
REMARK       I    between atoms: C_16  and  N_17 
REMARK    6  A    between atoms: N_17  and  N_18 
REMARK    7  A    between atoms: C_19  and  C_20 
REMARK    8  A    between atoms: C_22  and  O_23 
REMARK    9  A    between atoms: O_23  and  C_24 
REMARK   10  A    between atoms: C_24  and  C_25 
ROOT
HETATM    1  C   UNL     1      43.737 -10.037   8.472  1.00  0.00     0.293 C 
HETATM    2  N   UNL     1      43.586 -11.404   8.358  1.00  0.00    -0.242 N 
HETATM    3  O   UNL     1      44.129  -9.277   7.584  1.00  0.00    -0.264 OA
HETATM    4  H   UNL     1      43.269 -11.962   9.147  1.00  0.00     0.192 HD
ENDROOT
BRANCH   1   5
HETATM    5  C   UNL     1      43.408  -9.491   9.781  1.00  0.00     0.170 A 
HETATM    6  C   UNL     1      42.264  -8.769  10.101  1.00  0.00     0.096 A 
HETATM    7  N   UNL     1      42.458  -8.384  11.427  1.00  0.00    -0.215 N 
HETATM    8  N   UNL     1      43.604  -8.969  11.878  1.00  0.00     0.012 NA
HETATM    9  N   UNL     1      44.194  -9.613  10.885  1.00  0.00    -0.152 NA
BRANCH   6  10
HETATM   10  C   UNL     1      41.055  -8.521   9.274  1.00  0.00     0.295 C 
BRANCH  10  11
HETATM   11  N   UNL     1      40.305  -9.772   8.887  1.00  0.00    -0.073 N 
HETATM   12  C   UNL     1      40.045  -9.895   7.418  1.00  0.00     0.269 C 
HETATM   13  H   UNL     1      40.913 -10.565   9.181  1.00  0.00     0.279 HD
HETATM   14  C   UNL     1      39.048  -9.943   9.689  1.00  0.00     0.269 C 
ENDBRANCH  10  11
ENDBRANCH   6  10
BRANCH   7  15
HETATM   15  C   UNL     1      41.696  -7.506  12.233  1.00  0.00     0.225 A 
HETATM   16  N   UNL     1      42.087  -6.242  12.406  1.00  0.00    -0.081 NA
HETATM   17  O   UNL     1      41.123  -5.707  13.264  1.00  0.00    -0.103 OA
HETATM   18  N   UNL     1      40.180  -6.661  13.613  1.00  0.00    -0.083 NA
HETATM   19  C   UNL     1      40.535  -7.776  12.979  1.00  0.00     0.201 A 
BRANCH  19  20
HETATM   20  N   UNL     1      39.871  -8.940  13.059  1.00  0.00    -0.379 N 
HETATM   21  H   UNL     1      38.874  -8.945  13.257  1.00  0.00     0.158 HD
HETATM   22  H   UNL     1      40.327  -9.846  13.144  1.00  0.00     0.158 HD
ENDBRANCH  19  20
ENDBRANCH   7  15
ENDBRANCH   1   5
BRANCH   2  23
HETATM   23  N   UNL     1      43.816 -11.992   7.152  1.00  0.00    -0.184 NA
HETATM   24  C   UNL     1      42.774 -12.371   6.482  1.00  0.00     0.150 C 
BRANCH  24  25
HETATM   25  C   UNL     1      42.913 -12.994   5.148  1.00  0.00    -0.014 A 
HETATM   26  C   UNL     1      42.733 -14.373   5.011  1.00  0.00     0.049 A 
HETATM   27  C   UNL     1      42.832 -14.968   3.750  1.00  0.00     0.070 A 
HETATM   28  C   UNL     1      43.136 -14.181   2.636  1.00  0.00     0.037 A 
HETATM   29  C   UNL     1      43.321 -12.805   2.777  1.00  0.00     0.004 A 
HETATM   30  C   UNL     1      43.208 -12.208   4.030  1.00  0.00     0.013 A 
BRANCH  27  31
HETATM   31  O   UNL     1      42.639 -16.324   3.729  1.00  0.00    -0.346 OA
BRANCH  31  32
HETATM   32  C   UNL     1      43.598 -17.080   2.985  1.00  0.00     0.219 C 
BRANCH  32  33
HETATM   33  C   UNL     1      43.751 -18.448   3.597  1.00  0.00     0.026 A 
HETATM   34  C   UNL     1      44.012 -18.651   4.960  1.00  0.00     0.045 A 
HETATM   35 CL   UNL     1      44.184 -17.330   6.062  1.00  0.00    -0.084 Cl
HETATM   36  C   UNL     1      44.121 -19.946   5.483  1.00  0.00     0.024 A 
HETATM   37  C   UNL     1      43.964 -21.057   4.655  1.00  0.00     0.005 A 
HETATM   38  C   UNL     1      43.698 -20.872   3.302  1.00  0.00     0.043 A 
HETATM   39  C   UNL     1      43.596 -19.580   2.790  1.00  0.00     0.126 A 
HETATM   40  F   UNL     1      43.323 -19.437   1.484  1.00  0.00    -0.205 F 
ENDBRANCH  32  33
ENDBRANCH  31  32
ENDBRANCH  27  31
ENDBRANCH  24  25
ENDBRANCH   2  23
TORSDOF 10
ENDMDL
MODEL 10
REMARK VINA RESULT:      -8.0      5.897      9.241
REMARK  10 active torsions:
REMARK  status: ('A' for Active; 'I' for Inactive)
REMARK    1  A    between atoms: N_2  and  C_4 
REMARK    2  A    between atoms: C_4  and  C_5 
REMARK    3  A    between atoms: N_6  and  C_7 
REMARK    4  A    between atoms: C_11  and  N_12 
REMARK    5  A    between atoms: C_15  and  C_16 
REMARK       I    between atoms: C_16  and  N_17 
REMARK    6  A    between atoms: N_17  and  N_18 
REMARK    7  A    between atoms: C_19  and  C_20 
REMARK    8  A    between atoms: C_22  and  O_23 
REMARK    9  A    between atoms: O_23  and  C_24 
REMARK   10  A    between atoms: C_24  and  C_25 
ROOT
HETATM    1  C   UNL     1      40.551 -13.549  -0.119  1.00  0.00     0.293 C 
HETATM    2  N   UNL     1      41.658 -13.132   0.592  1.00  0.00    -0.242 N 
HETATM    3  O   UNL     1      39.802 -14.477   0.189  1.00  0.00    -0.264 OA
HETATM    4  H   UNL     1      42.234 -12.363   0.259  1.00  0.00     0.192 HD
ENDROOT
BRANCH   1   5
HETATM    5  C   UNL     1      40.296 -12.806  -1.346  1.00  0.00     0.170 A 
HETATM    6  C   UNL     1      39.758 -11.527  -1.428  1.00  0.00     0.096 A 
HETATM    7  N   UNL     1      39.615 -11.300  -2.796  1.00  0.00    -0.215 N 
HETATM    8  N   UNL     1      40.163 -12.355  -3.464  1.00  0.00     0.012 NA
HETATM    9  N   UNL     1      40.550 -13.276  -2.596  1.00  0.00    -0.152 NA
BRANCH   6  10
HETATM   10  C   UNL     1      39.474 -10.562  -0.335  1.00  0.00     0.295 C 
BRANCH  10  11
HETATM   11  N   UNL     1      40.604  -9.605  -0.047  1.00  0.00    -0.073 N 
HETATM   12  C   UNL     1      41.776  -9.753  -0.966  1.00  0.00     0.269 C 
HETATM   13  H   UNL     1      40.204  -8.651  -0.176  1.00  0.00     0.279 HD
HETATM   14  C   UNL     1      41.020  -9.645   1.395  1.00  0.00     0.269 C 
ENDBRANCH  10  11
ENDBRANCH   6  10
BRANCH   7  15
HETATM   15  C   UNL     1      38.980 -10.232  -3.473  1.00  0.00     0.225 A 
HETATM   16  N   UNL     1      37.658 -10.073  -3.389  1.00  0.00    -0.081 NA
HETATM   17  O   UNL     1      37.402  -8.959  -4.191  1.00  0.00    -0.103 OA
HETATM   18  N   UNL     1      38.569  -8.476  -4.764  1.00  0.00    -0.083 NA
HETATM   19  C   UNL     1      39.546  -9.265  -4.323  1.00  0.00     0.201 A 
BRANCH  19  20
HETATM   20  N   UNL     1      40.841  -9.128  -4.652  1.00  0.00    -0.379 N 
HETATM   21  H   UNL     1      41.186  -8.238  -5.001  1.00  0.00     0.158 HD
HETATM   22  H   UNL     1      41.477  -9.912  -4.781  1.00  0.00     0.158 HD
ENDBRANCH  19  20
ENDBRANCH   7  15
ENDBRANCH   1   5
BRANCH   2  23
HETATM   23  N   UNL     1      41.938 -13.733   1.781  1.00  0.00    -0.184 NA
HETATM   24  C   UNL     1      42.313 -12.959   2.750  1.00  0.00     0.150 C 
BRANCH  24  25
HETATM   25  C   UNL     1      42.613 -13.508   4.090  1.00  0.00    -0.014 A 
HETATM   26  C   UNL     1      42.701 -14.892   4.261  1.00  0.00     0.049 A 
HETATM   27  C   UNL     1      43.014 -15.422   5.517  1.00  0.00     0.070 A 
HETATM   28  C   UNL     1      43.212 -14.561   6.600  1.00  0.00     0.037 A 
HETATM   29  C   UNL     1      43.116 -13.179   6.428  1.00  0.00     0.004 A 
HETATM   30  C   UNL     1      42.820 -12.650   5.174  1.00  0.00     0.013 A 
BRANCH  27  31
HETATM   31  O   UNL     1      43.075 -16.789   5.574  1.00  0.00    -0.346 OA
BRANCH  31  32
HETATM   32  C   UNL     1      44.297 -17.379   5.122  1.00  0.00     0.219 C 
BRANCH  32  33
HETATM   33  C   UNL     1      43.994 -18.530   4.198  1.00  0.00     0.026 A 
HETATM   34  C   UNL     1      43.679 -18.359   2.843  1.00  0.00     0.045 A 
HETATM   35 CL   UNL     1      43.608 -16.793   2.112  1.00  0.00    -0.084 Cl
HETATM   36  C   UNL     1      43.430 -19.466   2.021  1.00  0.00     0.024 A 
HETATM   37  C   UNL     1      43.499 -20.760   2.539  1.00  0.00     0.005 A 
HETATM   38  C   UNL     1      43.818 -20.945   3.880  1.00  0.00     0.043 A 
HETATM   39  C   UNL     1      44.060 -19.838   4.691  1.00  0.00     0.126 A 
HETATM   40  F   UNL     1      44.380 -20.052   5.976  1.00  0.00    -0.205 F 
ENDBRANCH  32  33
ENDBRANCH  31  32
ENDBRANCH  27  31
ENDBRANCH  24  25
ENDBRANCH   2  23
TORSDOF 10
ENDMDL
