MODEL 1
REMARK VINA RESULT:      -9.7      0.000      0.000
REMARK  6 active torsions:
REMARK  status: ('A' for Active; 'I' for Inactive)
REMARK    1  A    between atoms: C_3  and  C_4 
REMARK    2  A    between atoms: C_4  and  C_5 
REMARK    3  A    between atoms: N_8  and  C_10 
REMARK    4  A    between atoms: C_10  and  C_11 
REMARK    5  A    between atoms: N_24  and  C_25 
REMARK    6  A    between atoms: C_25  and  C_26 
ROOT
HETATM    1  C   UNL     1      42.382 -13.213   5.525  1.00  0.00     0.149 C 
HETATM    2  N   UNL     1      43.214 -13.682   4.424  1.00  0.00    -0.220 NA
HETATM    3  C   UNL     1      42.727 -13.277   3.206  1.00  0.00     0.304 C 
HETATM    4  O   UNL     1      43.314 -13.477   2.158  1.00  0.00    -0.253 OA
HETATM    5  N   UNL     1      41.518 -12.695   3.383  1.00  0.00    -0.270 N 
HETATM    6  C   UNL     1      41.247 -12.544   4.716  1.00  0.00     0.257 C 
HETATM    7  O   UNL     1      40.234 -12.061   5.203  1.00  0.00    -0.270 OA
HETATM    8  H   UNL     1      44.224 -13.582   4.514  1.00  0.00     0.134 HD
ENDROOT
BRANCH   1   9
HETATM    9  C   UNL     1      43.198 -12.242   6.373  1.00  0.00     0.067 A 
HETATM   10  C   UNL     1      44.588 -12.278   6.442  1.00  0.00     0.030 A 
HETATM   11  C   UNL     1      45.249 -11.303   7.187  1.00  0.00     0.003 A 
HETATM   12  C   UNL     1      44.518 -10.315   7.835  1.00  0.00     0.019 A 
HETATM   13  C   UNL     1      43.142 -10.338   7.713  1.00  0.00     0.117 A 
HETATM   14  N   UNL     1      42.468 -11.262   6.992  1.00  0.00    -0.263 NA
ENDBRANCH   1   9
BRANCH   1  15
HETATM   15  C   UNL     1      41.815 -14.392   6.397  1.00  0.00     0.028 C 
HETATM   16  C   UNL     1      42.808 -14.993   7.408  1.00  0.00     0.035 C 
HETATM   17  C   UNL     1      43.933 -15.780   6.755  1.00  0.00     0.235 C 
HETATM   18  N   UNL     1      43.397 -16.851   5.831  1.00  0.00    -0.067 N 
HETATM   19  H   UNL     1      43.044 -17.611   6.429  1.00  0.00     0.280 HD
HETATM   20  C   UNL     1      42.266 -16.447   4.916  1.00  0.00     0.235 C 
HETATM   21  C   UNL     1      41.229 -15.581   5.612  1.00  0.00     0.035 C 
BRANCH  18  22
HETATM   22  C   UNL     1      44.511 -17.464   4.978  1.00  0.00     0.278 C 
BRANCH  22  23
HETATM   23  C   UNL     1      44.082 -18.550   4.040  1.00  0.00     0.028 A 
HETATM   24  C   UNL     1      43.641 -18.315   2.730  1.00  0.00     0.045 A 
HETATM   25 CL   UNL     1      43.612 -16.730   2.048  1.00  0.00    -0.084 Cl
HETATM   26  C   UNL     1      43.230 -19.377   1.917  1.00  0.00     0.024 A 
HETATM   27  C   UNL     1      43.255 -20.685   2.402  1.00  0.00     0.005 A 
HETATM   28  C   UNL     1      43.701 -20.934   3.696  1.00  0.00     0.043 A 
HETATM   29  C   UNL     1      44.108 -19.871   4.496  1.00  0.00     0.126 A 
HETATM   30  F   UNL     1      44.564 -20.119   5.731  1.00  0.00    -0.205 F 
ENDBRANCH  22  23
ENDBRANCH  18  22
ENDBRANCH   1  15
BRANCH   5  31
HETATM   31  C   UNL     1      40.686 -12.235   2.283  1.00  0.00     0.168 C 
BRANCH  31  32
HETATM   32  C   UNL     1      39.794 -13.343   1.717  1.00  0.00     0.140 C 
HETATM   33  O   UNL     1      39.773 -14.462   2.625  1.00  0.00    -0.384 OA
HETATM   34  C   UNL     1      40.135 -15.645   1.897  1.00  0.00     0.168 C 
HETATM   35  C   UNL     1      39.921 -15.324   0.435  1.00  0.00     0.029 C 
HETATM   36  C   UNL     1      40.314 -13.870   0.384  1.00  0.00     0.036 C 
ENDBRANCH  31  32
ENDBRANCH   5  31
TORSDOF 6
ENDMDL
MODEL 2
REMARK VINA RESULT:      -9.3      3.157      7.250
REMARK  6 active torsions:
REMARK  status: ('A' for Active; 'I' for Inactive)
REMARK    1  A    between atoms: C_3  and  C_4 
REMARK    2  A    between atoms: C_4  and  C_5 
REMARK    3  A    between atoms: N_8  and  C_10 
REMARK    4  A    between atoms: C_10  and  C_11 
REMARK    5  A    between atoms: N_24  and  C_25 
REMARK    6  A    between atoms: C_25  and  C_26 
ROOT
HETATM    1  C   UNL     1      41.940 -14.912   4.122  1.00  0.00     0.149 C 
HETATM    2  N   UNL     1      42.547 -14.030   3.132  1.00  0.00    -0.220 NA
HETATM    3  C   UNL     1      43.103 -12.917   3.712  1.00  0.00     0.304 C 
HETATM    4  O   UNL     1      43.743 -12.092   3.085  1.00  0.00    -0.253 OA
HETATM    5  N   UNL     1      42.775 -12.891   5.026  1.00  0.00    -0.270 N 
HETATM    6  C   UNL     1      42.148 -14.051   5.388  1.00  0.00     0.257 C 
HETATM    7  O   UNL     1      41.722 -14.332   6.500  1.00  0.00    -0.270 OA
HETATM    8  H   UNL     1      43.133 -14.452   2.413  1.00  0.00     0.134 HD
ENDROOT
BRANCH   1   9
HETATM    9  C   UNL     1      42.707 -16.232   4.132  1.00  0.00     0.067 A 
HETATM   10  C   UNL     1      43.296 -16.776   2.995  1.00  0.00     0.030 A 
HETATM   11  C   UNL     1      44.038 -17.950   3.119  1.00  0.00     0.003 A 
HETATM   12  C   UNL     1      44.183 -18.547   4.366  1.00  0.00     0.019 A 
HETATM   13  C   UNL     1      43.577 -17.943   5.451  1.00  0.00     0.117 A 
HETATM   14  N   UNL     1      42.858 -16.801   5.369  1.00  0.00    -0.263 NA
ENDBRANCH   1   9
BRANCH   1  15
HETATM   15  C   UNL     1      40.408 -15.147   3.860  1.00  0.00     0.028 C 
HETATM   16  C   UNL     1      40.080 -16.031   2.644  1.00  0.00     0.035 C 
HETATM   17  C   UNL     1      40.387 -15.364   1.313  1.00  0.00     0.235 C 
HETATM   18  N   UNL     1      39.705 -14.019   1.195  1.00  0.00    -0.067 N 
HETATM   19  H   UNL     1      38.708 -14.205   1.015  1.00  0.00     0.280 HD
HETATM   20  C   UNL     1      39.774 -13.121   2.407  1.00  0.00     0.235 C 
HETATM   21  C   UNL     1      39.554 -13.874   3.709  1.00  0.00     0.035 C 
BRANCH  18  22
HETATM   22  C   UNL     1      40.217 -13.235  -0.016  1.00  0.00     0.278 C 
BRANCH  22  23
HETATM   23  C   UNL     1      39.161 -12.728  -0.949  1.00  0.00     0.028 A 
HETATM   24  C   UNL     1      38.765 -11.385  -1.018  1.00  0.00     0.045 A 
HETATM   25 CL   UNL     1      39.515 -10.163  -0.058  1.00  0.00    -0.084 Cl
HETATM   26  C   UNL     1      37.752 -10.986  -1.896  1.00  0.00     0.024 A 
HETATM   27  C   UNL     1      37.124 -11.922  -2.718  1.00  0.00     0.005 A 
HETATM   28  C   UNL     1      37.514 -13.257  -2.669  1.00  0.00     0.043 A 
HETATM   29  C   UNL     1      38.523 -13.642  -1.792  1.00  0.00     0.126 A 
HETATM   30  F   UNL     1      38.916 -14.923  -1.770  1.00  0.00    -0.205 F 
ENDBRANCH  22  23
ENDBRANCH  18  22
ENDBRANCH   1  15
BRANCH   5  31
HETATM   31  C   UNL     1      43.127 -11.794   5.913  1.00  0.00     0.168 C 
BRANCH  31  32
HETATM   32  C   UNL     1      44.435 -12.046   6.668  1.00  0.00     0.140 C 
HETATM   33  O   UNL     1      44.281 -11.665   8.049  1.00  0.00    -0.384 OA
HETATM   34  C   UNL     1      45.332 -10.748   8.387  1.00  0.00     0.168 C 
HETATM   35  C   UNL     1      46.407 -10.933   7.341  1.00  0.00     0.029 C 
HETATM   36  C   UNL     1      45.586 -11.217   6.110  1.00  0.00     0.036 C 
ENDBRANCH  31  32
ENDBRANCH   5  31
TORSDOF 6
ENDMDL
MODEL 3
REMARK VINA RESULT:      -8.8      2.440      5.969
REMARK  6 active torsions:
REMARK  status: ('A' for Active; 'I' for Inactive)
REMARK    1  A    between atoms: C_3  and  C_4 
REMARK    2  A    between atoms: C_4  and  C_5 
REMARK    3  A    between atoms: N_8  and  C_10 
REMARK    4  A    between atoms: C_10  and  C_11 
REMARK    5  A    between atoms: N_24  and  C_25 
REMARK    6  A    between atoms: C_25  and  C_26 
ROOT
HETATM    1  C   UNL     1      40.407 -12.427   1.851  1.00  0.00     0.149 C 
HETATM    2  N   UNL     1      39.623 -12.885   2.991  1.00  0.00    -0.220 NA
HETATM    3  C   UNL     1      39.978 -12.237   4.148  1.00  0.00     0.304 C 
HETATM    4  O   UNL     1      39.390 -12.395   5.203  1.00  0.00    -0.253 OA
HETATM    5  N   UNL     1      41.073 -11.477   3.913  1.00  0.00    -0.270 N 
HETATM    6  C   UNL     1      41.371 -11.462   2.578  1.00  0.00     0.257 C 
HETATM    7  O   UNL     1      42.303 -10.875   2.047  1.00  0.00    -0.270 OA
HETATM    8  H   UNL     1      38.615 -12.981   2.869  1.00  0.00     0.134 HD
ENDROOT
BRANCH   1   9
HETATM    9  C   UNL     1      39.470 -11.742   0.859  1.00  0.00     0.067 A 
HETATM   10  C   UNL     1      39.846 -11.420  -0.442  1.00  0.00     0.030 A 
HETATM   11  C   UNL     1      38.896 -10.862  -1.296  1.00  0.00     0.003 A 
HETATM   12  C   UNL     1      37.601 -10.646  -0.842  1.00  0.00     0.019 A 
HETATM   13  C   UNL     1      37.299 -11.001   0.459  1.00  0.00     0.117 A 
HETATM   14  N   UNL     1      38.192 -11.552   1.312  1.00  0.00    -0.263 NA
ENDBRANCH   1   9
BRANCH   1  15
HETATM   15  C   UNL     1      41.209 -13.592   1.164  1.00  0.00     0.028 C 
HETATM   16  C   UNL     1      40.397 -14.870   0.886  1.00  0.00     0.035 C 
HETATM   17  C   UNL     1      40.019 -15.631   2.146  1.00  0.00     0.235 C 
HETATM   18  N   UNL     1      41.235 -15.945   2.991  1.00  0.00    -0.067 N 
HETATM   19  H   UNL     1      41.732 -16.716   2.522  1.00  0.00     0.280 HD
HETATM   20  C   UNL     1      42.231 -14.826   3.177  1.00  0.00     0.235 C 
HETATM   21  C   UNL     1      42.485 -14.046   1.898  1.00  0.00     0.035 C 
BRANCH  18  22
HETATM   22  C   UNL     1      40.837 -16.472   4.372  1.00  0.00     0.278 C 
BRANCH  22  23
HETATM   23  C   UNL     1      41.920 -16.450   5.406  1.00  0.00     0.028 A 
HETATM   24  C   UNL     1      43.110 -17.185   5.300  1.00  0.00     0.045 A 
HETATM   25 CL   UNL     1      43.466 -18.149   3.914  1.00  0.00    -0.084 Cl
HETATM   26  C   UNL     1      44.068 -17.138   6.318  1.00  0.00     0.024 A 
HETATM   27  C   UNL     1      43.851 -16.355   7.453  1.00  0.00     0.005 A 
HETATM   28  C   UNL     1      42.680 -15.612   7.567  1.00  0.00     0.043 A 
HETATM   29  C   UNL     1      41.735 -15.666   6.548  1.00  0.00     0.126 A 
HETATM   30  F   UNL     1      40.622 -14.926   6.648  1.00  0.00    -0.205 F 
ENDBRANCH  22  23
ENDBRANCH  18  22
ENDBRANCH   1  15
BRANCH   5  31
HETATM   31  C   UNL     1      41.763 -10.731   4.953  1.00  0.00     0.168 C 
BRANCH  31  32
HETATM   32  C   UNL     1      42.397 -11.640   6.008  1.00  0.00     0.140 C 
HETATM   33  O   UNL     1      42.846 -10.850   7.126  1.00  0.00    -0.384 OA
HETATM   34  C   UNL     1      44.230 -11.146   7.365  1.00  0.00     0.168 C 
HETATM   35  C   UNL     1      44.502 -12.470   6.688  1.00  0.00     0.029 C 
HETATM   36  C   UNL     1      43.620 -12.374   5.470  1.00  0.00     0.036 C 
ENDBRANCH  31  32
ENDBRANCH   5  31
TORSDOF 6
ENDMDL
MODEL 4
REMARK VINA RESULT:      -8.7      2.057      2.786
REMARK  6 active torsions:
REMARK  status: ('A' for Active; 'I' for Inactive)
REMARK    1  A    between atoms: C_3  and  C_4 
REMARK    2  A    between atoms: C_4  and  C_5 
REMARK    3  A    between atoms: N_8  and  C_10 
REMARK    4  A    between atoms: C_10  and  C_11 
REMARK    5  A    between atoms: N_24  and  C_25 
REMARK    6  A    between atoms: C_25  and  C_26 
ROOT
HETATM    1  C   UNL     1      40.729 -11.569   4.927  1.00  0.00     0.149 C 
HETATM    2  N   UNL     1      42.147 -11.777   4.661  1.00  0.00    -0.220 NA
HETATM    3  C   UNL     1      42.537 -11.192   3.482  1.00  0.00     0.304 C 
HETATM    4  O   UNL     1      43.696 -11.161   3.109  1.00  0.00    -0.253 OA
HETATM    5  N   UNL     1      41.442 -10.731   2.832  1.00  0.00    -0.270 N 
HETATM    6  C   UNL     1      40.331 -10.842   3.623  1.00  0.00     0.257 C 
HETATM    7  O   UNL     1      39.189 -10.521   3.323  1.00  0.00    -0.270 OA
HETATM    8  H   UNL     1      42.802 -11.629   5.427  1.00  0.00     0.134 HD
ENDROOT
BRANCH   1   9
HETATM    9  C   UNL     1      40.590 -10.716   6.185  1.00  0.00     0.067 A 
HETATM   10  C   UNL     1      39.366 -10.458   6.796  1.00  0.00     0.030 A 
HETATM   11  C   UNL     1      39.350  -9.727   7.983  1.00  0.00     0.003 A 
HETATM   12  C   UNL     1      40.543  -9.280   8.536  1.00  0.00     0.019 A 
HETATM   13  C   UNL     1      41.720  -9.582   7.877  1.00  0.00     0.117 A 
HETATM   14  N   UNL     1      41.774 -10.295   6.730  1.00  0.00    -0.263 NA
ENDBRANCH   1   9
BRANCH   1  15
HETATM   15  C   UNL     1      39.937 -12.921   5.067  1.00  0.00     0.028 C 
HETATM   16  C   UNL     1      40.326 -13.783   6.281  1.00  0.00     0.035 C 
HETATM   17  C   UNL     1      41.710 -14.399   6.167  1.00  0.00     0.235 C 
HETATM   18  N   UNL     1      41.865 -15.184   4.883  1.00  0.00    -0.067 N 
HETATM   19  H   UNL     1      41.346 -16.065   5.009  1.00  0.00     0.280 HD
HETATM   20  C   UNL     1      41.333 -14.534   3.628  1.00  0.00     0.235 C 
HETATM   21  C   UNL     1      39.990 -13.854   3.843  1.00  0.00     0.035 C 
BRANCH  18  22
HETATM   22  C   UNL     1      43.323 -15.580   4.640  1.00  0.00     0.278 C 
BRANCH  22  23
HETATM   23  C   UNL     1      43.550 -17.018   4.285  1.00  0.00     0.028 A 
HETATM   24  C   UNL     1      43.514 -17.509   2.972  1.00  0.00     0.045 A 
HETATM   25 CL   UNL     1      43.259 -16.470   1.617  1.00  0.00    -0.084 Cl
HETATM   26  C   UNL     1      43.709 -18.870   2.716  1.00  0.00     0.024 A 
HETATM   27  C   UNL     1      43.946 -19.757   3.767  1.00  0.00     0.005 A 
HETATM   28  C   UNL     1      43.996 -19.282   5.074  1.00  0.00     0.043 A 
HETATM   29  C   UNL     1      43.801 -17.927   5.317  1.00  0.00     0.126 A 
HETATM   30  F   UNL     1      43.879 -17.469   6.574  1.00  0.00    -0.205 F 
ENDBRANCH  22  23
ENDBRANCH  18  22
ENDBRANCH   1  15
BRANCH   5  31
HETATM   31  C   UNL     1      41.493 -10.137   1.506  1.00  0.00     0.168 C 
BRANCH  31  32
HETATM   32  C   UNL     1      41.084 -11.117   0.405  1.00  0.00     0.140 C 
HETATM   33  O   UNL     1      39.659 -11.054   0.202  1.00  0.00    -0.384 OA
HETATM   34  C   UNL     1      39.125 -12.382   0.312  1.00  0.00     0.168 C 
HETATM   35  C   UNL     1      40.291 -13.324   0.116  1.00  0.00     0.029 C 
HETATM   36  C   UNL     1      41.411 -12.560   0.773  1.00  0.00     0.036 C 
ENDBRANCH  31  32
ENDBRANCH   5  31
TORSDOF 6
ENDMDL
MODEL 5
REMARK VINA RESULT:      -8.6      3.247      7.233
REMARK  6 active torsions:
REMARK  status: ('A' for Active; 'I' for Inactive)
REMARK    1  A    between atoms: C_3  and  C_4 
REMARK    2  A    between atoms: C_4  and  C_5 
REMARK    3  A    between atoms: N_8  and  C_10 
REMARK    4  A    between atoms: C_10  and  C_11 
REMARK    5  A    between atoms: N_24  and  C_25 
REMARK    6  A    between atoms: C_25  and  C_26 
ROOT
HETATM    1  C   UNL     1      42.065 -14.753   3.977  1.00  0.00     0.149 C 
HETATM    2  N   UNL     1      42.614 -13.830   2.991  1.00  0.00    -0.220 NA
HETATM    3  C   UNL     1      43.311 -12.806   3.581  1.00  0.00     0.304 C 
HETATM    4  O   UNL     1      43.932 -11.973   2.945  1.00  0.00    -0.253 OA
HETATM    5  N   UNL     1      43.140 -12.869   4.923  1.00  0.00    -0.270 N 
HETATM    6  C   UNL     1      42.478 -14.014   5.270  1.00  0.00     0.257 C 
HETATM    7  O   UNL     1      42.165 -14.359   6.401  1.00  0.00    -0.270 OA
HETATM    8  H   UNL     1      43.082 -14.227   2.176  1.00  0.00     0.134 HD
ENDROOT
BRANCH   1   9
HETATM    9  C   UNL     1      42.731 -16.113   3.795  1.00  0.00     0.067 A 
HETATM   10  C   UNL     1      43.174 -16.583   2.562  1.00  0.00     0.030 A 
HETATM   11  C   UNL     1      43.836 -17.809   2.509  1.00  0.00     0.003 A 
HETATM   12  C   UNL     1      44.050 -18.530   3.678  1.00  0.00     0.019 A 
HETATM   13  C   UNL     1      43.591 -17.995   4.866  1.00  0.00     0.117 A 
HETATM   14  N   UNL     1      42.952 -16.807   4.956  1.00  0.00    -0.263 NA
ENDBRANCH   1   9
BRANCH   1  15
HETATM   15  C   UNL     1      40.500 -14.869   3.886  1.00  0.00     0.028 C 
HETATM   16  C   UNL     1      39.975 -15.748   2.736  1.00  0.00     0.035 C 
HETATM   17  C   UNL     1      40.187 -15.135   1.362  1.00  0.00     0.235 C 
HETATM   18  N   UNL     1      39.603 -13.742   1.279  1.00  0.00    -0.067 N 
HETATM   19  H   UNL     1      38.581 -13.852   1.211  1.00  0.00     0.280 HD
HETATM   20  C   UNL     1      39.871 -12.828   2.451  1.00  0.00     0.235 C 
HETATM   21  C   UNL     1      39.735 -13.535   3.790  1.00  0.00     0.035 C 
BRANCH  18  22
HETATM   22  C   UNL     1      40.040 -13.025  -0.001  1.00  0.00     0.278 C 
BRANCH  22  23
HETATM   23  C   UNL     1      38.932 -12.609  -0.918  1.00  0.00     0.028 A 
HETATM   24  C   UNL     1      38.389 -13.440  -1.908  1.00  0.00     0.045 A 
HETATM   25 CL   UNL     1      38.919 -15.069  -2.121  1.00  0.00    -0.084 Cl
HETATM   26  C   UNL     1      37.371 -12.976  -2.747  1.00  0.00     0.024 A 
HETATM   27  C   UNL     1      36.881 -11.677  -2.607  1.00  0.00     0.005 A 
HETATM   28  C   UNL     1      37.402 -10.844  -1.622  1.00  0.00     0.043 A 
HETATM   29  C   UNL     1      38.414 -11.317  -0.792  1.00  0.00     0.126 A 
HETATM   30  F   UNL     1      38.892 -10.521   0.175  1.00  0.00    -0.205 F 
ENDBRANCH  22  23
ENDBRANCH  18  22
ENDBRANCH   1  15
BRANCH   5  31
HETATM   31  C   UNL     1      43.671 -11.874   5.841  1.00  0.00     0.168 C 
BRANCH  31  32
HETATM   32  C   UNL     1      42.571 -11.051   6.516  1.00  0.00     0.140 C 
HETATM   33  O   UNL     1      41.676 -10.523   5.518  1.00  0.00    -0.384 OA
HETATM   34  C   UNL     1      41.578  -9.103   5.700  1.00  0.00     0.168 C 
HETATM   35  C   UNL     1      42.050  -8.824   7.109  1.00  0.00     0.029 C 
HETATM   36  C   UNL     1      43.136  -9.855   7.274  1.00  0.00     0.036 C 
ENDBRANCH  31  32
ENDBRANCH   5  31
TORSDOF 6
ENDMDL
MODEL 6
REMARK VINA RESULT:      -8.5      3.027      7.304
REMARK  6 active torsions:
REMARK  status: ('A' for Active; 'I' for Inactive)
REMARK    1  A    between atoms: C_3  and  C_4 
REMARK    2  A    between atoms: C_4  and  C_5 
REMARK    3  A    between atoms: N_8  and  C_10 
REMARK    4  A    between atoms: C_10  and  C_11 
REMARK    5  A    between atoms: N_24  and  C_25 
REMARK    6  A    between atoms: C_25  and  C_26 
ROOT
HETATM    1  C   UNL     1      40.487 -13.721   1.158  1.00  0.00     0.149 C 
HETATM    2  N   UNL     1      41.852 -13.310   1.467  1.00  0.00    -0.220 NA
HETATM    3  C   UNL     1      42.662 -14.386   1.733  1.00  0.00     0.304 C 
HETATM    4  O   UNL     1      43.860 -14.283   1.923  1.00  0.00    -0.253 OA
HETATM    5  N   UNL     1      41.905 -15.508   1.790  1.00  0.00    -0.270 N 
HETATM    6  C   UNL     1      40.620 -15.241   1.402  1.00  0.00     0.257 C 
HETATM    7  O   UNL     1      39.695 -16.039   1.353  1.00  0.00    -0.270 OA
HETATM    8  H   UNL     1      42.286 -12.611   0.866  1.00  0.00     0.134 HD
ENDROOT
BRANCH   1   9
HETATM    9  C   UNL     1      40.181 -13.346  -0.289  1.00  0.00     0.067 A 
HETATM   10  C   UNL     1      40.944 -12.436  -1.014  1.00  0.00     0.030 A 
HETATM   11  C   UNL     1      40.628 -12.213  -2.354  1.00  0.00     0.003 A 
HETATM   12  C   UNL     1      39.574 -12.902  -2.939  1.00  0.00     0.019 A 
HETATM   13  C   UNL     1      38.868 -13.797  -2.159  1.00  0.00     0.117 A 
HETATM   14  N   UNL     1      39.151 -14.045  -0.860  1.00  0.00    -0.263 NA
ENDBRANCH   1   9
BRANCH   1  15
HETATM   15  C   UNL     1      39.433 -13.096   2.143  1.00  0.00     0.028 C 
HETATM   16  C   UNL     1      39.112 -11.610   1.900  1.00  0.00     0.035 C 
HETATM   17  C   UNL     1      40.260 -10.678   2.253  1.00  0.00     0.235 C 
HETATM   18  N   UNL     1      40.735 -10.896   3.672  1.00  0.00    -0.067 N 
HETATM   19  H   UNL     1      40.032 -10.468   4.291  1.00  0.00     0.280 HD
HETATM   20  C   UNL     1      40.898 -12.331   4.115  1.00  0.00     0.235 C 
HETATM   21  C   UNL     1      39.763 -13.224   3.643  1.00  0.00     0.035 C 
BRANCH  18  22
HETATM   22  C   UNL     1      42.047 -10.156   3.944  1.00  0.00     0.278 C 
BRANCH  22  23
HETATM   23  C   UNL     1      42.811 -10.618   5.147  1.00  0.00     0.028 A 
HETATM   24  C   UNL     1      42.449 -10.305   6.465  1.00  0.00     0.045 A 
HETATM   25 CL   UNL     1      41.029  -9.394   6.828  1.00  0.00    -0.084 Cl
HETATM   26  C   UNL     1      43.225 -10.749   7.540  1.00  0.00     0.024 A 
HETATM   27  C   UNL     1      44.370 -11.513   7.314  1.00  0.00     0.005 A 
HETATM   28  C   UNL     1      44.736 -11.841   6.012  1.00  0.00     0.043 A 
HETATM   29  C   UNL     1      43.957 -11.394   4.950  1.00  0.00     0.126 A 
HETATM   30  F   UNL     1      44.297 -11.737   3.699  1.00  0.00    -0.205 F 
ENDBRANCH  22  23
ENDBRANCH  18  22
ENDBRANCH   1  15
BRANCH   5  31
HETATM   31  C   UNL     1      42.439 -16.812   2.145  1.00  0.00     0.168 C 
BRANCH  31  32
HETATM   32  C   UNL     1      42.443 -17.056   3.656  1.00  0.00     0.140 C 
HETATM   33  O   UNL     1      42.150 -15.826   4.348  1.00  0.00    -0.384 OA
HETATM   34  C   UNL     1      43.187 -15.589   5.310  1.00  0.00     0.168 C 
HETATM   35  C   UNL     1      43.871 -16.918   5.533  1.00  0.00     0.029 C 
HETATM   36  C   UNL     1      43.803 -17.527   4.157  1.00  0.00     0.036 C 
ENDBRANCH  31  32
ENDBRANCH   5  31
TORSDOF 6
ENDMDL
MODEL 7
REMARK VINA RESULT:      -8.4      2.610      3.450
REMARK  6 active torsions:
REMARK  status: ('A' for Active; 'I' for Inactive)
REMARK    1  A    between atoms: C_3  and  C_4 
REMARK    2  A    between atoms: C_4  and  C_5 
REMARK    3  A    between atoms: N_8  and  C_10 
REMARK    4  A    between atoms: C_10  and  C_11 
REMARK    5  A    between atoms: N_24  and  C_25 
REMARK    6  A    between atoms: C_25  and  C_26 
ROOT
HETATM    1  C   UNL     1      40.329 -11.399   4.704  1.00  0.00     0.149 C 
HETATM    2  N   UNL     1      41.634 -11.527   4.066  1.00  0.00    -0.220 NA
HETATM    3  C   UNL     1      41.670 -10.897   2.847  1.00  0.00     0.304 C 
HETATM    4  O   UNL     1      42.687 -10.797   2.182  1.00  0.00    -0.253 OA
HETATM    5  N   UNL     1      40.423 -10.480   2.525  1.00  0.00    -0.270 N 
HETATM    6  C   UNL     1      39.568 -10.666   3.577  1.00  0.00     0.257 C 
HETATM    7  O   UNL     1      38.375 -10.399   3.600  1.00  0.00    -0.270 OA
HETATM    8  H   UNL     1      42.462 -11.361   4.636  1.00  0.00     0.134 HD
ENDROOT
BRANCH   1   9
HETATM    9  C   UNL     1      40.491 -10.581   5.982  1.00  0.00     0.067 A 
HETATM   10  C   UNL     1      39.420 -10.230   6.799  1.00  0.00     0.030 A 
HETATM   11  C   UNL     1      39.677  -9.543   7.985  1.00  0.00     0.003 A 
HETATM   12  C   UNL     1      40.986  -9.231   8.332  1.00  0.00     0.019 A 
HETATM   13  C   UNL     1      41.998  -9.621   7.477  1.00  0.00     0.117 A 
HETATM   14  N   UNL     1      41.786 -10.295   6.324  1.00  0.00    -0.263 NA
ENDBRANCH   1   9
BRANCH   1  15
HETATM   15  C   UNL     1      39.665 -12.793   5.001  1.00  0.00     0.028 C 
HETATM   16  C   UNL     1      40.363 -13.632   6.086  1.00  0.00     0.035 C 
HETATM   17  C   UNL     1      41.718 -14.169   5.655  1.00  0.00     0.235 C 
HETATM   18  N   UNL     1      41.622 -14.945   4.360  1.00  0.00    -0.067 N 
HETATM   19  H   UNL     1      41.194 -15.853   4.588  1.00  0.00     0.280 HD
HETATM   20  C   UNL     1      40.787 -14.326   3.265  1.00  0.00     0.235 C 
HETATM   21  C   UNL     1      39.492 -13.722   3.784  1.00  0.00     0.035 C 
BRANCH  18  22
HETATM   22  C   UNL     1      43.008 -15.258   3.790  1.00  0.00     0.278 C 
BRANCH  22  23
HETATM   23  C   UNL     1      43.355 -16.713   3.702  1.00  0.00     0.028 A 
HETATM   24  C   UNL     1      44.068 -17.403   4.693  1.00  0.00     0.045 A 
HETATM   25 CL   UNL     1      44.566 -16.637   6.158  1.00  0.00    -0.084 Cl
HETATM   26  C   UNL     1      44.380 -18.757   4.533  1.00  0.00     0.024 A 
HETATM   27  C   UNL     1      43.982 -19.439   3.382  1.00  0.00     0.005 A 
HETATM   28  C   UNL     1      43.264 -18.770   2.395  1.00  0.00     0.043 A 
HETATM   29  C   UNL     1      42.959 -17.424   2.566  1.00  0.00     0.126 A 
HETATM   30  F   UNL     1      42.242 -16.792   1.627  1.00  0.00    -0.205 F 
ENDBRANCH  22  23
ENDBRANCH  18  22
ENDBRANCH   1  15
BRANCH   5  31
HETATM   31  C   UNL     1      40.094  -9.856   1.254  1.00  0.00     0.168 C 
BRANCH  31  32
HETATM   32  C   UNL     1      39.985 -10.868   0.111  1.00  0.00     0.140 C 
HETATM   33  O   UNL     1      39.534 -10.204  -1.085  1.00  0.00    -0.384 OA
HETATM   34  C   UNL     1      38.382 -10.900  -1.584  1.00  0.00     0.168 C 
HETATM   35  C   UNL     1      38.409 -12.272  -0.951  1.00  0.00     0.029 C 
HETATM   36  C   UNL     1      38.970 -11.964   0.414  1.00  0.00     0.036 C 
ENDBRANCH  31  32
ENDBRANCH   5  31
TORSDOF 6
ENDMDL
MODEL 8
REMARK VINA RESULT:      -8.3      2.501      5.478
REMARK  6 active torsions:
REMARK  status: ('A' for Active; 'I' for Inactive)
REMARK    1  A    between atoms: C_3  and  C_4 
REMARK    2  A    between atoms: C_4  and  C_5 
REMARK    3  A    between atoms: N_8  and  C_10 
REMARK    4  A    between atoms: C_10  and  C_11 
REMARK    5  A    between atoms: N_24  and  C_25 
REMARK    6  A    between atoms: C_25  and  C_26 
ROOT
HETATM    1  C   UNL     1      41.968 -11.975   4.634  1.00  0.00     0.149 C 
HETATM    2  N   UNL     1      42.089 -13.212   5.395  1.00  0.00    -0.220 NA
HETATM    3  C   UNL     1      43.147 -13.175   6.268  1.00  0.00     0.304 C 
HETATM    4  O   UNL     1      43.379 -14.063   7.068  1.00  0.00    -0.253 OA
HETATM    5  N   UNL     1      43.868 -12.051   6.042  1.00  0.00    -0.270 N 
HETATM    6  C   UNL     1      43.226 -11.240   5.147  1.00  0.00     0.257 C 
HETATM    7  O   UNL     1      43.621 -10.159   4.731  1.00  0.00    -0.270 OA
HETATM    8  H   UNL     1      41.240 -13.609   5.798  1.00  0.00     0.134 HD
ENDROOT
BRANCH   1   9
HETATM    9  C   UNL     1      40.653 -11.298   5.011  1.00  0.00     0.067 A 
HETATM   10  C   UNL     1      39.779 -11.815   5.963  1.00  0.00     0.030 A 
HETATM   11  C   UNL     1      38.637 -11.086   6.292  1.00  0.00     0.003 A 
HETATM   12  C   UNL     1      38.396  -9.864   5.676  1.00  0.00     0.019 A 
HETATM   13  C   UNL     1      39.314  -9.410   4.748  1.00  0.00     0.117 A 
HETATM   14  N   UNL     1      40.436 -10.086   4.412  1.00  0.00    -0.263 NA
ENDBRANCH   1   9
BRANCH   1  15
HETATM   15  C   UNL     1      42.061 -12.210   3.082  1.00  0.00     0.028 C 
HETATM   16  C   UNL     1      40.753 -12.661   2.409  1.00  0.00     0.035 C 
HETATM   17  C   UNL     1      40.340 -14.076   2.779  1.00  0.00     0.235 C 
HETATM   18  N   UNL     1      41.450 -15.068   2.506  1.00  0.00    -0.067 N 
HETATM   19  H   UNL     1      41.479 -15.208   1.486  1.00  0.00     0.280 HD
HETATM   20  C   UNL     1      42.838 -14.659   2.936  1.00  0.00     0.235 C 
HETATM   21  C   UNL     1      43.145 -13.204   2.622  1.00  0.00     0.035 C 
BRANCH  18  22
HETATM   22  C   UNL     1      41.140 -16.437   3.115  1.00  0.00     0.278 C 
BRANCH  22  23
HETATM   23  C   UNL     1      42.081 -16.894   4.188  1.00  0.00     0.028 A 
HETATM   24  C   UNL     1      41.836 -16.728   5.558  1.00  0.00     0.045 A 
HETATM   25 CL   UNL     1      40.373 -16.026   6.144  1.00  0.00    -0.084 Cl
HETATM   26  C   UNL     1      42.773 -17.156   6.505  1.00  0.00     0.024 A 
HETATM   27  C   UNL     1      43.964 -17.755   6.095  1.00  0.00     0.005 A 
HETATM   28  C   UNL     1      44.216 -17.936   4.739  1.00  0.00     0.043 A 
HETATM   29  C   UNL     1      43.277 -17.508   3.806  1.00  0.00     0.126 A 
HETATM   30  F   UNL     1      43.511 -17.711   2.502  1.00  0.00    -0.205 F 
ENDBRANCH  22  23
ENDBRANCH  18  22
ENDBRANCH   1  15
BRANCH   5  31
HETATM   31  C   UNL     1      45.110 -11.748   6.735  1.00  0.00     0.168 C 
BRANCH  31  32
HETATM   32  C   UNL     1      44.889 -10.928   8.008  1.00  0.00     0.140 C 
HETATM   33  O   UNL     1      43.581 -10.325   7.978  1.00  0.00    -0.384 OA
HETATM   34  C   UNL     1      43.726  -8.914   8.193  1.00  0.00     0.168 C 
HETATM   35  C   UNL     1      45.085  -8.720   8.825  1.00  0.00     0.029 C 
HETATM   36  C   UNL     1      45.894  -9.790   8.137  1.00  0.00     0.036 C 
ENDBRANCH  31  32
ENDBRANCH   5  31
TORSDOF 6
ENDMDL
MODEL 9
REMARK VINA RESULT:      -8.2      2.657      5.734
REMARK  6 active torsions:
REMARK  status: ('A' for Active; 'I' for Inactive)
REMARK    1  A    between atoms: C_3  and  C_4 
REMARK    2  A    between atoms: C_4  and  C_5 
REMARK    3  A    between atoms: N_8  and  C_10 
REMARK    4  A    between atoms: C_10  and  C_11 
REMARK    5  A    between atoms: N_24  and  C_25 
REMARK    6  A    between atoms: C_25  and  C_26 
ROOT
HETATM    1  C   UNL     1      41.167 -11.098   3.803  1.00  0.00     0.149 C 
HETATM    2  N   UNL     1      40.299 -12.074   4.450  1.00  0.00    -0.220 NA
HETATM    3  C   UNL     1      39.523 -11.501   5.426  1.00  0.00     0.304 C 
HETATM    4  O   UNL     1      38.660 -12.111   6.031  1.00  0.00    -0.253 OA
HETATM    5  N   UNL     1      39.918 -10.219   5.610  1.00  0.00    -0.270 N 
HETATM    6  C   UNL     1      40.834  -9.857   4.661  1.00  0.00     0.257 C 
HETATM    7  O   UNL     1      41.386  -8.770   4.560  1.00  0.00    -0.270 OA
HETATM    8  H   UNL     1      39.790 -12.727   3.855  1.00  0.00     0.134 HD
ENDROOT
BRANCH   1   9
HETATM    9  C   UNL     1      40.753 -10.973   2.339  1.00  0.00     0.067 A 
HETATM   10  C   UNL     1      41.341 -10.070   1.459  1.00  0.00     0.030 A 
HETATM   11  C   UNL     1      40.945 -10.081   0.122  1.00  0.00     0.003 A 
HETATM   12  C   UNL     1      39.986 -10.990  -0.307  1.00  0.00     0.019 A 
HETATM   13  C   UNL     1      39.453 -11.862   0.623  1.00  0.00     0.117 A 
HETATM   14  N   UNL     1      39.820 -11.885   1.924  1.00  0.00    -0.263 NA
ENDBRANCH   1   9
BRANCH   1  15
HETATM   15  C   UNL     1      42.690 -11.466   3.934  1.00  0.00     0.028 C 
HETATM   16  C   UNL     1      43.227 -12.423   2.855  1.00  0.00     0.035 C 
HETATM   17  C   UNL     1      42.690 -13.839   2.982  1.00  0.00     0.235 C 
HETATM   18  N   UNL     1      42.934 -14.403   4.365  1.00  0.00    -0.067 N 
HETATM   19  H   UNL     1      43.934 -14.643   4.416  1.00  0.00     0.280 HD
HETATM   20  C   UNL     1      42.640 -13.485   5.527  1.00  0.00     0.235 C 
HETATM   21  C   UNL     1      43.118 -12.063   5.288  1.00  0.00     0.035 C 
BRANCH  18  22
HETATM   22  C   UNL     1      42.171 -15.712   4.579  1.00  0.00     0.278 C 
BRANCH  22  23
HETATM   23  C   UNL     1      42.852 -16.946   4.072  1.00  0.00     0.028 A 
HETATM   24  C   UNL     1      43.886 -17.600   4.757  1.00  0.00     0.045 A 
HETATM   25 CL   UNL     1      44.434 -17.066   6.304  1.00  0.00    -0.084 Cl
HETATM   26  C   UNL     1      44.495 -18.734   4.211  1.00  0.00     0.024 A 
HETATM   27  C   UNL     1      44.079 -19.231   2.975  1.00  0.00     0.005 A 
HETATM   28  C   UNL     1      43.046 -18.599   2.289  1.00  0.00     0.043 A 
HETATM   29  C   UNL     1      42.446 -17.472   2.842  1.00  0.00     0.126 A 
HETATM   30  F   UNL     1      41.433 -16.885   2.191  1.00  0.00    -0.205 F 
ENDBRANCH  22  23
ENDBRANCH  18  22
ENDBRANCH   1  15
BRANCH   5  31
HETATM   31  C   UNL     1      39.362  -9.354   6.638  1.00  0.00     0.168 C 
BRANCH  31  32
HETATM   32  C   UNL     1      39.899  -9.678   8.034  1.00  0.00     0.140 C 
HETATM   33  O   UNL     1      38.809  -9.729   8.975  1.00  0.00    -0.384 OA
HETATM   34  C   UNL     1      39.111  -8.848  10.067  1.00  0.00     0.168 C 
HETATM   35  C   UNL     1      40.603  -8.613  10.022  1.00  0.00     0.029 C 
HETATM   36  C   UNL     1      40.864  -8.611   8.538  1.00  0.00     0.036 C 
ENDBRANCH  31  32
ENDBRANCH   5  31
TORSDOF 6
ENDMDL
MODEL 10
REMARK VINA RESULT:      -8.1     15.283     17.240
REMARK  6 active torsions:
REMARK  status: ('A' for Active; 'I' for Inactive)
REMARK    1  A    between atoms: C_3  and  C_4 
REMARK    2  A    between atoms: C_4  and  C_5 
REMARK    3  A    between atoms: N_8  and  C_10 
REMARK    4  A    between atoms: C_10  and  C_11 
REMARK    5  A    between atoms: N_24  and  C_25 
REMARK    6  A    between atoms: C_25  and  C_26 
ROOT
HETATM    1  C   UNL     1      45.343 -29.625  -0.425  1.00  0.00     0.149 C 
HETATM    2  N   UNL     1      45.926 -30.940  -0.187  1.00  0.00    -0.220 NA
HETATM    3  C   UNL     1      45.059 -31.770   0.479  1.00  0.00     0.304 C 
HETATM    4  O   UNL     1      45.302 -32.943   0.700  1.00  0.00    -0.253 OA
HETATM    5  N   UNL     1      43.972 -31.060   0.864  1.00  0.00    -0.270 N 
HETATM    6  C   UNL     1      44.005 -29.803   0.326  1.00  0.00     0.257 C 
HETATM    7  O   UNL     1      43.174 -28.920   0.490  1.00  0.00    -0.270 OA
HETATM    8  H   UNL     1      46.413 -31.393  -0.960  1.00  0.00     0.134 HD
ENDROOT
BRANCH   1   9
HETATM    9  C   UNL     1      45.192 -29.426  -1.931  1.00  0.00     0.067 A 
HETATM   10  C   UNL     1      45.043 -28.173  -2.519  1.00  0.00     0.030 A 
HETATM   11  C   UNL     1      44.985 -28.088  -3.910  1.00  0.00     0.003 A 
HETATM   12  C   UNL     1      45.083 -29.241  -4.678  1.00  0.00     0.019 A 
HETATM   13  C   UNL     1      45.239 -30.448  -4.023  1.00  0.00     0.117 A 
HETATM   14  N   UNL     1      45.308 -30.568  -2.678  1.00  0.00    -0.263 NA
ENDBRANCH   1   9
BRANCH   1  15
HETATM   15  C   UNL     1      46.187 -28.466   0.220  1.00  0.00     0.028 C 
HETATM   16  C   UNL     1      47.528 -28.169  -0.475  1.00  0.00     0.035 C 
HETATM   17  C   UNL     1      48.562 -29.267  -0.289  1.00  0.00     0.235 C 
HETATM   18  N   UNL     1      48.778 -29.583   1.174  1.00  0.00    -0.067 N 
HETATM   19  H   UNL     1      49.341 -28.814   1.565  1.00  0.00     0.280 HD
HETATM   20  C   UNL     1      47.539 -29.701   2.028  1.00  0.00     0.235 C 
HETATM   21  C   UNL     1      46.508 -28.628   1.718  1.00  0.00     0.035 C 
BRANCH  18  22
HETATM   22  C   UNL     1      49.612 -30.854   1.356  1.00  0.00     0.278 C 
BRANCH  22  23
HETATM   23  C   UNL     1      49.906 -31.235   2.775  1.00  0.00     0.028 A 
HETATM   24  C   UNL     1      49.272 -32.293   3.442  1.00  0.00     0.045 A 
HETATM   25 CL   UNL     1      48.120 -33.308   2.654  1.00  0.00    -0.084 Cl
HETATM   26  C   UNL     1      49.577 -32.577   4.777  1.00  0.00     0.024 A 
HETATM   27  C   UNL     1      50.520 -31.810   5.462  1.00  0.00     0.005 A 
HETATM   28  C   UNL     1      51.165 -30.763   4.809  1.00  0.00     0.043 A 
HETATM   29  C   UNL     1      50.855 -30.491   3.481  1.00  0.00     0.126 A 
HETATM   30  F   UNL     1      51.500 -29.501   2.848  1.00  0.00    -0.205 F 
ENDBRANCH  22  23
ENDBRANCH  18  22
ENDBRANCH   1  15
BRANCH   5  31
HETATM   31  C   UNL     1      42.901 -31.619   1.673  1.00  0.00     0.168 C 
BRANCH  31  32
HETATM   32  C   UNL     1      42.911 -31.090   3.109  1.00  0.00     0.140 C 
HETATM   33  O   UNL     1      43.308 -32.140   4.012  1.00  0.00    -0.384 OA
HETATM   34  C   UNL     1      42.311 -32.259   5.037  1.00  0.00     0.168 C 
HETATM   35  C   UNL     1      41.536 -30.961   5.025  1.00  0.00     0.029 C 
HETATM   36  C   UNL     1      41.530 -30.625   3.556  1.00  0.00     0.036 C 
ENDBRANCH  31  32
ENDBRANCH   5  31
TORSDOF 6
ENDMDL
