MODEL 1
REMARK VINA RESULT:      -9.1      0.000      0.000
REMARK  9 active torsions:
REMARK  status: ('A' for Active; 'I' for Inactive)
REMARK    1  A    between atoms: C_2  and  O_3 
REMARK    2  A    between atoms: O_3  and  C_4 
REMARK    3  A    between atoms: C_5  and  C_6 
REMARK    4  A    between atoms: N_7  and  C_9 
REMARK    5  A    between atoms: C_9  and  C_10 
REMARK       I    between atoms: C_10  and  N_11 
REMARK    6  A    between atoms: N_11  and  C_12 
REMARK    7  A    between atoms: C_20  and  C_21 
REMARK    8  A    between atoms: C_21  and  O_22 
REMARK    9  A    between atoms: C_28  and  O_29 
ROOT
HETATM    1  C   UNL     1      42.796 -15.889   3.713  1.00  0.00     0.231 C 
HETATM    2  N   UNL     1      42.415 -15.113   4.986  1.00  0.00    -0.054 N 
HETATM    3  H   UNL     1      42.721 -14.171   4.691  1.00  0.00     0.281 HD
HETATM    4  C   UNL     1      43.233 -15.454   6.190  1.00  0.00     0.239 C 
HETATM    5  C   UNL     1      43.193 -16.946   6.460  1.00  0.00     0.066 C 
HETATM    6  C   UNL     1      43.740 -17.704   5.252  1.00  0.00     0.065 C 
HETATM    7  C   UNL     1      42.874 -17.413   4.002  1.00  0.00     0.055 C 
HETATM    8  C   UNL     1      43.809 -19.215   5.527  1.00  0.00     0.038 C 
HETATM    9  C   UNL     1      44.361 -19.983   4.327  1.00  0.00     0.003 C 
HETATM   10  C   UNL     1      43.573 -19.678   3.059  1.00  0.00     0.001 C 
HETATM   11  C   UNL     1      43.465 -18.178   2.791  1.00  0.00     0.010 C 
ENDROOT
BRANCH   2  12
HETATM   12  C   UNL     1      40.911 -14.939   5.276  1.00  0.00     0.338 C 
BRANCH  12  13
HETATM   13  C   UNL     1      40.635 -13.670   6.105  1.00  0.00     0.248 C 
HETATM   14  N   UNL     1      41.749 -12.836   6.125  1.00  0.00    -0.319 N 
HETATM   15  H   UNL     1      42.664 -13.228   5.925  1.00  0.00     0.169 HD
HETATM   16  O   UNL     1      39.550 -13.492   6.639  1.00  0.00    -0.271 OA
BRANCH  14  17
HETATM   17  C   UNL     1      41.784 -11.478   6.408  1.00  0.00     0.094 A 
HETATM   18  S   UNL     1      40.661 -10.414   5.710  1.00  0.00    -0.075 SA
HETATM   19  C   UNL     1      41.373  -9.066   6.447  1.00  0.00    -0.008 A 
HETATM   20  C   UNL     1      42.444  -9.404   7.250  1.00  0.00    -0.026 A 
HETATM   21  C   UNL     1      40.857  -7.676   6.233  1.00  0.00     0.047 C 
HETATM   22  C   UNL     1      43.238  -8.356   7.986  1.00  0.00     0.041 C 
HETATM   23  C   UNL     1      42.722 -10.826   7.203  1.00  0.00     0.080 A 
HETATM   24  C   UNL     1      42.540  -6.988   7.996  1.00  0.00     0.005 C 
HETATM   25  C   UNL     1      41.925  -6.648   6.635  1.00  0.00     0.005 C 
BRANCH  23  26
HETATM   26  C   UNL     1      43.870 -11.462   7.864  1.00  0.00     0.296 C 
HETATM   27  O   UNL     1      44.020 -11.487   9.076  1.00  0.00    -0.259 OA
BRANCH  26  28
HETATM   28  O   UNL     1      44.787 -11.974   6.975  1.00  0.00    -0.322 OA
HETATM   29  C   UNL     1      45.958 -11.168   6.773  1.00  0.00     0.213 C 
ENDBRANCH  26  28
ENDBRANCH  23  26
ENDBRANCH  14  17
ENDBRANCH  12  13
ENDBRANCH   2  12
BRANCH   1  30
HETATM   30  C   UNL     1      41.944 -15.426   2.535  1.00  0.00     0.006 A 
HETATM   31  C   UNL     1      42.212 -14.170   1.947  1.00  0.00     0.077 A 
HETATM   32  C   UNL     1      41.409 -13.693   0.906  1.00  0.00     0.037 A 
HETATM   33  C   UNL     1      40.344 -14.459   0.433  1.00  0.00     0.003 A 
HETATM   34  C   UNL     1      40.065 -15.693   1.005  1.00  0.00     0.001 A 
HETATM   35  C   UNL     1      40.851 -16.171   2.053  1.00  0.00     0.012 A 
BRANCH  31  36
HETATM   36  O   UNL     1      43.240 -13.455   2.515  1.00  0.00    -0.351 OA
BRANCH  36  37
HETATM   37  C   UNL     1      42.932 -12.101   2.877  1.00  0.00     0.171 C 
HETATM   38  C   UNL     1      44.098 -11.561   3.685  1.00  0.00     0.034 C 
ENDBRANCH  36  37
ENDBRANCH  31  36
ENDBRANCH   1  30
BRANCH   6  39
HETATM   39  O   UNL     1      45.064 -17.204   5.019  1.00  0.00    -0.389 OA
HETATM   40  H   UNL     1      45.361 -17.473   4.127  1.00  0.00     0.210 HD
ENDBRANCH   6  39
TORSDOF 9
ENDMDL
MODEL 2
REMARK VINA RESULT:      -9.0      2.421      5.309
REMARK  9 active torsions:
REMARK  status: ('A' for Active; 'I' for Inactive)
REMARK    1  A    between atoms: C_2  and  O_3 
REMARK    2  A    between atoms: O_3  and  C_4 
REMARK    3  A    between atoms: C_5  and  C_6 
REMARK    4  A    between atoms: N_7  and  C_9 
REMARK    5  A    between atoms: C_9  and  C_10 
REMARK       I    between atoms: C_10  and  N_11 
REMARK    6  A    between atoms: N_11  and  C_12 
REMARK    7  A    between atoms: C_20  and  C_21 
REMARK    8  A    between atoms: C_21  and  O_22 
REMARK    9  A    between atoms: C_28  and  O_29 
ROOT
HETATM    1  C   UNL     1      40.768 -14.111   2.176  1.00  0.00     0.231 C 
HETATM    2  N   UNL     1      41.223 -12.957   3.086  1.00  0.00    -0.054 N 
HETATM    3  H   UNL     1      41.017 -13.391   4.002  1.00  0.00     0.281 HD
HETATM    4  C   UNL     1      40.371 -11.731   3.009  1.00  0.00     0.239 C 
HETATM    5  C   UNL     1      40.255 -11.249   1.575  1.00  0.00     0.066 C 
HETATM    6  C   UNL     1      39.637 -12.344   0.709  1.00  0.00     0.065 C 
HETATM    7  C   UNL     1      40.533 -13.607   0.726  1.00  0.00     0.055 C 
HETATM    8  C   UNL     1      39.412 -11.855  -0.731  1.00  0.00     0.038 C 
HETATM    9  C   UNL     1      38.788 -12.941  -1.605  1.00  0.00     0.003 C 
HETATM   10  C   UNL     1      39.606 -14.226  -1.569  1.00  0.00     0.001 C 
HETATM   11  C   UNL     1      39.869 -14.705  -0.143  1.00  0.00     0.010 C 
ENDROOT
BRANCH   2  12
HETATM   12  C   UNL     1      42.736 -12.669   3.147  1.00  0.00     0.338 C 
BRANCH  12  13
HETATM   13  C   UNL     1      43.249 -12.630   4.599  1.00  0.00     0.248 C 
HETATM   14  N   UNL     1      43.623 -11.339   4.961  1.00  0.00    -0.319 N 
HETATM   15  H   UNL     1      43.846 -10.666   4.234  1.00  0.00     0.169 HD
HETATM   16  O   UNL     1      43.284 -13.644   5.280  1.00  0.00    -0.271 OA
BRANCH  14  17
HETATM   17  C   UNL     1      43.753 -10.824   6.243  1.00  0.00     0.094 A 
HETATM   18  S   UNL     1      45.201 -11.007   7.111  1.00  0.00    -0.075 SA
HETATM   19  C   UNL     1      44.562 -10.233   8.475  1.00  0.00    -0.008 A 
HETATM   20  C   UNL     1      43.264  -9.802   8.283  1.00  0.00    -0.026 A 
HETATM   21  C   UNL     1      45.359 -10.047   9.731  1.00  0.00     0.047 C 
HETATM   22  C   UNL     1      42.495  -9.107   9.378  1.00  0.00     0.041 C 
HETATM   23  C   UNL     1      42.760 -10.183   6.979  1.00  0.00     0.080 A 
HETATM   24  C   UNL     1      43.396  -8.666  10.541  1.00  0.00     0.005 C 
HETATM   25  C   UNL     1      44.423  -9.741  10.910  1.00  0.00     0.005 C 
BRANCH  23  26
HETATM   26  C   UNL     1      41.377  -9.963   6.535  1.00  0.00     0.296 C 
HETATM   27  O   UNL     1      40.902  -8.855   6.338  1.00  0.00    -0.259 OA
BRANCH  26  28
HETATM   28  O   UNL     1      40.656 -11.129   6.421  1.00  0.00    -0.322 OA
HETATM   29  C   UNL     1      39.262 -11.021   6.749  1.00  0.00     0.213 C 
ENDBRANCH  26  28
ENDBRANCH  23  26
ENDBRANCH  14  17
ENDBRANCH  12  13
ENDBRANCH   2  12
BRANCH   1  30
HETATM   30  C   UNL     1      41.667 -15.329   2.374  1.00  0.00     0.006 A 
HETATM   31  C   UNL     1      41.453 -16.164   3.492  1.00  0.00     0.077 A 
HETATM   32  C   UNL     1      42.299 -17.252   3.732  1.00  0.00     0.037 A 
HETATM   33  C   UNL     1      43.354 -17.525   2.863  1.00  0.00     0.003 A 
HETATM   34  C   UNL     1      43.581 -16.710   1.762  1.00  0.00     0.001 A 
HETATM   35  C   UNL     1      42.751 -15.615   1.523  1.00  0.00     0.012 A 
BRANCH  31  36
HETATM   36  O   UNL     1      40.430 -15.786   4.330  1.00  0.00    -0.351 OA
BRANCH  36  37
HETATM   37  C   UNL     1      40.679 -15.952   5.732  1.00  0.00     0.171 C 
HETATM   38  C   UNL     1      40.280 -14.664   6.429  1.00  0.00     0.034 C 
ENDBRANCH  36  37
ENDBRANCH  31  36
ENDBRANCH   1  30
BRANCH   6  39
HETATM   39  O   UNL     1      38.373 -12.670   1.302  1.00  0.00    -0.389 OA
HETATM   40  H   UNL     1      37.656 -12.229   0.804  1.00  0.00     0.210 HD
ENDBRANCH   6  39
TORSDOF 9
ENDMDL
MODEL 3
REMARK VINA RESULT:      -8.6      2.688      8.767
REMARK  9 active torsions:
REMARK  status: ('A' for Active; 'I' for Inactive)
REMARK    1  A    between atoms: C_2  and  O_3 
REMARK    2  A    between atoms: O_3  and  C_4 
REMARK    3  A    between atoms: C_5  and  C_6 
REMARK    4  A    between atoms: N_7  and  C_9 
REMARK    5  A    between atoms: C_9  and  C_10 
REMARK       I    between atoms: C_10  and  N_11 
REMARK    6  A    between atoms: N_11  and  C_12 
REMARK    7  A    between atoms: C_20  and  C_21 
REMARK    8  A    between atoms: C_21  and  O_22 
REMARK    9  A    between atoms: C_28  and  O_29 
ROOT
HETATM    1  C   UNL     1      42.009  -8.783   9.422  1.00  0.00     0.231 C 
HETATM    2  N   UNL     1      42.918 -10.005   9.200  1.00  0.00    -0.054 N 
HETATM    3  H   UNL     1      42.244 -10.612   8.704  1.00  0.00     0.281 HD
HETATM    4  C   UNL     1      43.291 -10.737  10.449  1.00  0.00     0.239 C 
HETATM    5  C   UNL     1      43.924  -9.794  11.454  1.00  0.00     0.066 C 
HETATM    6  C   UNL     1      42.944  -8.677  11.803  1.00  0.00     0.065 C 
HETATM    7  C   UNL     1      42.586  -7.865  10.534  1.00  0.00     0.055 C 
HETATM    8  C   UNL     1      43.514  -7.757  12.896  1.00  0.00     0.038 C 
HETATM    9  C   UNL     1      42.538  -6.638  13.257  1.00  0.00     0.003 C 
HETATM   10  C   UNL     1      42.110  -5.851  12.025  1.00  0.00     0.001 C 
HETATM   11  C   UNL     1      41.575  -6.754  10.917  1.00  0.00     0.010 C 
ENDROOT
BRANCH   2  12
HETATM   12  C   UNL     1      44.077  -9.842   8.196  1.00  0.00     0.338 C 
BRANCH  12  13
HETATM   13  C   UNL     1      44.406 -11.170   7.489  1.00  0.00     0.248 C 
HETATM   14  N   UNL     1      43.244 -11.866   7.168  1.00  0.00    -0.319 N 
HETATM   15  H   UNL     1      42.388 -11.658   7.672  1.00  0.00     0.169 HD
HETATM   16  O   UNL     1      45.564 -11.494   7.269  1.00  0.00    -0.271 OA
BRANCH  14  17
HETATM   17  C   UNL     1      43.091 -12.864   6.216  1.00  0.00     0.094 A 
HETATM   18  S   UNL     1      42.760 -14.463   6.679  1.00  0.00    -0.075 SA
HETATM   19  C   UNL     1      42.791 -15.008   5.076  1.00  0.00    -0.008 A 
HETATM   20  C   UNL     1      43.022 -13.989   4.173  1.00  0.00    -0.026 A 
HETATM   21  C   UNL     1      42.576 -16.447   4.719  1.00  0.00     0.047 C 
HETATM   22  C   UNL     1      43.112 -14.254   2.692  1.00  0.00     0.041 C 
HETATM   23  C   UNL     1      43.241 -12.720   4.840  1.00  0.00     0.080 A 
HETATM   24  C   UNL     1      42.610 -15.655   2.313  1.00  0.00     0.005 C 
HETATM   25  C   UNL     1      43.094 -16.723   3.299  1.00  0.00     0.005 C 
BRANCH  23  26
HETATM   26  C   UNL     1      43.622 -11.482   4.148  1.00  0.00     0.296 C 
HETATM   27  O   UNL     1      44.710 -11.314   3.618  1.00  0.00    -0.259 OA
BRANCH  26  28
HETATM   28  O   UNL     1      42.650 -10.509   4.210  1.00  0.00    -0.322 OA
HETATM   29  C   UNL     1      41.689 -10.536   3.143  1.00  0.00     0.213 C 
ENDBRANCH  26  28
ENDBRANCH  23  26
ENDBRANCH  14  17
ENDBRANCH  12  13
ENDBRANCH   2  12
BRANCH   1  30
HETATM   30  C   UNL     1      41.642  -8.146   8.086  1.00  0.00     0.006 A 
HETATM   31  C   UNL     1      40.853  -8.877   7.170  1.00  0.00     0.077 A 
HETATM   32  C   UNL     1      40.553  -8.342   5.914  1.00  0.00     0.037 A 
HETATM   33  C   UNL     1      41.020  -7.078   5.559  1.00  0.00     0.003 A 
HETATM   34  C   UNL     1      41.800  -6.348   6.446  1.00  0.00     0.001 A 
HETATM   35  C   UNL     1      42.118  -6.879   7.696  1.00  0.00     0.012 A 
BRANCH  31  36
HETATM   36  O   UNL     1      40.488 -10.139   7.577  1.00  0.00    -0.351 OA
BRANCH  36  37
HETATM   37  C   UNL     1      39.261 -10.639   7.028  1.00  0.00     0.171 C 
HETATM   38  C   UNL     1      39.597 -11.838   6.160  1.00  0.00     0.034 C 
ENDBRANCH  36  37
ENDBRANCH  31  36
ENDBRANCH   1  30
BRANCH   6  39
HETATM   39  O   UNL     1      41.755  -9.313  12.292  1.00  0.00    -0.389 OA
HETATM   40  H   UNL     1      41.595  -9.037  13.216  1.00  0.00     0.210 HD
ENDBRANCH   6  39
TORSDOF 9
ENDMDL
MODEL 4
REMARK VINA RESULT:      -8.4      2.405      7.837
REMARK  9 active torsions:
REMARK  status: ('A' for Active; 'I' for Inactive)
REMARK    1  A    between atoms: C_2  and  O_3 
REMARK    2  A    between atoms: O_3  and  C_4 
REMARK    3  A    between atoms: C_5  and  C_6 
REMARK    4  A    between atoms: N_7  and  C_9 
REMARK    5  A    between atoms: C_9  and  C_10 
REMARK       I    between atoms: C_10  and  N_11 
REMARK    6  A    between atoms: N_11  and  C_12 
REMARK    7  A    between atoms: C_20  and  C_21 
REMARK    8  A    between atoms: C_21  and  O_22 
REMARK    9  A    between atoms: C_28  and  O_29 
ROOT
HETATM    1  C   UNL     1      42.281 -10.837   6.612  1.00  0.00     0.231 C 
HETATM    2  N   UNL     1      42.991 -11.759   5.606  1.00  0.00    -0.054 N 
HETATM    3  H   UNL     1      42.217 -12.421   5.429  1.00  0.00     0.281 HD
HETATM    4  C   UNL     1      44.104 -12.571   6.186  1.00  0.00     0.239 C 
HETATM    5  C   UNL     1      45.117 -11.677   6.877  1.00  0.00     0.066 C 
HETATM    6  C   UNL     1      44.435 -10.891   7.994  1.00  0.00     0.065 C 
HETATM    7  C   UNL     1      43.314  -9.996   7.411  1.00  0.00     0.055 C 
HETATM    8  C   UNL     1      45.451 -10.048   8.782  1.00  0.00     0.038 C 
HETATM    9  C   UNL     1      44.780  -9.261   9.908  1.00  0.00     0.003 C 
HETATM   10  C   UNL     1      43.628  -8.412   9.385  1.00  0.00     0.001 C 
HETATM   11  C   UNL     1      42.629  -9.229   8.570  1.00  0.00     0.010 C 
ENDROOT
BRANCH   2  12
HETATM   12  C   UNL     1      43.300 -11.172   4.215  1.00  0.00     0.338 C 
BRANCH  12  13
HETATM   13  C   UNL     1      42.948 -12.162   3.089  1.00  0.00     0.248 C 
HETATM   14  N   UNL     1      41.677 -11.910   2.582  1.00  0.00    -0.319 N 
HETATM   15  H   UNL     1      41.011 -11.395   3.151  1.00  0.00     0.169 HD
HETATM   16  O   UNL     1      43.741 -13.025   2.741  1.00  0.00    -0.271 OA
BRANCH  14  17
HETATM   17  C   UNL     1      41.164 -12.297   1.352  1.00  0.00     0.094 A 
HETATM   18  S   UNL     1      41.066 -11.194   0.065  1.00  0.00    -0.075 SA
HETATM   19  C   UNL     1      40.332 -12.335  -0.948  1.00  0.00    -0.008 A 
HETATM   20  C   UNL     1      40.179 -13.565  -0.340  1.00  0.00    -0.026 A 
HETATM   21  C   UNL     1      39.918 -12.005  -2.351  1.00  0.00     0.047 C 
HETATM   22  C   UNL     1      39.528 -14.721  -1.056  1.00  0.00     0.041 C 
HETATM   23  C   UNL     1      40.632 -13.544   1.036  1.00  0.00     0.080 A 
HETATM   24  C   UNL     1      39.373 -14.470  -2.563  1.00  0.00     0.005 C 
HETATM   25  C   UNL     1      38.905 -13.041  -2.861  1.00  0.00     0.005 C 
BRANCH  23  26
HETATM   26  C   UNL     1      40.490 -14.671   1.967  1.00  0.00     0.296 C 
HETATM   27  O   UNL     1      39.425 -14.998   2.470  1.00  0.00    -0.259 OA
BRANCH  26  28
HETATM   28  O   UNL     1      41.687 -15.282   2.261  1.00  0.00    -0.322 OA
HETATM   29  C   UNL     1      41.580 -16.536   2.953  1.00  0.00     0.213 C 
ENDBRANCH  26  28
ENDBRANCH  23  26
ENDBRANCH  14  17
ENDBRANCH  12  13
ENDBRANCH   2  12
BRANCH   1  30
HETATM   30  C   UNL     1      41.129 -10.100   5.934  1.00  0.00     0.006 A 
HETATM   31  C   UNL     1      39.872 -10.735   5.837  1.00  0.00     0.077 A 
HETATM   32  C   UNL     1      38.815 -10.110   5.167  1.00  0.00     0.037 A 
HETATM   33  C   UNL     1      38.993  -8.849   4.599  1.00  0.00     0.003 A 
HETATM   34  C   UNL     1      40.225  -8.213   4.682  1.00  0.00     0.001 A 
HETATM   35  C   UNL     1      41.288  -8.836   5.336  1.00  0.00     0.012 A 
BRANCH  31  36
HETATM   36  O   UNL     1      39.803 -12.002   6.369  1.00  0.00    -0.351 OA
BRANCH  36  37
HETATM   37  C   UNL     1      39.681 -13.070   5.420  1.00  0.00     0.171 C 
HETATM   38  C   UNL     1      40.346 -14.297   6.016  1.00  0.00     0.034 C 
ENDBRANCH  36  37
ENDBRANCH  31  36
ENDBRANCH   1  30
BRANCH   6  39
HETATM   39  O   UNL     1      43.840 -11.858   8.871  1.00  0.00    -0.389 OA
HETATM   40  H   UNL     1      44.274 -11.813   9.747  1.00  0.00     0.210 HD
ENDBRANCH   6  39
TORSDOF 9
ENDMDL
MODEL 5
REMARK VINA RESULT:      -8.0      2.520      5.236
REMARK  9 active torsions:
REMARK  status: ('A' for Active; 'I' for Inactive)
REMARK    1  A    between atoms: C_2  and  O_3 
REMARK    2  A    between atoms: O_3  and  C_4 
REMARK    3  A    between atoms: C_5  and  C_6 
REMARK    4  A    between atoms: N_7  and  C_9 
REMARK    5  A    between atoms: C_9  and  C_10 
REMARK       I    between atoms: C_10  and  N_11 
REMARK    6  A    between atoms: N_11  and  C_12 
REMARK    7  A    between atoms: C_20  and  C_21 
REMARK    8  A    between atoms: C_21  and  O_22 
REMARK    9  A    between atoms: C_28  and  O_29 
ROOT
HETATM    1  C   UNL     1      40.327 -13.289   2.664  1.00  0.00     0.231 C 
HETATM    2  N   UNL     1      40.522 -12.325   3.847  1.00  0.00    -0.054 N 
HETATM    3  H   UNL     1      40.374 -12.996   4.619  1.00  0.00     0.281 HD
HETATM    4  C   UNL     1      39.452 -11.290   3.989  1.00  0.00     0.239 C 
HETATM    5  C   UNL     1      39.292 -10.506   2.700  1.00  0.00     0.066 C 
HETATM    6  C   UNL     1      38.924 -11.453   1.561  1.00  0.00     0.065 C 
HETATM    7  C   UNL     1      40.045 -12.501   1.354  1.00  0.00     0.055 C 
HETATM    8  C   UNL     1      38.655 -10.680   0.259  1.00  0.00     0.038 C 
HETATM    9  C   UNL     1      38.279 -11.619  -0.887  1.00  0.00     0.003 C 
HETATM   10  C   UNL     1      39.328 -12.706  -1.085  1.00  0.00     0.001 C 
HETATM   11  C   UNL     1      39.632 -13.459   0.208  1.00  0.00     0.010 C 
ENDROOT
BRANCH   2  12
HETATM   12  C   UNL     1      41.949 -11.793   4.088  1.00  0.00     0.338 C 
BRANCH  12  13
HETATM   13  C   UNL     1      42.296 -11.761   5.588  1.00  0.00     0.248 C 
HETATM   14  N   UNL     1      42.535 -10.459   6.017  1.00  0.00    -0.319 N 
HETATM   15  H   UNL     1      42.788  -9.752   5.334  1.00  0.00     0.169 HD
HETATM   16  O   UNL     1      42.329 -12.790   6.248  1.00  0.00    -0.271 OA
BRANCH  14  17
HETATM   17  C   UNL     1      42.488  -9.974   7.316  1.00  0.00     0.094 A 
HETATM   18  S   UNL     1      41.025  -9.440   7.993  1.00  0.00    -0.075 SA
HETATM   19  C   UNL     1      41.779  -8.985   9.439  1.00  0.00    -0.008 A 
HETATM   20  C   UNL     1      43.133  -9.257   9.441  1.00  0.00    -0.026 A 
HETATM   21  C   UNL     1      41.019  -8.368  10.574  1.00  0.00     0.047 C 
HETATM   22  C   UNL     1      44.004  -8.912  10.622  1.00  0.00     0.041 C 
HETATM   23  C   UNL     1      43.572  -9.806   8.173  1.00  0.00     0.080 A 
HETATM   24  C   UNL     1      43.186  -8.555  11.872  1.00  0.00     0.005 C 
HETATM   25  C   UNL     1      41.987  -7.663  11.537  1.00  0.00     0.005 C 
BRANCH  23  26
HETATM   26  C   UNL     1      44.975 -10.086   7.839  1.00  0.00     0.296 C 
HETATM   27  O   UNL     1      45.855  -9.239   7.867  1.00  0.00    -0.259 OA
BRANCH  26  28
HETATM   28  O   UNL     1      45.183 -11.385   7.434  1.00  0.00    -0.322 OA
HETATM   29  C   UNL     1      45.932 -11.533   6.218  1.00  0.00     0.213 C 
ENDBRANCH  26  28
ENDBRANCH  23  26
ENDBRANCH  14  17
ENDBRANCH  12  13
ENDBRANCH   2  12
BRANCH   1  30
HETATM   30  C   UNL     1      41.436 -14.337   2.644  1.00  0.00     0.006 A 
HETATM   31  C   UNL     1      41.488 -15.299   3.676  1.00  0.00     0.077 A 
HETATM   32  C   UNL     1      42.528 -16.233   3.718  1.00  0.00     0.037 A 
HETATM   33  C   UNL     1      43.516 -16.228   2.734  1.00  0.00     0.003 A 
HETATM   34  C   UNL     1      43.481 -15.285   1.715  1.00  0.00     0.001 A 
HETATM   35  C   UNL     1      42.455 -14.341   1.674  1.00  0.00     0.012 A 
BRANCH  31  36
HETATM   36  O   UNL     1      40.511 -15.192   4.638  1.00  0.00    -0.351 OA
BRANCH  36  37
HETATM   37  C   UNL     1      40.409 -16.296   5.548  1.00  0.00     0.171 C 
HETATM   38  C   UNL     1      41.093 -15.895   6.842  1.00  0.00     0.034 C 
ENDBRANCH  36  37
ENDBRANCH  31  36
ENDBRANCH   1  30
BRANCH   6  39
HETATM   39  O   UNL     1      37.727 -12.133   1.964  1.00  0.00    -0.389 OA
HETATM   40  H   UNL     1      37.903 -13.094   2.020  1.00  0.00     0.210 HD
ENDBRANCH   6  39
TORSDOF 9
ENDMDL
MODEL 6
REMARK VINA RESULT:      -7.9      2.346      9.250
REMARK  9 active torsions:
REMARK  status: ('A' for Active; 'I' for Inactive)
REMARK    1  A    between atoms: C_2  and  O_3 
REMARK    2  A    between atoms: O_3  and  C_4 
REMARK    3  A    between atoms: C_5  and  C_6 
REMARK    4  A    between atoms: N_7  and  C_9 
REMARK    5  A    between atoms: C_9  and  C_10 
REMARK       I    between atoms: C_10  and  N_11 
REMARK    6  A    between atoms: N_11  and  C_12 
REMARK    7  A    between atoms: C_20  and  C_21 
REMARK    8  A    between atoms: C_21  and  O_22 
REMARK    9  A    between atoms: C_28  and  O_29 
ROOT
HETATM    1  C   UNL     1      42.430  -8.037   7.941  1.00  0.00     0.231 C 
HETATM    2  N   UNL     1      41.955  -8.950   6.799  1.00  0.00    -0.054 N 
HETATM    3  H   UNL     1      42.854  -9.416   6.588  1.00  0.00     0.281 HD
HETATM    4  C   UNL     1      41.561  -8.230   5.549  1.00  0.00     0.239 C 
HETATM    5  C   UNL     1      40.508  -7.179   5.846  1.00  0.00     0.066 C 
HETATM    6  C   UNL     1      41.055  -6.171   6.853  1.00  0.00     0.065 C 
HETATM    7  C   UNL     1      41.416  -6.883   8.180  1.00  0.00     0.055 C 
HETATM    8  C   UNL     1      40.051  -5.032   7.103  1.00  0.00     0.038 C 
HETATM    9  C   UNL     1      40.591  -4.014   8.106  1.00  0.00     0.003 C 
HETATM   10  C   UNL     1      41.017  -4.683   9.407  1.00  0.00     0.001 C 
HETATM   11  C   UNL     1      41.987  -5.839   9.173  1.00  0.00     0.010 C 
ENDROOT
BRANCH   2  12
HETATM   12  C   UNL     1      41.016 -10.114   7.177  1.00  0.00     0.338 C 
BRANCH  12  13
HETATM   13  C   UNL     1      40.967 -11.186   6.072  1.00  0.00     0.248 C 
HETATM   14  N   UNL     1      42.151 -11.915   6.031  1.00  0.00    -0.319 N 
HETATM   15  H   UNL     1      42.994 -11.512   6.431  1.00  0.00     0.169 HD
HETATM   16  O   UNL     1      39.974 -11.319   5.370  1.00  0.00    -0.271 OA
BRANCH  14  17
HETATM   17  C   UNL     1      42.353 -13.171   5.478  1.00  0.00     0.094 A 
HETATM   18  S   UNL     1      42.203 -14.573   6.424  1.00  0.00    -0.075 SA
HETATM   19  C   UNL     1      42.637 -15.576   5.132  1.00  0.00    -0.008 A 
HETATM   20  C   UNL     1      42.871 -14.872   3.967  1.00  0.00    -0.026 A 
HETATM   21  C   UNL     1      42.734 -17.065   5.277  1.00  0.00     0.047 C 
HETATM   22  C   UNL     1      43.292 -15.568   2.698  1.00  0.00     0.041 C 
HETATM   23  C   UNL     1      42.745 -13.443   4.170  1.00  0.00     0.080 A 
HETATM   24  C   UNL     1      43.109 -17.091   2.773  1.00  0.00     0.005 C 
HETATM   25  C   UNL     1      43.558 -17.656   4.124  1.00  0.00     0.005 C 
BRANCH  23  26
HETATM   26  C   UNL     1      43.047 -12.436   3.144  1.00  0.00     0.296 C 
HETATM   27  O   UNL     1      44.097 -11.813   3.101  1.00  0.00    -0.259 OA
BRANCH  26  28
HETATM   28  O   UNL     1      42.002 -12.224   2.274  1.00  0.00    -0.322 OA
HETATM   29  C   UNL     1      41.821 -10.862   1.857  1.00  0.00     0.213 C 
ENDBRANCH  26  28
ENDBRANCH  23  26
ENDBRANCH  14  17
ENDBRANCH  12  13
ENDBRANCH   2  12
BRANCH   1  30
HETATM   30  C   UNL     1      42.862  -8.871   9.143  1.00  0.00     0.006 A 
HETATM   31  C   UNL     1      44.039  -9.645   9.054  1.00  0.00     0.077 A 
HETATM   32  C   UNL     1      44.426 -10.467  10.117  1.00  0.00     0.037 A 
HETATM   33  C   UNL     1      43.657 -10.520  11.279  1.00  0.00     0.003 A 
HETATM   34  C   UNL     1      42.494  -9.769  11.381  1.00  0.00     0.001 A 
HETATM   35  C   UNL     1      42.093  -8.957  10.319  1.00  0.00     0.012 A 
BRANCH  31  36
HETATM   36  O   UNL     1      44.703  -9.580   7.851  1.00  0.00    -0.351 OA
BRANCH  36  37
HETATM   37  C   UNL     1      45.802 -10.488   7.696  1.00  0.00     0.171 C 
HETATM   38  C   UNL     1      45.633 -11.199   6.366  1.00  0.00     0.034 C 
ENDBRANCH  36  37
ENDBRANCH  31  36
ENDBRANCH   1  30
BRANCH   6  39
HETATM   39  O   UNL     1      42.254  -5.629   6.283  1.00  0.00    -0.389 OA
HETATM   40  H   UNL     1      42.841  -5.313   6.998  1.00  0.00     0.210 HD
ENDBRANCH   6  39
TORSDOF 9
ENDMDL
MODEL 7
REMARK VINA RESULT:      -7.7     16.944     19.191
REMARK  9 active torsions:
REMARK  status: ('A' for Active; 'I' for Inactive)
REMARK    1  A    between atoms: C_2  and  O_3 
REMARK    2  A    between atoms: O_3  and  C_4 
REMARK    3  A    between atoms: C_5  and  C_6 
REMARK    4  A    between atoms: N_7  and  C_9 
REMARK    5  A    between atoms: C_9  and  C_10 
REMARK       I    between atoms: C_10  and  N_11 
REMARK    6  A    between atoms: N_11  and  C_12 
REMARK    7  A    between atoms: C_20  and  C_21 
REMARK    8  A    between atoms: C_21  and  O_22 
REMARK    9  A    between atoms: C_28  and  O_29 
ROOT
HETATM    1  C   UNL     1      44.281 -30.174   0.062  1.00  0.00     0.231 C 
HETATM    2  N   UNL     1      45.386 -30.202   1.132  1.00  0.00    -0.054 N 
HETATM    3  H   UNL     1      44.788 -30.149   1.974  1.00  0.00     0.281 HD
HETATM    4  C   UNL     1      46.251 -28.983   1.165  1.00  0.00     0.239 C 
HETATM    5  C   UNL     1      46.857 -28.719  -0.201  1.00  0.00     0.066 C 
HETATM    6  C   UNL     1      45.746 -28.517  -1.229  1.00  0.00     0.065 C 
HETATM    7  C   UNL     1      44.869 -29.790  -1.324  1.00  0.00     0.055 C 
HETATM    8  C   UNL     1      46.322 -28.148  -2.606  1.00  0.00     0.038 C 
HETATM    9  C   UNL     1      45.217 -27.938  -3.641  1.00  0.00     0.003 C 
HETATM   10  C   UNL     1      44.292 -29.145  -3.723  1.00  0.00     0.001 C 
HETATM   11  C   UNL     1      43.740 -29.546  -2.358  1.00  0.00     0.010 C 
ENDROOT
BRANCH   2  12
HETATM   12  C   UNL     1      46.157 -31.525   1.308  1.00  0.00     0.338 C 
BRANCH  12  13
HETATM   13  C   UNL     1      46.710 -31.675   2.738  1.00  0.00     0.248 C 
HETATM   14  N   UNL     1      47.883 -32.424   2.743  1.00  0.00    -0.319 N 
HETATM   15  H   UNL     1      48.076 -33.046   1.964  1.00  0.00     0.169 HD
HETATM   16  O   UNL     1      46.137 -31.163   3.690  1.00  0.00    -0.271 OA
BRANCH  14  17
HETATM   17  C   UNL     1      48.865 -32.452   3.723  1.00  0.00     0.094 A 
HETATM   18  S   UNL     1      48.972 -33.750   4.812  1.00  0.00    -0.075 SA
HETATM   19  C   UNL     1      50.265 -33.040   5.641  1.00  0.00    -0.008 A 
HETATM   20  C   UNL     1      50.651 -31.833   5.091  1.00  0.00    -0.026 A 
HETATM   21  C   UNL     1      50.901 -33.690   6.832  1.00  0.00     0.047 C 
HETATM   22  C   UNL     1      51.771 -31.018   5.687  1.00  0.00     0.041 C 
HETATM   23  C   UNL     1      49.802 -31.455   3.979  1.00  0.00     0.080 A 
HETATM   24  C   UNL     1      52.596 -31.811   6.710  1.00  0.00     0.005 C 
HETATM   25  C   UNL     1      51.709 -32.656   7.631  1.00  0.00     0.005 C 
BRANCH  23  26
HETATM   26  C   UNL     1      49.897 -30.172   3.270  1.00  0.00     0.296 C 
HETATM   27  O   UNL     1      49.228 -29.191   3.560  1.00  0.00    -0.259 OA
BRANCH  26  28
HETATM   28  O   UNL     1      50.772 -30.206   2.208  1.00  0.00    -0.322 OA
HETATM   29  C   UNL     1      50.158 -30.262   0.911  1.00  0.00     0.213 C 
ENDBRANCH  26  28
ENDBRANCH  23  26
ENDBRANCH  14  17
ENDBRANCH  12  13
ENDBRANCH   2  12
BRANCH   1  30
HETATM   30  C   UNL     1      43.423 -31.432   0.153  1.00  0.00     0.006 A 
HETATM   31  C   UNL     1      42.474 -31.541   1.192  1.00  0.00     0.077 A 
HETATM   32  C   UNL     1      41.716 -32.708   1.336  1.00  0.00     0.037 A 
HETATM   33  C   UNL     1      41.885 -33.769   0.448  1.00  0.00     0.003 A 
HETATM   34  C   UNL     1      42.819 -33.679  -0.577  1.00  0.00     0.001 A 
HETATM   35  C   UNL     1      43.589 -32.524  -0.720  1.00  0.00     0.012 A 
BRANCH  31  36
HETATM   36  O   UNL     1      42.416 -30.475   2.059  1.00  0.00    -0.351 OA
BRANCH  36  37
HETATM   37  C   UNL     1      42.614 -30.788   3.445  1.00  0.00     0.171 C 
HETATM   38  C   UNL     1      41.360 -30.375   4.195  1.00  0.00     0.034 C 
ENDBRANCH  36  37
ENDBRANCH  31  36
ENDBRANCH   1  30
BRANCH   6  39
HETATM   39  O   UNL     1      44.935 -27.436  -0.749  1.00  0.00    -0.389 OA
HETATM   40  H   UNL     1      44.436 -27.728   0.040  1.00  0.00     0.210 HD
ENDBRANCH   6  39
TORSDOF 9
ENDMDL
MODEL 8
REMARK VINA RESULT:      -7.5      4.076      7.900
REMARK  9 active torsions:
REMARK  status: ('A' for Active; 'I' for Inactive)
REMARK    1  A    between atoms: C_2  and  O_3 
REMARK    2  A    between atoms: O_3  and  C_4 
REMARK    3  A    between atoms: C_5  and  C_6 
REMARK    4  A    between atoms: N_7  and  C_9 
REMARK    5  A    between atoms: C_9  and  C_10 
REMARK       I    between atoms: C_10  and  N_11 
REMARK    6  A    between atoms: N_11  and  C_12 
REMARK    7  A    between atoms: C_20  and  C_21 
REMARK    8  A    between atoms: C_21  and  O_22 
REMARK    9  A    between atoms: C_28  and  O_29 
ROOT
HETATM    1  C   UNL     1      39.071 -11.416  -0.845  1.00  0.00     0.231 C 
HETATM    2  N   UNL     1      40.175 -11.781   0.163  1.00  0.00    -0.054 N 
HETATM    3  H   UNL     1      40.654 -10.865   0.207  1.00  0.00     0.281 HD
HETATM    4  C   UNL     1      41.190 -12.752  -0.350  1.00  0.00     0.239 C 
HETATM    5  C   UNL     1      40.515 -14.011  -0.861  1.00  0.00     0.066 C 
HETATM    6  C   UNL     1      39.546 -13.658  -1.986  1.00  0.00     0.065 C 
HETATM    7  C   UNL     1      38.449 -12.697  -1.465  1.00  0.00     0.055 C 
HETATM    8  C   UNL     1      38.917 -14.922  -2.597  1.00  0.00     0.038 C 
HETATM    9  C   UNL     1      37.949 -14.580  -3.729  1.00  0.00     0.003 C 
HETATM   10  C   UNL     1      36.887 -13.587  -3.274  1.00  0.00     0.001 C 
HETATM   11  C   UNL     1      37.495 -12.342  -2.633  1.00  0.00     0.010 C 
ENDROOT
BRANCH   2  12
HETATM   12  C   UNL     1      39.737 -12.039   1.618  1.00  0.00     0.338 C 
BRANCH  12  13
HETATM   13  C   UNL     1      40.852 -12.721   2.434  1.00  0.00     0.248 C 
HETATM   14  N   UNL     1      40.554 -14.061   2.661  1.00  0.00    -0.319 N 
HETATM   15  H   UNL     1      39.589 -14.372   2.598  1.00  0.00     0.169 HD
HETATM   16  O   UNL     1      41.841 -12.097   2.791  1.00  0.00    -0.271 OA
BRANCH  14  17
HETATM   17  C   UNL     1      41.437 -15.080   2.992  1.00  0.00     0.094 A 
HETATM   18  S   UNL     1      41.809 -16.305   1.877  1.00  0.00    -0.075 SA
HETATM   19  C   UNL     1      42.805 -17.108   2.986  1.00  0.00    -0.008 A 
HETATM   20  C   UNL     1      42.892 -16.449   4.197  1.00  0.00    -0.026 A 
HETATM   21  C   UNL     1      43.505 -18.389   2.646  1.00  0.00     0.047 C 
HETATM   22  C   UNL     1      43.710 -17.001   5.337  1.00  0.00     0.041 C 
HETATM   23  C   UNL     1      42.054 -15.267   4.226  1.00  0.00     0.080 A 
HETATM   24  C   UNL     1      44.642 -18.139   4.896  1.00  0.00     0.005 C 
HETATM   25  C   UNL     1      43.949 -19.106   3.930  1.00  0.00     0.005 C 
BRANCH  23  26
HETATM   26  C   UNL     1      41.854 -14.429   5.415  1.00  0.00     0.296 C 
HETATM   27  O   UNL     1      42.767 -13.873   6.008  1.00  0.00    -0.259 OA
BRANCH  26  28
HETATM   28  O   UNL     1      40.542 -14.383   5.828  1.00  0.00    -0.322 OA
HETATM   29  C   UNL     1      40.008 -13.064   6.021  1.00  0.00     0.213 C 
ENDBRANCH  26  28
ENDBRANCH  23  26
ENDBRANCH  14  17
ENDBRANCH  12  13
ENDBRANCH   2  12
BRANCH   1  30
HETATM   30  C   UNL     1      38.127 -10.379  -0.244  1.00  0.00     0.006 A 
HETATM   31  C   UNL     1      38.594  -9.063  -0.040  1.00  0.00     0.077 A 
HETATM   32  C   UNL     1      37.771  -8.107   0.565  1.00  0.00     0.037 A 
HETATM   33  C   UNL     1      36.477  -8.445   0.961  1.00  0.00     0.003 A 
HETATM   34  C   UNL     1      36.004  -9.737   0.771  1.00  0.00     0.001 A 
HETATM   35  C   UNL     1      36.824 -10.700   0.182  1.00  0.00     0.012 A 
BRANCH  31  36
HETATM   36  O   UNL     1      39.901  -8.833  -0.402  1.00  0.00    -0.351 OA
BRANCH  36  37
HETATM   37  C   UNL     1      40.090  -8.098  -1.618  1.00  0.00     0.171 C 
HETATM   38  C   UNL     1      41.344  -8.628  -2.289  1.00  0.00     0.034 C 
ENDBRANCH  36  37
ENDBRANCH  31  36
ENDBRANCH   1  30
BRANCH   6  39
HETATM   39  O   UNL     1      40.312 -12.978  -2.990  1.00  0.00    -0.389 OA
HETATM   40  H   UNL     1      39.818 -12.193  -3.300  1.00  0.00     0.210 HD
ENDBRANCH   6  39
TORSDOF 9
ENDMDL
MODEL 9
REMARK VINA RESULT:      -7.4      3.139      8.336
REMARK  9 active torsions:
REMARK  status: ('A' for Active; 'I' for Inactive)
REMARK    1  A    between atoms: C_2  and  O_3 
REMARK    2  A    between atoms: O_3  and  C_4 
REMARK    3  A    between atoms: C_5  and  C_6 
REMARK    4  A    between atoms: N_7  and  C_9 
REMARK    5  A    between atoms: C_9  and  C_10 
REMARK       I    between atoms: C_10  and  N_11 
REMARK    6  A    between atoms: N_11  and  C_12 
REMARK    7  A    between atoms: C_20  and  C_21 
REMARK    8  A    between atoms: C_21  and  O_22 
REMARK    9  A    between atoms: C_28  and  O_29 
ROOT
HETATM    1  C   UNL     1      41.992  -9.832   7.081  1.00  0.00     0.231 C 
HETATM    2  N   UNL     1      41.835 -10.627   5.773  1.00  0.00    -0.054 N 
HETATM    3  H   UNL     1      40.843 -10.899   5.875  1.00  0.00     0.281 HD
HETATM    4  C   UNL     1      42.611 -11.904   5.725  1.00  0.00     0.239 C 
HETATM    5  C   UNL     1      44.080 -11.650   6.006  1.00  0.00     0.066 C 
HETATM    6  C   UNL     1      44.240 -11.019   7.387  1.00  0.00     0.065 C 
HETATM    7  C   UNL     1      43.493  -9.664   7.445  1.00  0.00     0.055 C 
HETATM    8  C   UNL     1      45.724 -10.839   7.749  1.00  0.00     0.038 C 
HETATM    9  C   UNL     1      45.895 -10.213   9.132  1.00  0.00     0.003 C 
HETATM   10  C   UNL     1      45.124  -8.905   9.253  1.00  0.00     0.001 C 
HETATM   11  C   UNL     1      43.656  -9.060   8.863  1.00  0.00     0.010 C 
ENDROOT
BRANCH   2  12
HETATM   12  C   UNL     1      41.865  -9.823   4.458  1.00  0.00     0.338 C 
BRANCH  12  13
HETATM   13  C   UNL     1      41.865 -10.748   3.227  1.00  0.00     0.248 C 
HETATM   14  N   UNL     1      40.580 -11.203   2.944  1.00  0.00    -0.319 N 
HETATM   15  H   UNL     1      39.879 -11.192   3.679  1.00  0.00     0.169 HD
HETATM   16  O   UNL     1      42.901 -10.995   2.626  1.00  0.00    -0.271 OA
BRANCH  14  17
HETATM   17  C   UNL     1      40.107 -11.709   1.742  1.00  0.00     0.094 A 
HETATM   18  S   UNL     1      39.016 -10.819   0.793  1.00  0.00    -0.075 SA
HETATM   19  C   UNL     1      38.896 -12.056  -0.355  1.00  0.00    -0.008 A 
HETATM   20  C   UNL     1      39.697 -13.140  -0.054  1.00  0.00    -0.026 A 
HETATM   21  C   UNL     1      38.012 -11.942  -1.560  1.00  0.00     0.047 C 
HETATM   22  C   UNL     1      39.728 -14.365  -0.933  1.00  0.00     0.041 C 
HETATM   23  C   UNL     1      40.389 -12.963   1.207  1.00  0.00     0.080 A 
HETATM   24  C   UNL     1      39.057 -14.130  -2.294  1.00  0.00     0.005 C 
HETATM   25  C   UNL     1      37.755 -13.332  -2.162  1.00  0.00     0.005 C 
BRANCH  23  26
HETATM   26  C   UNL     1      41.221 -13.993   1.842  1.00  0.00     0.296 C 
HETATM   27  O   UNL     1      42.321 -14.322   1.423  1.00  0.00    -0.259 OA
BRANCH  26  28
HETATM   28  O   UNL     1      40.609 -14.592   2.919  1.00  0.00    -0.322 OA
HETATM   29  C   UNL     1      39.864 -15.782   2.615  1.00  0.00     0.213 C 
ENDBRANCH  26  28
ENDBRANCH  23  26
ENDBRANCH  14  17
ENDBRANCH  12  13
ENDBRANCH   2  12
BRANCH   1  30
HETATM   30  C   UNL     1      41.118  -8.582   7.050  1.00  0.00     0.006 A 
HETATM   31  C   UNL     1      39.807  -8.649   7.572  1.00  0.00     0.077 A 
HETATM   32  C   UNL     1      38.962  -7.536   7.501  1.00  0.00     0.037 A 
HETATM   33  C   UNL     1      39.412  -6.349   6.925  1.00  0.00     0.003 A 
HETATM   34  C   UNL     1      40.696  -6.269   6.403  1.00  0.00     0.001 A 
HETATM   35  C   UNL     1      41.541  -7.378   6.456  1.00  0.00     0.012 A 
BRANCH  31  36
HETATM   36  O   UNL     1      39.425  -9.875   8.065  1.00  0.00    -0.351 OA
BRANCH  36  37
HETATM   37  C   UNL     1      38.952  -9.882   9.419  1.00  0.00     0.171 C 
HETATM   38  C   UNL     1      40.112  -9.490  10.316  1.00  0.00     0.034 C 
ENDBRANCH  36  37
ENDBRANCH  31  36
ENDBRANCH   1  30
BRANCH   6  39
HETATM   39  O   UNL     1      43.630 -11.919   8.322  1.00  0.00    -0.389 OA
HETATM   40  H   UNL     1      43.924 -11.696   9.228  1.00  0.00     0.210 HD
ENDBRANCH   6  39
TORSDOF 9
ENDMDL
MODEL 10
REMARK VINA RESULT:      -7.4      3.856      7.181
REMARK  9 active torsions:
REMARK  status: ('A' for Active; 'I' for Inactive)
REMARK    1  A    between atoms: C_2  and  O_3 
REMARK    2  A    between atoms: O_3  and  C_4 
REMARK    3  A    between atoms: C_5  and  C_6 
REMARK    4  A    between atoms: N_7  and  C_9 
REMARK    5  A    between atoms: C_9  and  C_10 
REMARK       I    between atoms: C_10  and  N_11 
REMARK    6  A    between atoms: N_11  and  C_12 
REMARK    7  A    between atoms: C_20  and  C_21 
REMARK    8  A    between atoms: C_21  and  O_22 
REMARK    9  A    between atoms: C_28  and  O_29 
ROOT
HETATM    1  C   UNL     1      41.903 -13.713   4.550  1.00  0.00     0.231 C 
HETATM    2  N   UNL     1      41.311 -13.108   3.265  1.00  0.00    -0.054 N 
HETATM    3  H   UNL     1      40.520 -12.592   3.686  1.00  0.00     0.281 HD
HETATM    4  C   UNL     1      40.703 -14.105   2.331  1.00  0.00     0.239 C 
HETATM    5  C   UNL     1      41.703 -15.191   1.982  1.00  0.00     0.066 C 
HETATM    6  C   UNL     1      42.154 -15.907   3.253  1.00  0.00     0.065 C 
HETATM    7  C   UNL     1      42.841 -14.906   4.214  1.00  0.00     0.055 C 
HETATM    8  C   UNL     1      43.092 -17.081   2.929  1.00  0.00     0.038 C 
HETATM    9  C   UNL     1      43.545 -17.808   4.195  1.00  0.00     0.003 C 
HETATM   10  C   UNL     1      44.172 -16.847   5.196  1.00  0.00     0.001 C 
HETATM   11  C   UNL     1      43.267 -15.656   5.501  1.00  0.00     0.010 C 
ENDROOT
BRANCH   2  12
HETATM   12  C   UNL     1      42.137 -12.011   2.563  1.00  0.00     0.338 C 
BRANCH  12  13
HETATM   13  C   UNL     1      41.233 -11.009   1.821  1.00  0.00     0.248 C 
HETATM   14  N   UNL     1      41.743 -10.717   0.559  1.00  0.00    -0.319 N 
HETATM   15  H   UNL     1      42.729 -10.877   0.375  1.00  0.00     0.169 HD
HETATM   16  O   UNL     1      40.213 -10.578   2.340  1.00  0.00    -0.271 OA
BRANCH  14  17
HETATM   17  C   UNL     1      41.059 -10.197  -0.530  1.00  0.00     0.094 A 
HETATM   18  S   UNL     1      41.433  -8.656  -1.137  1.00  0.00    -0.075 SA
HETATM   19  C   UNL     1      40.212  -8.743  -2.306  1.00  0.00    -0.008 A 
HETATM   20  C   UNL     1      39.529  -9.943  -2.274  1.00  0.00    -0.026 A 
HETATM   21  C   UNL     1      39.942  -7.620  -3.262  1.00  0.00     0.047 C 
HETATM   22  C   UNL     1      38.386 -10.225  -3.215  1.00  0.00     0.041 C 
HETATM   23  C   UNL     1      39.996 -10.796  -1.199  1.00  0.00     0.080 A 
HETATM   24  C   UNL     1      38.305  -9.208  -4.363  1.00  0.00     0.005 C 
HETATM   25  C   UNL     1      38.544  -7.774  -3.878  1.00  0.00     0.005 C 
BRANCH  23  26
HETATM   26  C   UNL     1      39.384 -12.084  -0.846  1.00  0.00     0.296 C 
HETATM   27  O   UNL     1      38.268 -12.188  -0.359  1.00  0.00    -0.259 OA
BRANCH  26  28
HETATM   28  O   UNL     1      40.219 -13.156  -1.064  1.00  0.00    -0.322 OA
HETATM   29  C   UNL     1      39.562 -14.425  -1.204  1.00  0.00     0.213 C 
ENDBRANCH  26  28
ENDBRANCH  23  26
ENDBRANCH  14  17
ENDBRANCH  12  13
ENDBRANCH   2  12
BRANCH   1  30
HETATM   30  C   UNL     1      42.443 -12.610   5.456  1.00  0.00     0.006 A 
HETATM   31  C   UNL     1      41.543 -11.665   5.995  1.00  0.00     0.077 A 
HETATM   32  C   UNL     1      42.017 -10.607   6.778  1.00  0.00     0.037 A 
HETATM   33  C   UNL     1      43.381 -10.485   7.042  1.00  0.00     0.003 A 
HETATM   34  C   UNL     1      44.278 -11.404   6.515  1.00  0.00     0.001 A 
HETATM   35  C   UNL     1      43.816 -12.454   5.720  1.00  0.00     0.012 A 
BRANCH  31  36
HETATM   36  O   UNL     1      40.226 -11.824   5.634  1.00  0.00    -0.351 OA
BRANCH  36  37
HETATM   37  C   UNL     1      39.270 -11.119   6.437  1.00  0.00     0.171 C 
HETATM   38  C   UNL     1      38.514 -10.166   5.528  1.00  0.00     0.034 C 
ENDBRANCH  36  37
ENDBRANCH  31  36
ENDBRANCH   1  30
BRANCH   6  39
HETATM   39  O   UNL     1      40.967 -16.408   3.885  1.00  0.00    -0.389 OA
HETATM   40  H   UNL     1      40.604 -15.725   4.483  1.00  0.00     0.210 HD
ENDBRANCH   6  39
TORSDOF 9
ENDMDL
