MODEL 1
REMARK VINA RESULT:      -8.2      0.000      0.000
REMARK  8 active torsions:
REMARK  status: ('A' for Active; 'I' for Inactive)
REMARK    1  A    between atoms: N_4  and  C_5 
REMARK    2  A    between atoms: C_5  and  C_6 
REMARK    3  A    between atoms: C_6  and  C_7 
REMARK    4  A    between atoms: C_7  and  N_8 
REMARK       I    between atoms: N_8  and  C_9 
REMARK       I    between atoms: C_9  and  N_10 
REMARK    5  A    between atoms: N_10  and  N_11 
REMARK       I    between atoms: N_11  and  C_12 
REMARK    6  A    between atoms: C_12  and  C_13 
REMARK    7  A    between atoms: C_13  and  O_14 
REMARK    8  A    between atoms: O_14  and  C_15 
ROOT
HETATM    1  N   UNL     1      43.451 -13.024   7.070  1.00  0.00    -0.341 N 
HETATM    2  C   UNL     1      43.843 -11.733   6.809  1.00  0.00     0.334 C 
HETATM    3  N   UNL     1      44.374 -11.130   7.933  1.00  0.00    -0.249 N 
HETATM    4  O   UNL     1      43.777 -11.204   5.708  1.00  0.00    -0.246 OA
HETATM    5  H   UNL     1      43.158 -13.240   8.012  1.00  0.00     0.164 HD
HETATM    6  H   UNL     1      44.713 -11.719   8.685  1.00  0.00     0.192 HD
ENDROOT
BRANCH   1   7
HETATM    7  C   UNL     1      43.071 -13.949   6.021  1.00  0.00     0.130 C 
BRANCH   7   8
HETATM    8  C   UNL     1      43.288 -15.432   6.369  1.00  0.00     0.019 C 
HETATM    9  C   UNL     1      42.994 -15.731   7.841  1.00  0.00     0.013 C 
BRANCH   8  10
HETATM   10  C   UNL     1      42.382 -16.316   5.489  1.00  0.00     0.156 C 
BRANCH  10  11
HETATM   11  N   UNL     1      43.101 -17.399   4.836  1.00  0.00    -0.274 N 
HETATM   12  N   UNL     1      43.432 -18.474   5.577  1.00  0.00    -0.177 NA
HETATM   13  C   UNL     1      44.022 -19.305   4.713  1.00  0.00     0.053 A 
HETATM   14  C   UNL     1      44.496 -20.638   5.155  1.00  0.00     0.072 C 
HETATM   15  C   UNL     1      44.089 -18.743   3.420  1.00  0.00     0.055 A 
HETATM   16  C   UNL     1      43.485 -17.505   3.524  1.00  0.00     0.028 A 
HETATM   17  C   UNL     1      43.244 -16.473   2.487  1.00  0.00     0.070 C 
ENDBRANCH  10  11
ENDBRANCH   8  10
ENDBRANCH   7   8
ENDBRANCH   1   7
BRANCH   3  18
HETATM   18  N   UNL     1      44.924  -9.849   7.840  1.00  0.00    -0.264 N 
HETATM   19  C   UNL     1      44.502  -8.750   8.553  1.00  0.00     0.260 C 
HETATM   20  O   UNL     1      45.131  -7.693   8.441  1.00  0.00    -0.269 OA
HETATM   21  H   UNL     1      45.835  -9.765   7.399  1.00  0.00     0.190 HD
BRANCH  19  22
HETATM   22  C   UNL     1      43.259  -8.853   9.434  1.00  0.00     0.280 C 
BRANCH  22  23
HETATM   23  O   UNL     1      43.550  -9.748  10.505  1.00  0.00    -0.342 OA
BRANCH  23  24
HETATM   24  C   UNL     1      43.018  -9.369  11.703  1.00  0.00     0.069 A 
HETATM   25  C   UNL     1      43.585  -8.246  12.307  1.00  0.00     0.038 A 
HETATM   26  C   UNL     1      43.094  -7.782  13.527  1.00  0.00     0.022 A 
HETATM   27  C   UNL     1      42.018  -8.434  14.126  1.00  0.00     0.011 A 
HETATM   28 BR   UNL     1      41.355  -7.815  15.784  1.00  0.00    -0.051 Br
HETATM   29  C   UNL     1      41.426  -9.537  13.510  1.00  0.00     0.022 A 
HETATM   30  C   UNL     1      41.925 -10.004  12.291  1.00  0.00     0.038 A 
ENDBRANCH  23  24
ENDBRANCH  22  23
ENDBRANCH  19  22
ENDBRANCH   3  18
TORSDOF 8
ENDMDL
MODEL 2
REMARK VINA RESULT:      -8.1      1.659      2.239
REMARK  8 active torsions:
REMARK  status: ('A' for Active; 'I' for Inactive)
REMARK    1  A    between atoms: N_4  and  C_5 
REMARK    2  A    between atoms: C_5  and  C_6 
REMARK    3  A    between atoms: C_6  and  C_7 
REMARK    4  A    between atoms: C_7  and  N_8 
REMARK       I    between atoms: N_8  and  C_9 
REMARK       I    between atoms: C_9  and  N_10 
REMARK    5  A    between atoms: N_10  and  N_11 
REMARK       I    between atoms: N_11  and  C_12 
REMARK    6  A    between atoms: C_12  and  C_13 
REMARK    7  A    between atoms: C_13  and  O_14 
REMARK    8  A    between atoms: O_14  and  C_15 
ROOT
HETATM    1  N   UNL     1      42.963 -13.346   5.552  1.00  0.00    -0.341 N 
HETATM    2  C   UNL     1      43.823 -12.275   5.598  1.00  0.00     0.334 C 
HETATM    3  N   UNL     1      44.684 -12.366   6.675  1.00  0.00    -0.249 N 
HETATM    4  O   UNL     1      43.854 -11.381   4.763  1.00  0.00    -0.246 OA
HETATM    5  H   UNL     1      42.719 -13.786   6.427  1.00  0.00     0.164 HD
HETATM    6  H   UNL     1      44.833 -13.274   7.100  1.00  0.00     0.192 HD
ENDROOT
BRANCH   1   7
HETATM    7  C   UNL     1      42.112 -13.612   4.409  1.00  0.00     0.130 C 
BRANCH   7   8
HETATM    8  C   UNL     1      41.954 -15.103   4.064  1.00  0.00     0.019 C 
HETATM    9  C   UNL     1      40.666 -15.384   3.288  1.00  0.00     0.013 C 
BRANCH   8  10
HETATM   10  C   UNL     1      43.157 -15.578   3.225  1.00  0.00     0.156 C 
BRANCH  10  11
HETATM   11  N   UNL     1      43.467 -16.986   3.418  1.00  0.00    -0.274 N 
HETATM   12  N   UNL     1      43.183 -17.839   2.415  1.00  0.00    -0.177 NA
HETATM   13  C   UNL     1      43.618 -19.024   2.852  1.00  0.00     0.053 A 
HETATM   14  C   UNL     1      43.517 -20.227   1.992  1.00  0.00     0.072 C 
HETATM   15  C   UNL     1      44.159 -18.928   4.152  1.00  0.00     0.055 A 
HETATM   16  C   UNL     1      44.050 -17.596   4.500  1.00  0.00     0.028 A 
HETATM   17  C   UNL     1      44.470 -16.897   5.738  1.00  0.00     0.070 C 
ENDBRANCH  10  11
ENDBRANCH   8  10
ENDBRANCH   7   8
ENDBRANCH   1   7
BRANCH   3  18
HETATM   18  N   UNL     1      45.702 -11.422   6.832  1.00  0.00    -0.264 N 
HETATM   19  C   UNL     1      45.642 -10.319   7.654  1.00  0.00     0.260 C 
HETATM   20  O   UNL     1      46.646  -9.609   7.768  1.00  0.00    -0.269 OA
HETATM   21  H   UNL     1      46.629 -11.679   6.506  1.00  0.00     0.190 HD
BRANCH  19  22
HETATM   22  C   UNL     1      44.339  -9.985   8.375  1.00  0.00     0.280 C 
BRANCH  22  23
HETATM   23  O   UNL     1      44.227 -10.846   9.507  1.00  0.00    -0.342 OA
BRANCH  23  24
HETATM   24  C   UNL     1      43.787 -10.221  10.637  1.00  0.00     0.069 A 
HETATM   25  C   UNL     1      43.769  -8.825  10.607  1.00  0.00     0.038 A 
HETATM   26  C   UNL     1      43.321  -8.106  11.715  1.00  0.00     0.022 A 
HETATM   27  C   UNL     1      42.870  -8.791  12.841  1.00  0.00     0.011 A 
HETATM   28 BR   UNL     1      42.272  -7.821  14.349  1.00  0.00    -0.051 Br
HETATM   29  C   UNL     1      42.854 -10.186  12.863  1.00  0.00     0.022 A 
HETATM   30  C   UNL     1      43.310 -10.905  11.755  1.00  0.00     0.038 A 
ENDBRANCH  23  24
ENDBRANCH  22  23
ENDBRANCH  19  22
ENDBRANCH   3  18
TORSDOF 8
ENDMDL
MODEL 3
REMARK VINA RESULT:      -7.9      6.021      9.180
REMARK  8 active torsions:
REMARK  status: ('A' for Active; 'I' for Inactive)
REMARK    1  A    between atoms: N_4  and  C_5 
REMARK    2  A    between atoms: C_5  and  C_6 
REMARK    3  A    between atoms: C_6  and  C_7 
REMARK    4  A    between atoms: C_7  and  N_8 
REMARK       I    between atoms: N_8  and  C_9 
REMARK       I    between atoms: C_9  and  N_10 
REMARK    5  A    between atoms: N_10  and  N_11 
REMARK       I    between atoms: N_11  and  C_12 
REMARK    6  A    between atoms: C_12  and  C_13 
REMARK    7  A    between atoms: C_13  and  O_14 
REMARK    8  A    between atoms: O_14  and  C_15 
ROOT
HETATM    1  N   UNL     1      42.036 -11.917   4.901  1.00  0.00    -0.341 N 
HETATM    2  C   UNL     1      42.865 -12.576   5.776  1.00  0.00     0.334 C 
HETATM    3  N   UNL     1      42.143 -13.270   6.729  1.00  0.00    -0.249 N 
HETATM    4  O   UNL     1      44.085 -12.588   5.690  1.00  0.00    -0.246 OA
HETATM    5  H   UNL     1      41.135 -11.619   5.247  1.00  0.00     0.164 HD
HETATM    6  H   UNL     1      41.175 -13.497   6.533  1.00  0.00     0.192 HD
ENDROOT
BRANCH   1   7
HETATM    7  C   UNL     1      42.522 -11.303   3.681  1.00  0.00     0.130 C 
BRANCH   7   8
HETATM    8  C   UNL     1      42.384 -12.180   2.425  1.00  0.00     0.019 C 
HETATM    9  C   UNL     1      43.259 -13.434   2.496  1.00  0.00     0.013 C 
BRANCH   8  10
HETATM   10  C   UNL     1      40.914 -12.605   2.241  1.00  0.00     0.156 C 
BRANCH  10  11
HETATM   11  N   UNL     1      40.619 -13.070   0.893  1.00  0.00    -0.274 N 
HETATM   12  N   UNL     1      40.824 -12.216  -0.128  1.00  0.00    -0.177 NA
HETATM   13  C   UNL     1      40.524 -12.925  -1.220  1.00  0.00     0.053 A 
HETATM   14  C   UNL     1      40.669 -12.327  -2.568  1.00  0.00     0.072 C 
HETATM   15  C   UNL     1      40.101 -14.229  -0.888  1.00  0.00     0.055 A 
HETATM   16  C   UNL     1      40.170 -14.301   0.489  1.00  0.00     0.028 A 
HETATM   17  C   UNL     1      39.869 -15.431   1.401  1.00  0.00     0.070 C 
ENDBRANCH  10  11
ENDBRANCH   8  10
ENDBRANCH   7   8
ENDBRANCH   1   7
BRANCH   3  18
HETATM   18  N   UNL     1      42.809 -14.087   7.646  1.00  0.00    -0.264 N 
HETATM   19  C   UNL     1      42.893 -15.459   7.573  1.00  0.00     0.260 C 
HETATM   20  O   UNL     1      43.587 -16.055   8.403  1.00  0.00    -0.269 OA
HETATM   21  H   UNL     1      43.467 -13.638   8.277  1.00  0.00     0.190 HD
BRANCH  19  22
HETATM   22  C   UNL     1      42.110 -16.207   6.497  1.00  0.00     0.280 C 
BRANCH  22  23
HETATM   23  O   UNL     1      42.697 -15.902   5.233  1.00  0.00    -0.342 OA
BRANCH  23  24
HETATM   24  C   UNL     1      42.997 -17.002   4.482  1.00  0.00     0.069 A 
HETATM   25  C   UNL     1      42.494 -17.021   3.180  1.00  0.00     0.038 A 
HETATM   26  C   UNL     1      42.763 -18.101   2.340  1.00  0.00     0.022 A 
HETATM   27  C   UNL     1      43.557 -19.148   2.803  1.00  0.00     0.011 A 
HETATM   28 BR   UNL     1      43.917 -20.619   1.672  1.00  0.00    -0.051 Br
HETATM   29  C   UNL     1      44.090 -19.118   4.092  1.00  0.00     0.022 A 
HETATM   30  C   UNL     1      43.813 -18.038   4.934  1.00  0.00     0.038 A 
ENDBRANCH  23  24
ENDBRANCH  22  23
ENDBRANCH  19  22
ENDBRANCH   3  18
TORSDOF 8
ENDMDL
MODEL 4
REMARK VINA RESULT:      -7.9      1.432      2.335
REMARK  8 active torsions:
REMARK  status: ('A' for Active; 'I' for Inactive)
REMARK    1  A    between atoms: N_4  and  C_5 
REMARK    2  A    between atoms: C_5  and  C_6 
REMARK    3  A    between atoms: C_6  and  C_7 
REMARK    4  A    between atoms: C_7  and  N_8 
REMARK       I    between atoms: N_8  and  C_9 
REMARK       I    between atoms: C_9  and  N_10 
REMARK    5  A    between atoms: N_10  and  N_11 
REMARK       I    between atoms: N_11  and  C_12 
REMARK    6  A    between atoms: C_12  and  C_13 
REMARK    7  A    between atoms: C_13  and  O_14 
REMARK    8  A    between atoms: O_14  and  C_15 
ROOT
HETATM    1  N   UNL     1      43.079 -13.153   7.100  1.00  0.00    -0.341 N 
HETATM    2  C   UNL     1      43.908 -12.164   6.629  1.00  0.00     0.334 C 
HETATM    3  N   UNL     1      44.659 -11.608   7.648  1.00  0.00    -0.249 N 
HETATM    4  O   UNL     1      44.006 -11.851   5.450  1.00  0.00    -0.246 OA
HETATM    5  H   UNL     1      42.757 -13.076   8.054  1.00  0.00     0.164 HD
HETATM    6  H   UNL     1      44.782 -12.137   8.503  1.00  0.00     0.192 HD
ENDROOT
BRANCH   1   7
HETATM    7  C   UNL     1      42.354 -14.046   6.218  1.00  0.00     0.130 C 
BRANCH   7   8
HETATM    8  C   UNL     1      42.741 -15.528   6.352  1.00  0.00     0.019 C 
HETATM    9  C   UNL     1      43.006 -15.930   7.805  1.00  0.00     0.013 C 
BRANCH   8  10
HETATM   10  C   UNL     1      41.616 -16.417   5.786  1.00  0.00     0.156 C 
BRANCH  10  11
HETATM   11  N   UNL     1      41.628 -16.497   4.333  1.00  0.00    -0.274 N 
HETATM   12  N   UNL     1      40.612 -15.921   3.660  1.00  0.00    -0.177 NA
HETATM   13  C   UNL     1      40.917 -16.107   2.373  1.00  0.00     0.053 A 
HETATM   14  C   UNL     1      40.042 -15.566   1.307  1.00  0.00     0.072 C 
HETATM   15  C   UNL     1      42.121 -16.827   2.227  1.00  0.00     0.055 A 
HETATM   16  C   UNL     1      42.565 -17.071   3.512  1.00  0.00     0.028 A 
HETATM   17  C   UNL     1      43.786 -17.767   3.983  1.00  0.00     0.070 C 
ENDBRANCH  10  11
ENDBRANCH   8  10
ENDBRANCH   7   8
ENDBRANCH   1   7
BRANCH   3  18
HETATM   18  N   UNL     1      45.637 -10.655   7.350  1.00  0.00    -0.264 N 
HETATM   19  C   UNL     1      45.818  -9.467   8.021  1.00  0.00     0.260 C 
HETATM   20  O   UNL     1      46.776  -8.752   7.712  1.00  0.00    -0.269 OA
HETATM   21  H   UNL     1      46.408 -10.950   6.758  1.00  0.00     0.190 HD
BRANCH  19  22
HETATM   22  C   UNL     1      44.823  -9.050   9.100  1.00  0.00     0.280 C 
BRANCH  22  23
HETATM   23  O   UNL     1      44.828 -10.051  10.116  1.00  0.00    -0.342 OA
BRANCH  23  24
HETATM   24  C   UNL     1      44.030  -9.760  11.184  1.00  0.00     0.069 A 
HETATM   25  C   UNL     1      43.929  -8.413  11.535  1.00  0.00     0.038 A 
HETATM   26  C   UNL     1      43.125  -8.025  12.607  1.00  0.00     0.022 A 
HETATM   27  C   UNL     1      42.406  -8.990  13.308  1.00  0.00     0.011 A 
HETATM   28 BR   UNL     1      41.323  -8.471  14.768  1.00  0.00    -0.051 Br
HETATM   29  C   UNL     1      42.477 -10.334  12.940  1.00  0.00     0.022 A 
HETATM   30  C   UNL     1      43.289 -10.721  11.871  1.00  0.00     0.038 A 
ENDBRANCH  23  24
ENDBRANCH  22  23
ENDBRANCH  19  22
ENDBRANCH   3  18
TORSDOF 8
ENDMDL
MODEL 5
REMARK VINA RESULT:      -7.8      6.008      9.600
REMARK  8 active torsions:
REMARK  status: ('A' for Active; 'I' for Inactive)
REMARK    1  A    between atoms: N_4  and  C_5 
REMARK    2  A    between atoms: C_5  and  C_6 
REMARK    3  A    between atoms: C_6  and  C_7 
REMARK    4  A    between atoms: C_7  and  N_8 
REMARK       I    between atoms: N_8  and  C_9 
REMARK       I    between atoms: C_9  and  N_10 
REMARK    5  A    between atoms: N_10  and  N_11 
REMARK       I    between atoms: N_11  and  C_12 
REMARK    6  A    between atoms: C_12  and  C_13 
REMARK    7  A    between atoms: C_13  and  O_14 
REMARK    8  A    between atoms: O_14  and  C_15 
ROOT
HETATM    1  N   UNL     1      39.787 -13.602   3.521  1.00  0.00    -0.341 N 
HETATM    2  C   UNL     1      40.619 -12.940   4.392  1.00  0.00     0.334 C 
HETATM    3  N   UNL     1      40.869 -13.695   5.522  1.00  0.00    -0.249 N 
HETATM    4  O   UNL     1      41.115 -11.844   4.170  1.00  0.00    -0.246 OA
HETATM    5  H   UNL     1      39.126 -14.256   3.914  1.00  0.00     0.164 HD
HETATM    6  H   UNL     1      40.721 -14.697   5.479  1.00  0.00     0.192 HD
ENDROOT
BRANCH   1   7
HETATM    7  C   UNL     1      39.546 -13.137   2.169  1.00  0.00     0.130 C 
BRANCH   7   8
HETATM    8  C   UNL     1      40.455 -13.773   1.104  1.00  0.00     0.019 C 
HETATM    9  C   UNL     1      39.958 -15.153   0.668  1.00  0.00     0.013 C 
BRANCH   8  10
HETATM   10  C   UNL     1      40.533 -12.857  -0.134  1.00  0.00     0.156 C 
BRANCH  10  11
HETATM   11  N   UNL     1      39.430 -13.054  -1.062  1.00  0.00    -0.274 N 
HETATM   12  N   UNL     1      39.579 -13.976  -2.033  1.00  0.00    -0.177 NA
HETATM   13  C   UNL     1      38.410 -13.970  -2.679  1.00  0.00     0.053 A 
HETATM   14  C   UNL     1      38.169 -14.900  -3.808  1.00  0.00     0.072 C 
HETATM   15  C   UNL     1      37.521 -13.021  -2.131  1.00  0.00     0.055 A 
HETATM   16  C   UNL     1      38.205 -12.437  -1.083  1.00  0.00     0.028 A 
HETATM   17  C   UNL     1      37.771 -11.390  -0.128  1.00  0.00     0.070 C 
ENDBRANCH  10  11
ENDBRANCH   8  10
ENDBRANCH   7   8
ENDBRANCH   1   7
BRANCH   3  18
HETATM   18  N   UNL     1      41.777 -13.233   6.479  1.00  0.00    -0.264 N 
HETATM   19  C   UNL     1      42.959 -13.853   6.816  1.00  0.00     0.260 C 
HETATM   20  O   UNL     1      43.714 -13.294   7.617  1.00  0.00    -0.269 OA
HETATM   21  H   UNL     1      41.683 -12.268   6.781  1.00  0.00     0.190 HD
BRANCH  19  22
HETATM   22  C   UNL     1      43.293 -15.218   6.219  1.00  0.00     0.280 C 
BRANCH  22  23
HETATM   23  O   UNL     1      43.409 -15.066   4.806  1.00  0.00    -0.342 OA
BRANCH  23  24
HETATM   24  C   UNL     1      43.430 -16.247   4.122  1.00  0.00     0.069 A 
HETATM   25  C   UNL     1      44.182 -17.278   4.688  1.00  0.00     0.038 A 
HETATM   26  C   UNL     1      44.248 -18.523   4.062  1.00  0.00     0.022 A 
HETATM   27  C   UNL     1      43.540 -18.735   2.881  1.00  0.00     0.011 A 
HETATM   28 BR   UNL     1      43.635 -20.416   2.023  1.00  0.00    -0.051 Br
HETATM   29  C   UNL     1      42.760 -17.717   2.329  1.00  0.00     0.022 A 
HETATM   30  C   UNL     1      42.701 -16.469   2.955  1.00  0.00     0.038 A 
ENDBRANCH  23  24
ENDBRANCH  22  23
ENDBRANCH  19  22
ENDBRANCH   3  18
TORSDOF 8
ENDMDL
MODEL 6
REMARK VINA RESULT:      -7.7      7.143     10.658
REMARK  8 active torsions:
REMARK  status: ('A' for Active; 'I' for Inactive)
REMARK    1  A    between atoms: N_4  and  C_5 
REMARK    2  A    between atoms: C_5  and  C_6 
REMARK    3  A    between atoms: C_6  and  C_7 
REMARK    4  A    between atoms: C_7  and  N_8 
REMARK       I    between atoms: N_8  and  C_9 
REMARK       I    between atoms: C_9  and  N_10 
REMARK    5  A    between atoms: N_10  and  N_11 
REMARK       I    between atoms: N_11  and  C_12 
REMARK    6  A    between atoms: C_12  and  C_13 
REMARK    7  A    between atoms: C_13  and  O_14 
REMARK    8  A    between atoms: O_14  and  C_15 
ROOT
HETATM    1  N   UNL     1      39.986 -14.206   0.456  1.00  0.00    -0.341 N 
HETATM    2  C   UNL     1      39.916 -14.725   1.726  1.00  0.00     0.334 C 
HETATM    3  N   UNL     1      40.165 -13.758   2.680  1.00  0.00    -0.249 N 
HETATM    4  O   UNL     1      39.621 -15.885   1.980  1.00  0.00    -0.246 OA
HETATM    5  H   UNL     1      40.600 -13.419   0.307  1.00  0.00     0.164 HD
HETATM    6  H   UNL     1      40.053 -12.784   2.424  1.00  0.00     0.192 HD
ENDROOT
BRANCH   1   7
HETATM    7  C   UNL     1      39.550 -14.946  -0.712  1.00  0.00     0.130 C 
BRANCH   7   8
HETATM    8  C   UNL     1      39.263 -14.076  -1.948  1.00  0.00     0.019 C 
HETATM    9  C   UNL     1      38.576 -14.866  -3.065  1.00  0.00     0.013 C 
BRANCH   8  10
HETATM   10  C   UNL     1      38.368 -12.884  -1.555  1.00  0.00     0.156 C 
BRANCH  10  11
HETATM   11  N   UNL     1      39.015 -11.596  -1.748  1.00  0.00    -0.274 N 
HETATM   12  N   UNL     1      40.237 -11.416  -1.209  1.00  0.00    -0.177 NA
HETATM   13  C   UNL     1      40.590 -10.185  -1.589  1.00  0.00     0.053 A 
HETATM   14  C   UNL     1      41.915  -9.634  -1.217  1.00  0.00     0.072 C 
HETATM   15  C   UNL     1      39.577  -9.570  -2.353  1.00  0.00     0.055 A 
HETATM   16  C   UNL     1      38.563 -10.503  -2.443  1.00  0.00     0.028 A 
HETATM   17  C   UNL     1      37.257 -10.428  -3.141  1.00  0.00     0.070 C 
ENDBRANCH  10  11
ENDBRANCH   8  10
ENDBRANCH   7   8
ENDBRANCH   1   7
BRANCH   3  18
HETATM   18  N   UNL     1      40.038 -14.070   4.036  1.00  0.00    -0.264 N 
HETATM   19  C   UNL     1      41.081 -14.171   4.929  1.00  0.00     0.260 C 
HETATM   20  O   UNL     1      40.824 -14.368   6.121  1.00  0.00    -0.269 OA
HETATM   21  H   UNL     1      39.112 -13.991   4.447  1.00  0.00     0.190 HD
BRANCH  19  22
HETATM   22  C   UNL     1      42.518 -14.067   4.426  1.00  0.00     0.280 C 
BRANCH  22  23
HETATM   23  O   UNL     1      43.278 -15.105   5.043  1.00  0.00    -0.342 OA
BRANCH  23  24
HETATM   24  C   UNL     1      43.370 -16.243   4.296  1.00  0.00     0.069 A 
HETATM   25  C   UNL     1      43.803 -17.390   4.963  1.00  0.00     0.038 A 
HETATM   26  C   UNL     1      43.914 -18.600   4.278  1.00  0.00     0.022 A 
HETATM   27  C   UNL     1      43.568 -18.659   2.930  1.00  0.00     0.011 A 
HETATM   28 BR   UNL     1      43.726 -20.293   1.994  1.00  0.00    -0.051 Br
HETATM   29  C   UNL     1      43.102 -17.522   2.267  1.00  0.00     0.022 A 
HETATM   30  C   UNL     1      42.999 -16.310   2.954  1.00  0.00     0.038 A 
ENDBRANCH  23  24
ENDBRANCH  22  23
ENDBRANCH  19  22
ENDBRANCH   3  18
TORSDOF 8
ENDMDL
MODEL 7
REMARK VINA RESULT:      -7.7      4.581      9.929
REMARK  8 active torsions:
REMARK  status: ('A' for Active; 'I' for Inactive)
REMARK    1  A    between atoms: N_4  and  C_5 
REMARK    2  A    between atoms: C_5  and  C_6 
REMARK    3  A    between atoms: C_6  and  C_7 
REMARK    4  A    between atoms: C_7  and  N_8 
REMARK       I    between atoms: N_8  and  C_9 
REMARK       I    between atoms: C_9  and  N_10 
REMARK    5  A    between atoms: N_10  and  N_11 
REMARK       I    between atoms: N_11  and  C_12 
REMARK    6  A    between atoms: C_12  and  C_13 
REMARK    7  A    between atoms: C_13  and  O_14 
REMARK    8  A    between atoms: O_14  and  C_15 
ROOT
HETATM    1  N   UNL     1      41.603 -10.105   6.144  1.00  0.00    -0.341 N 
HETATM    2  C   UNL     1      40.761 -11.187   6.241  1.00  0.00     0.334 C 
HETATM    3  N   UNL     1      41.464 -12.376   6.213  1.00  0.00    -0.249 N 
HETATM    4  O   UNL     1      39.549 -11.104   6.386  1.00  0.00    -0.246 OA
HETATM    5  H   UNL     1      42.468 -10.232   5.639  1.00  0.00     0.164 HD
HETATM    6  H   UNL     1      42.451 -12.362   6.442  1.00  0.00     0.192 HD
ENDROOT
BRANCH   1   7
HETATM    7  C   UNL     1      41.153  -8.746   6.372  1.00  0.00     0.130 C 
BRANCH   7   8
HETATM    8  C   UNL     1      42.002  -7.954   7.381  1.00  0.00     0.019 C 
HETATM    9  C   UNL     1      41.423  -6.565   7.660  1.00  0.00     0.013 C 
BRANCH   8  10
HETATM   10  C   UNL     1      42.100  -8.730   8.709  1.00  0.00     0.156 C 
BRANCH  10  11
HETATM   11  N   UNL     1      43.441  -9.223   8.985  1.00  0.00    -0.274 N 
HETATM   12  N   UNL     1      44.125  -9.791   7.973  1.00  0.00    -0.177 NA
HETATM   13  C   UNL     1      45.314 -10.090   8.503  1.00  0.00     0.053 A 
HETATM   14  C   UNL     1      46.376 -10.703   7.670  1.00  0.00     0.072 C 
HETATM   15  C   UNL     1      45.377  -9.732   9.866  1.00  0.00     0.055 A 
HETATM   16  C   UNL     1      44.149  -9.172  10.158  1.00  0.00     0.028 A 
HETATM   17  C   UNL     1      43.642  -8.595  11.426  1.00  0.00     0.070 C 
ENDBRANCH  10  11
ENDBRANCH   8  10
ENDBRANCH   7   8
ENDBRANCH   1   7
BRANCH   3  18
HETATM   18  N   UNL     1      40.791 -13.586   6.404  1.00  0.00    -0.264 N 
HETATM   19  C   UNL     1      41.391 -14.820   6.513  1.00  0.00     0.260 C 
HETATM   20  O   UNL     1      40.686 -15.801   6.767  1.00  0.00    -0.269 OA
HETATM   21  H   UNL     1      39.824 -13.536   6.713  1.00  0.00     0.190 HD
BRANCH  19  22
HETATM   22  C   UNL     1      42.895 -14.950   6.290  1.00  0.00     0.280 C 
BRANCH  22  23
HETATM   23  O   UNL     1      43.138 -14.909   4.885  1.00  0.00    -0.342 OA
BRANCH  23  24
HETATM   24  C   UNL     1      43.279 -16.139   4.310  1.00  0.00     0.069 A 
HETATM   25  C   UNL     1      42.666 -16.318   3.069  1.00  0.00     0.038 A 
HETATM   26  C   UNL     1      42.770 -17.540   2.405  1.00  0.00     0.022 A 
HETATM   27  C   UNL     1      43.509 -18.571   2.980  1.00  0.00     0.011 A 
HETATM   28 BR   UNL     1      43.644 -20.233   2.089  1.00  0.00    -0.051 Br
HETATM   29  C   UNL     1      44.152 -18.386   4.204  1.00  0.00     0.022 A 
HETATM   30  C   UNL     1      44.040 -17.163   4.871  1.00  0.00     0.038 A 
ENDBRANCH  23  24
ENDBRANCH  22  23
ENDBRANCH  19  22
ENDBRANCH   3  18
TORSDOF 8
ENDMDL
MODEL 8
REMARK VINA RESULT:      -7.6      6.285      9.799
REMARK  8 active torsions:
REMARK  status: ('A' for Active; 'I' for Inactive)
REMARK    1  A    between atoms: N_4  and  C_5 
REMARK    2  A    between atoms: C_5  and  C_6 
REMARK    3  A    between atoms: C_6  and  C_7 
REMARK    4  A    between atoms: C_7  and  N_8 
REMARK       I    between atoms: N_8  and  C_9 
REMARK       I    between atoms: C_9  and  N_10 
REMARK    5  A    between atoms: N_10  and  N_11 
REMARK       I    between atoms: N_11  and  C_12 
REMARK    6  A    between atoms: C_12  and  C_13 
REMARK    7  A    between atoms: C_13  and  O_14 
REMARK    8  A    between atoms: O_14  and  C_15 
ROOT
HETATM    1  N   UNL     1      41.439 -13.816   3.453  1.00  0.00    -0.341 N 
HETATM    2  C   UNL     1      41.942 -13.499   4.692  1.00  0.00     0.334 C 
HETATM    3  N   UNL     1      41.523 -14.401   5.651  1.00  0.00    -0.249 N 
HETATM    4  O   UNL     1      42.706 -12.568   4.906  1.00  0.00    -0.246 OA
HETATM    5  H   UNL     1      40.551 -14.296   3.419  1.00  0.00     0.164 HD
HETATM    6  H   UNL     1      41.199 -15.313   5.351  1.00  0.00     0.192 HD
ENDROOT
BRANCH   1   7
HETATM    7  C   UNL     1      41.898 -13.172   2.239  1.00  0.00     0.130 C 
BRANCH   7   8
HETATM    8  C   UNL     1      41.329 -13.773   0.942  1.00  0.00     0.019 C 
HETATM    9  C   UNL     1      41.040 -15.270   1.076  1.00  0.00     0.013 C 
BRANCH   8  10
HETATM   10  C   UNL     1      40.027 -13.046   0.554  1.00  0.00     0.156 C 
BRANCH  10  11
HETATM   11  N   UNL     1      40.006 -12.614  -0.836  1.00  0.00    -0.274 N 
HETATM   12  N   UNL     1      40.461 -11.378  -1.120  1.00  0.00    -0.177 NA
HETATM   13  C   UNL     1      40.370 -11.288  -2.449  1.00  0.00     0.053 A 
HETATM   14  C   UNL     1      40.825 -10.065  -3.153  1.00  0.00     0.072 C 
HETATM   15  C   UNL     1      39.830 -12.464  -3.011  1.00  0.00     0.055 A 
HETATM   16  C   UNL     1      39.601 -13.311  -1.945  1.00  0.00     0.028 A 
HETATM   17  C   UNL     1      39.063 -14.692  -1.924  1.00  0.00     0.070 C 
ENDBRANCH  10  11
ENDBRANCH   8  10
ENDBRANCH   7   8
ENDBRANCH   1   7
BRANCH   3  18
HETATM   18  N   UNL     1      42.015 -14.306   6.956  1.00  0.00    -0.264 N 
HETATM   19  C   UNL     1      42.821 -15.237   7.571  1.00  0.00     0.260 C 
HETATM   20  O   UNL     1      43.258 -14.990   8.699  1.00  0.00    -0.269 OA
HETATM   21  H   UNL     1      41.973 -13.394   7.403  1.00  0.00     0.190 HD
BRANCH  19  22
HETATM   22  C   UNL     1      43.129 -16.554   6.863  1.00  0.00     0.280 C 
BRANCH  22  23
HETATM   23  O   UNL     1      43.944 -16.265   5.728  1.00  0.00    -0.342 OA
BRANCH  23  24
HETATM   24  C   UNL     1      43.854 -17.193   4.732  1.00  0.00     0.069 A 
HETATM   25  C   UNL     1      44.199 -18.503   5.071  1.00  0.00     0.038 A 
HETATM   26  C   UNL     1      44.124 -19.517   4.117  1.00  0.00     0.022 A 
HETATM   27  C   UNL     1      43.680 -19.217   2.831  1.00  0.00     0.011 A 
HETATM   28 BR   UNL     1      43.586 -20.586   1.531  1.00  0.00    -0.051 Br
HETATM   29  C   UNL     1      43.302 -17.916   2.497  1.00  0.00     0.022 A 
HETATM   30  C   UNL     1      43.385 -16.900   3.453  1.00  0.00     0.038 A 
ENDBRANCH  23  24
ENDBRANCH  22  23
ENDBRANCH  19  22
ENDBRANCH   3  18
TORSDOF 8
ENDMDL
MODEL 9
REMARK VINA RESULT:      -7.6      5.184      9.282
REMARK  8 active torsions:
REMARK  status: ('A' for Active; 'I' for Inactive)
REMARK    1  A    between atoms: N_4  and  C_5 
REMARK    2  A    between atoms: C_5  and  C_6 
REMARK    3  A    between atoms: C_6  and  C_7 
REMARK    4  A    between atoms: C_7  and  N_8 
REMARK       I    between atoms: N_8  and  C_9 
REMARK       I    between atoms: C_9  and  N_10 
REMARK    5  A    between atoms: N_10  and  N_11 
REMARK       I    between atoms: N_11  and  C_12 
REMARK    6  A    between atoms: C_12  and  C_13 
REMARK    7  A    between atoms: C_13  and  O_14 
REMARK    8  A    between atoms: O_14  and  C_15 
ROOT
HETATM    1  N   UNL     1      39.180 -12.629   4.257  1.00  0.00    -0.341 N 
HETATM    2  C   UNL     1      39.499 -12.499   2.927  1.00  0.00     0.334 C 
HETATM    3  N   UNL     1      39.043 -13.576   2.191  1.00  0.00    -0.249 N 
HETATM    4  O   UNL     1      40.070 -11.529   2.449  1.00  0.00    -0.246 OA
HETATM    5  H   UNL     1      39.098 -13.565   4.627  1.00  0.00     0.164 HD
HETATM    6  H   UNL     1      38.298 -14.145   2.576  1.00  0.00     0.192 HD
ENDROOT
BRANCH   1   7
HETATM    7  C   UNL     1      39.341 -11.545   5.206  1.00  0.00     0.130 C 
BRANCH   7   8
HETATM    8  C   UNL     1      40.672 -11.564   5.977  1.00  0.00     0.019 C 
HETATM    9  C   UNL     1      41.309 -12.956   5.999  1.00  0.00     0.013 C 
BRANCH   8  10
HETATM   10  C   UNL     1      41.663 -10.571   5.338  1.00  0.00     0.156 C 
BRANCH  10  11
HETATM   11  N   UNL     1      43.042 -10.803   5.740  1.00  0.00    -0.274 N 
HETATM   12  N   UNL     1      43.395 -10.480   7.000  1.00  0.00    -0.177 NA
HETATM   13  C   UNL     1      44.676 -10.846   7.091  1.00  0.00     0.053 A 
HETATM   14  C   UNL     1      45.417 -10.685   8.365  1.00  0.00     0.072 C 
HETATM   15  C   UNL     1      45.148 -11.382   5.873  1.00  0.00     0.055 A 
HETATM   16  C   UNL     1      44.070 -11.343   5.011  1.00  0.00     0.028 A 
HETATM   17  C   UNL     1      43.960 -11.791   3.602  1.00  0.00     0.070 C 
ENDBRANCH  10  11
ENDBRANCH   8  10
ENDBRANCH   7   8
ENDBRANCH   1   7
BRANCH   3  18
HETATM   18  N   UNL     1      39.181 -13.576   0.801  1.00  0.00    -0.264 N 
HETATM   19  C   UNL     1      40.148 -14.261   0.099  1.00  0.00     0.260 C 
HETATM   20  O   UNL     1      40.106 -14.247  -1.135  1.00  0.00    -0.269 OA
HETATM   21  H   UNL     1      38.391 -13.245   0.255  1.00  0.00     0.190 HD
BRANCH  19  22
HETATM   22  C   UNL     1      41.255 -14.991   0.855  1.00  0.00     0.280 C 
BRANCH  22  23
HETATM   23  O   UNL     1      40.652 -16.018   1.640  1.00  0.00    -0.342 OA
BRANCH  23  24
HETATM   24  C   UNL     1      41.348 -16.332   2.771  1.00  0.00     0.069 A 
HETATM   25  C   UNL     1      40.675 -16.160   3.982  1.00  0.00     0.038 A 
HETATM   26  C   UNL     1      41.307 -16.469   5.186  1.00  0.00     0.022 A 
HETATM   27  C   UNL     1      42.606 -16.971   5.169  1.00  0.00     0.011 A 
HETATM   28 BR   UNL     1      43.472 -17.381   6.798  1.00  0.00    -0.051 Br
HETATM   29  C   UNL     1      43.271 -17.176   3.959  1.00  0.00     0.022 A 
HETATM   30  C   UNL     1      42.638 -16.859   2.754  1.00  0.00     0.038 A 
ENDBRANCH  23  24
ENDBRANCH  22  23
ENDBRANCH  19  22
ENDBRANCH   3  18
TORSDOF 8
ENDMDL
MODEL 10
REMARK VINA RESULT:      -7.5      4.248      9.854
REMARK  8 active torsions:
REMARK  status: ('A' for Active; 'I' for Inactive)
REMARK    1  A    between atoms: N_4  and  C_5 
REMARK    2  A    between atoms: C_5  and  C_6 
REMARK    3  A    between atoms: C_6  and  C_7 
REMARK    4  A    between atoms: C_7  and  N_8 
REMARK       I    between atoms: N_8  and  C_9 
REMARK       I    between atoms: C_9  and  N_10 
REMARK    5  A    between atoms: N_10  and  N_11 
REMARK       I    between atoms: N_11  and  C_12 
REMARK    6  A    between atoms: C_12  and  C_13 
REMARK    7  A    between atoms: C_13  and  O_14 
REMARK    8  A    between atoms: O_14  and  C_15 
ROOT
HETATM    1  N   UNL     1      43.986 -11.972   6.466  1.00  0.00    -0.341 N 
HETATM    2  C   UNL     1      43.686 -11.777   5.139  1.00  0.00     0.334 C 
HETATM    3  N   UNL     1      42.343 -11.985   4.890  1.00  0.00    -0.249 N 
HETATM    4  O   UNL     1      44.497 -11.415   4.297  1.00  0.00    -0.246 OA
HETATM    5  H   UNL     1      43.417 -12.628   6.980  1.00  0.00     0.164 HD
HETATM    6  H   UNL     1      41.693 -11.934   5.665  1.00  0.00     0.192 HD
ENDROOT
BRANCH   1   7
HETATM    7  C   UNL     1      45.267 -11.604   7.036  1.00  0.00     0.130 C 
BRANCH   7   8
HETATM    8  C   UNL     1      45.189 -10.548   8.152  1.00  0.00     0.019 C 
HETATM    9  C   UNL     1      46.233  -9.443   7.978  1.00  0.00     0.013 C 
BRANCH   8  10
HETATM   10  C   UNL     1      43.786  -9.910   8.174  1.00  0.00     0.156 C 
BRANCH  10  11
HETATM   11  N   UNL     1      43.417  -9.388   9.482  1.00  0.00    -0.274 N 
HETATM   12  N   UNL     1      43.148 -10.273  10.461  1.00  0.00    -0.177 NA
HETATM   13  C   UNL     1      42.898  -9.516  11.533  1.00  0.00     0.053 A 
HETATM   14  C   UNL     1      42.597 -10.141  12.843  1.00  0.00     0.072 C 
HETATM   15  C   UNL     1      42.984  -8.141  11.226  1.00  0.00     0.055 A 
HETATM   16  C   UNL     1      43.321  -8.082   9.888  1.00  0.00     0.028 A 
HETATM   17  C   UNL     1      43.568  -6.907   9.019  1.00  0.00     0.070 C 
ENDBRANCH  10  11
ENDBRANCH   8  10
ENDBRANCH   7   8
ENDBRANCH   1   7
BRANCH   3  18
HETATM   18  N   UNL     1      41.826 -11.734   3.616  1.00  0.00    -0.264 N 
HETATM   19  C   UNL     1      41.354 -12.692   2.748  1.00  0.00     0.260 C 
HETATM   20  O   UNL     1      40.841 -12.327   1.685  1.00  0.00    -0.269 OA
HETATM   21  H   UNL     1      41.563 -10.776   3.402  1.00  0.00     0.190 HD
BRANCH  19  22
HETATM   22  C   UNL     1      41.499 -14.169   3.102  1.00  0.00     0.280 C 
BRANCH  22  23
HETATM   23  O   UNL     1      42.882 -14.510   3.015  1.00  0.00    -0.342 OA
BRANCH  23  24
HETATM   24  C   UNL     1      43.177 -15.754   3.494  1.00  0.00     0.069 A 
HETATM   25  C   UNL     1      43.212 -16.787   2.556  1.00  0.00     0.038 A 
HETATM   26  C   UNL     1      43.518 -18.088   2.957  1.00  0.00     0.022 A 
HETATM   27  C   UNL     1      43.810 -18.342   4.295  1.00  0.00     0.011 A 
HETATM   28 BR   UNL     1      44.215 -20.104   4.846  1.00  0.00    -0.051 Br
HETATM   29  C   UNL     1      43.809 -17.306   5.230  1.00  0.00     0.022 A 
HETATM   30  C   UNL     1      43.496 -16.005   4.827  1.00  0.00     0.038 A 
ENDBRANCH  23  24
ENDBRANCH  22  23
ENDBRANCH  19  22
ENDBRANCH   3  18
TORSDOF 8
ENDMDL
