MODEL 1
REMARK VINA RESULT:      -8.2      0.000      0.000
REMARK  5 active torsions:
REMARK  status: ('A' for Active; 'I' for Inactive)
REMARK    1  A    between atoms: C_2  and  C_3 
REMARK    2  A    between atoms: C_3  and  O_4 
REMARK    3  A    between atoms: O_4  and  C_5 
REMARK    4  A    between atoms: C_8  and  C_9 
REMARK    5  A    between atoms: C_15  and  C_16 
ROOT
HETATM    1  C   UNL     1      43.065 -13.528   4.083  1.00  0.00     0.066 C 
HETATM    2  C   UNL     1      42.605 -14.398   5.197  1.00  0.00     0.028 A 
HETATM    3  C   UNL     1      42.089 -13.896   6.365  1.00  0.00     0.133 A 
HETATM    4  N   UNL     1      41.724 -14.956   7.131  1.00  0.00    -0.261 N 
HETATM    5  H   UNL     1      41.295 -14.967   8.050  1.00  0.00     0.191 HD
HETATM    6  N   UNL     1      41.995 -16.132   6.547  1.00  0.00    -0.172 NA
HETATM    7  C   UNL     1      42.545 -15.815   5.360  1.00  0.00     0.098 A 
HETATM    8  N   UNL     1      41.966 -12.551   6.602  1.00  0.00    -0.312 N 
HETATM    9  C   UNL     1      42.506 -11.613   5.667  1.00  0.00     0.224 C 
HETATM   10  O   UNL     1      42.286 -10.436   5.907  1.00  0.00    -0.273 OA
HETATM   11  C   UNL     1      43.404 -12.113   4.563  1.00  0.00     0.117 C 
HETATM   12  H   UNL     1      41.483 -12.179   7.412  1.00  0.00     0.170 HD
ENDROOT
BRANCH   1  13
HETATM   13  C   UNL     1      41.978 -13.539   3.019  1.00  0.00    -0.049 A 
HETATM   14  C   UNL     1      40.612 -13.383   3.308  1.00  0.00     0.010 A 
HETATM   15  C   UNL     1      39.670 -13.298   2.281  1.00  0.00     0.037 A 
HETATM   16  C   UNL     1      40.071 -13.343   0.949  1.00  0.00     0.069 A 
HETATM   17  C   UNL     1      41.411 -13.554   0.641  1.00  0.00     0.037 A 
HETATM   18  C   UNL     1      42.357 -13.645   1.667  1.00  0.00     0.010 A 
BRANCH  16  19
HETATM   19  O   UNL     1      39.075 -13.196   0.025  1.00  0.00    -0.348 OA
BRANCH  19  20
HETATM   20  C   UNL     1      39.498 -13.320  -1.335  1.00  0.00     0.202 C 
BRANCH  20  21
HETATM   21  C   UNL     1      39.022 -14.652  -1.831  1.00  0.00    -0.011 C 
HETATM   22  C   UNL     1      38.569 -14.885  -3.070  1.00  0.00     0.009 C 
ENDBRANCH  20  21
ENDBRANCH  19  20
ENDBRANCH  16  19
ENDBRANCH   1  13
BRANCH   7  23
HETATM   23  C   UNL     1      42.960 -16.866   4.433  1.00  0.00    -0.005 A 
HETATM   24  C   UNL     1      44.012 -17.724   4.780  1.00  0.00     0.014 A 
HETATM   25  C   UNL     1      44.424 -18.733   3.908  1.00  0.00     0.001 A 
HETATM   26  C   UNL     1      43.789 -18.893   2.678  1.00  0.00     0.000 A 
HETATM   27  C   UNL     1      42.750 -18.037   2.315  1.00  0.00     0.001 A 
HETATM   28  C   UNL     1      42.340 -17.024   3.187  1.00  0.00     0.014 A 
ENDBRANCH   7  23
TORSDOF 5
ENDMDL
MODEL 2
REMARK VINA RESULT:      -8.0      2.852      6.085
REMARK  5 active torsions:
REMARK  status: ('A' for Active; 'I' for Inactive)
REMARK    1  A    between atoms: C_2  and  C_3 
REMARK    2  A    between atoms: C_3  and  O_4 
REMARK    3  A    between atoms: O_4  and  C_5 
REMARK    4  A    between atoms: C_8  and  C_9 
REMARK    5  A    between atoms: C_15  and  C_16 
ROOT
HETATM    1  C   UNL     1      41.067 -13.879   4.944  1.00  0.00     0.066 C 
HETATM    2  C   UNL     1      41.103 -14.254   3.506  1.00  0.00     0.028 A 
HETATM    3  C   UNL     1      40.446 -13.540   2.537  1.00  0.00     0.133 A 
HETATM    4  N   UNL     1      40.734 -14.122   1.345  1.00  0.00    -0.261 N 
HETATM    5  H   UNL     1      40.436 -13.857   0.412  1.00  0.00     0.191 HD
HETATM    6  N   UNL     1      41.522 -15.198   1.473  1.00  0.00    -0.172 NA
HETATM    7  C   UNL     1      41.757 -15.306   2.794  1.00  0.00     0.098 A 
HETATM    8  N   UNL     1      39.694 -12.428   2.819  1.00  0.00    -0.312 N 
HETATM    9  C   UNL     1      39.467 -12.052   4.181  1.00  0.00     0.224 C 
HETATM   10  O   UNL     1      38.857 -11.007   4.349  1.00  0.00    -0.273 OA
HETATM   11  C   UNL     1      39.851 -13.010   5.280  1.00  0.00     0.117 C 
HETATM   12  H   UNL     1      39.302 -11.834   2.098  1.00  0.00     0.170 HD
ENDROOT
BRANCH   1  13
HETATM   13  C   UNL     1      42.385 -13.192   5.268  1.00  0.00    -0.049 A 
HETATM   14  C   UNL     1      43.012 -12.279   4.403  1.00  0.00     0.010 A 
HETATM   15  C   UNL     1      44.167 -11.600   4.797  1.00  0.00     0.037 A 
HETATM   16  C   UNL     1      44.706 -11.799   6.065  1.00  0.00     0.069 A 
HETATM   17  C   UNL     1      44.134 -12.740   6.915  1.00  0.00     0.037 A 
HETATM   18  C   UNL     1      42.980 -13.426   6.522  1.00  0.00     0.010 A 
BRANCH  16  19
HETATM   19  O   UNL     1      45.804 -11.045   6.368  1.00  0.00    -0.348 OA
BRANCH  19  20
HETATM   20  C   UNL     1      46.015 -10.829   7.765  1.00  0.00     0.202 C 
BRANCH  20  21
HETATM   21  C   UNL     1      46.176  -9.352   7.969  1.00  0.00    -0.011 C 
HETATM   22  C   UNL     1      45.278  -8.567   8.578  1.00  0.00     0.009 C 
ENDBRANCH  20  21
ENDBRANCH  19  20
ENDBRANCH  16  19
ENDBRANCH   1  13
BRANCH   7  23
HETATM   23  C   UNL     1      42.606 -16.378   3.310  1.00  0.00    -0.005 A 
HETATM   24  C   UNL     1      43.144 -17.323   2.427  1.00  0.00     0.014 A 
HETATM   25  C   UNL     1      43.956 -18.356   2.900  1.00  0.00     0.001 A 
HETATM   26  C   UNL     1      44.235 -18.454   4.262  1.00  0.00     0.000 A 
HETATM   27  C   UNL     1      43.694 -17.528   5.152  1.00  0.00     0.001 A 
HETATM   28  C   UNL     1      42.878 -16.497   4.678  1.00  0.00     0.014 A 
ENDBRANCH   7  23
TORSDOF 5
ENDMDL
MODEL 3
REMARK VINA RESULT:      -8.0      2.915      6.421
REMARK  5 active torsions:
REMARK  status: ('A' for Active; 'I' for Inactive)
REMARK    1  A    between atoms: C_2  and  C_3 
REMARK    2  A    between atoms: C_3  and  O_4 
REMARK    3  A    between atoms: O_4  and  C_5 
REMARK    4  A    between atoms: C_8  and  C_9 
REMARK    5  A    between atoms: C_15  and  C_16 
ROOT
HETATM    1  C   UNL     1      40.286 -12.715   2.184  1.00  0.00     0.066 C 
HETATM    2  C   UNL     1      40.723 -11.755   1.136  1.00  0.00     0.028 A 
HETATM    3  C   UNL     1      41.540 -10.687   1.404  1.00  0.00     0.133 A 
HETATM    4  N   UNL     1      41.780 -10.059   0.224  1.00  0.00    -0.261 N 
HETATM    5  H   UNL     1      42.351  -9.242   0.035  1.00  0.00     0.191 HD
HETATM    6  N   UNL     1      41.143 -10.635  -0.805  1.00  0.00    -0.172 NA
HETATM    7  C   UNL     1      40.479 -11.676  -0.269  1.00  0.00     0.098 A 
HETATM    8  N   UNL     1      42.013 -10.413   2.662  1.00  0.00    -0.312 N 
HETATM    9  C   UNL     1      41.548 -11.180   3.777  1.00  0.00     0.224 C 
HETATM   10  O   UNL     1      42.075 -10.931   4.850  1.00  0.00    -0.273 OA
HETATM   11  C   UNL     1      40.376 -12.110   3.589  1.00  0.00     0.117 C 
HETATM   12  H   UNL     1      42.706  -9.696   2.843  1.00  0.00     0.170 HD
ENDROOT
BRANCH   1  13
HETATM   13  C   UNL     1      41.132 -13.969   2.032  1.00  0.00    -0.049 A 
HETATM   14  C   UNL     1      42.520 -13.943   1.811  1.00  0.00     0.010 A 
HETATM   15  C   UNL     1      43.261 -15.126   1.783  1.00  0.00     0.037 A 
HETATM   16  C   UNL     1      42.641 -16.354   1.997  1.00  0.00     0.069 A 
HETATM   17  C   UNL     1      41.260 -16.407   2.162  1.00  0.00     0.037 A 
HETATM   18  C   UNL     1      40.514 -15.224   2.184  1.00  0.00     0.010 A 
BRANCH  16  19
HETATM   19  O   UNL     1      43.467 -17.442   2.003  1.00  0.00    -0.348 OA
BRANCH  19  20
HETATM   20  C   UNL     1      43.580 -18.100   3.267  1.00  0.00     0.202 C 
BRANCH  20  21
HETATM   21  C   UNL     1      43.798 -19.558   2.993  1.00  0.00    -0.011 C 
HETATM   22  C   UNL     1      43.304 -20.215   1.936  1.00  0.00     0.009 C 
ENDBRANCH  20  21
ENDBRANCH  19  20
ENDBRANCH  16  19
ENDBRANCH   1  13
BRANCH   7  23
HETATM   23  C   UNL     1      39.673 -12.554  -1.114  1.00  0.00    -0.005 A 
HETATM   24  C   UNL     1      38.354 -12.198  -1.428  1.00  0.00     0.014 A 
HETATM   25  C   UNL     1      37.567 -13.024  -2.233  1.00  0.00     0.001 A 
HETATM   26  C   UNL     1      38.091 -14.216  -2.729  1.00  0.00     0.000 A 
HETATM   27  C   UNL     1      39.397 -14.588  -2.413  1.00  0.00     0.001 A 
HETATM   28  C   UNL     1      40.183 -13.763  -1.603  1.00  0.00     0.014 A 
ENDBRANCH   7  23
TORSDOF 5
ENDMDL
MODEL 4
REMARK VINA RESULT:      -7.9      2.581      6.224
REMARK  5 active torsions:
REMARK  status: ('A' for Active; 'I' for Inactive)
REMARK    1  A    between atoms: C_2  and  C_3 
REMARK    2  A    between atoms: C_3  and  O_4 
REMARK    3  A    between atoms: O_4  and  C_5 
REMARK    4  A    between atoms: C_8  and  C_9 
REMARK    5  A    between atoms: C_15  and  C_16 
ROOT
HETATM    1  C   UNL     1      42.113 -13.702   2.071  1.00  0.00     0.066 C 
HETATM    2  C   UNL     1      41.139 -13.217   3.083  1.00  0.00     0.028 A 
HETATM    3  C   UNL     1      39.783 -13.227   2.871  1.00  0.00     0.133 A 
HETATM    4  N   UNL     1      39.197 -12.771   4.008  1.00  0.00    -0.261 N 
HETATM    5  H   UNL     1      38.211 -12.656   4.220  1.00  0.00     0.191 HD
HETATM    6  N   UNL     1      40.089 -12.433   4.949  1.00  0.00    -0.172 NA
HETATM    7  C   UNL     1      41.291 -12.690   4.401  1.00  0.00     0.098 A 
HETATM    8  N   UNL     1      39.219 -13.677   1.705  1.00  0.00    -0.312 N 
HETATM    9  C   UNL     1      40.058 -14.035   0.603  1.00  0.00     0.224 C 
HETATM   10  O   UNL     1      39.488 -14.501  -0.370  1.00  0.00    -0.273 OA
HETATM   11  C   UNL     1      41.525 -13.688   0.656  1.00  0.00     0.117 C 
HETATM   12  H   UNL     1      38.219 -13.792   1.589  1.00  0.00     0.170 HD
ENDROOT
BRANCH   1  13
HETATM   13  C   UNL     1      42.564 -15.090   2.503  1.00  0.00    -0.049 A 
HETATM   14  C   UNL     1      42.956 -16.091   1.598  1.00  0.00     0.010 A 
HETATM   15  C   UNL     1      43.459 -17.310   2.057  1.00  0.00     0.037 A 
HETATM   16  C   UNL     1      43.603 -17.547   3.420  1.00  0.00     0.069 A 
HETATM   17  C   UNL     1      43.169 -16.592   4.334  1.00  0.00     0.037 A 
HETATM   18  C   UNL     1      42.659 -15.371   3.878  1.00  0.00     0.010 A 
BRANCH  16  19
HETATM   19  O   UNL     1      44.156 -18.750   3.758  1.00  0.00    -0.348 OA
BRANCH  19  20
HETATM   20  C   UNL     1      44.097 -19.066   5.151  1.00  0.00     0.202 C 
BRANCH  20  21
HETATM   21  C   UNL     1      44.081 -20.561   5.269  1.00  0.00    -0.011 C 
HETATM   22  C   UNL     1      43.844 -21.401   4.254  1.00  0.00     0.009 C 
ENDBRANCH  20  21
ENDBRANCH  19  20
ENDBRANCH  16  19
ENDBRANCH   1  13
BRANCH   7  23
HETATM   23  C   UNL     1      42.516 -12.451   5.161  1.00  0.00    -0.005 A 
HETATM   24  C   UNL     1      42.682 -13.046   6.419  1.00  0.00     0.014 A 
HETATM   25  C   UNL     1      43.845 -12.828   7.161  1.00  0.00     0.001 A 
HETATM   26  C   UNL     1      44.852 -12.010   6.652  1.00  0.00     0.000 A 
HETATM   27  C   UNL     1      44.693 -11.401   5.408  1.00  0.00     0.001 A 
HETATM   28  C   UNL     1      43.527 -11.616   4.668  1.00  0.00     0.014 A 
ENDBRANCH   7  23
TORSDOF 5
ENDMDL
MODEL 5
REMARK VINA RESULT:      -7.8      7.152     11.103
REMARK  5 active torsions:
REMARK  status: ('A' for Active; 'I' for Inactive)
REMARK    1  A    between atoms: C_2  and  C_3 
REMARK    2  A    between atoms: C_3  and  O_4 
REMARK    3  A    between atoms: O_4  and  C_5 
REMARK    4  A    between atoms: C_8  and  C_9 
REMARK    5  A    between atoms: C_15  and  C_16 
ROOT
HETATM    1  C   UNL     1      40.270  -8.301  10.536  1.00  0.00     0.066 C 
HETATM    2  C   UNL     1      39.850  -9.271  11.580  1.00  0.00     0.028 A 
HETATM    3  C   UNL     1      39.197 -10.441  11.286  1.00  0.00     0.133 A 
HETATM    4  N   UNL     1      39.014 -11.104  12.457  1.00  0.00    -0.261 N 
HETATM    5  H   UNL     1      38.581 -12.006  12.623  1.00  0.00     0.191 HD
HETATM    6  N   UNL     1      39.484 -10.425  13.513  1.00  0.00    -0.172 NA
HETATM    7  C   UNL     1      39.996  -9.291  13.001  1.00  0.00     0.098 A 
HETATM    8  N   UNL     1      38.872 -10.805  10.004  1.00  0.00    -0.312 N 
HETATM    9  C   UNL     1      39.095  -9.889   8.928  1.00  0.00     0.224 C 
HETATM   10  O   UNL     1      38.856 -10.315   7.809  1.00  0.00    -0.273 OA
HETATM   11  C   UNL     1      39.459  -8.460   9.246  1.00  0.00     0.117 C 
HETATM   12  H   UNL     1      38.493 -11.716   9.773  1.00  0.00     0.170 HD
ENDROOT
BRANCH   1  13
HETATM   13  C   UNL     1      41.764  -8.490  10.315  1.00  0.00    -0.049 A 
HETATM   14  C   UNL     1      42.497  -9.553  10.869  1.00  0.00     0.010 A 
HETATM   15  C   UNL     1      43.844  -9.734  10.547  1.00  0.00     0.037 A 
HETATM   16  C   UNL     1      44.479  -8.877   9.653  1.00  0.00     0.069 A 
HETATM   17  C   UNL     1      43.787  -7.786   9.137  1.00  0.00     0.037 A 
HETATM   18  C   UNL     1      42.439  -7.598   9.461  1.00  0.00     0.010 A 
BRANCH  16  19
HETATM   19  O   UNL     1      45.781  -9.177   9.367  1.00  0.00    -0.348 OA
BRANCH  19  20
HETATM   20  C   UNL     1      46.088  -9.240   7.972  1.00  0.00     0.202 C 
BRANCH  20  21
HETATM   21  C   UNL     1      46.190 -10.690   7.604  1.00  0.00    -0.011 C 
HETATM   22  C   UNL     1      45.261 -11.367   6.916  1.00  0.00     0.009 C 
ENDBRANCH  20  21
ENDBRANCH  19  20
ENDBRANCH  16  19
ENDBRANCH   1  13
BRANCH   7  23
HETATM   23  C   UNL     1      40.617  -8.299  13.876  1.00  0.00    -0.005 A 
HETATM   24  C   UNL     1      41.825  -8.601  14.521  1.00  0.00     0.014 A 
HETATM   25  C   UNL     1      42.434  -7.667  15.362  1.00  0.00     0.001 A 
HETATM   26  C   UNL     1      41.839  -6.424  15.569  1.00  0.00     0.000 A 
HETATM   27  C   UNL     1      40.631  -6.117  14.944  1.00  0.00     0.001 A 
HETATM   28  C   UNL     1      40.019  -7.054  14.105  1.00  0.00     0.014 A 
ENDBRANCH   7  23
TORSDOF 5
ENDMDL
MODEL 6
REMARK VINA RESULT:      -7.8      2.469      5.700
REMARK  5 active torsions:
REMARK  status: ('A' for Active; 'I' for Inactive)
REMARK    1  A    between atoms: C_2  and  C_3 
REMARK    2  A    between atoms: C_3  and  O_4 
REMARK    3  A    between atoms: O_4  and  C_5 
REMARK    4  A    between atoms: C_8  and  C_9 
REMARK    5  A    between atoms: C_15  and  C_16 
ROOT
HETATM    1  C   UNL     1      41.430 -14.882   5.357  1.00  0.00     0.066 C 
HETATM    2  C   UNL     1      42.193 -13.651   5.025  1.00  0.00     0.028 A 
HETATM    3  C   UNL     1      43.188 -13.155   5.828  1.00  0.00     0.133 A 
HETATM    4  N   UNL     1      43.702 -12.065   5.204  1.00  0.00    -0.261 N 
HETATM    5  H   UNL     1      44.459 -11.455   5.496  1.00  0.00     0.191 HD
HETATM    6  N   UNL     1      43.083 -11.793   4.047  1.00  0.00    -0.172 NA
HETATM    7  C   UNL     1      42.145 -12.749   3.918  1.00  0.00     0.098 A 
HETATM    8  N   UNL     1      43.554 -13.753   7.008  1.00  0.00    -0.312 N 
HETATM    9  C   UNL     1      42.799 -14.861   7.505  1.00  0.00     0.224 C 
HETATM   10  O   UNL     1      43.233 -15.389   8.517  1.00  0.00    -0.273 OA
HETATM   11  C   UNL     1      41.481 -15.201   6.855  1.00  0.00     0.117 C 
HETATM   12  H   UNL     1      44.361 -13.457   7.544  1.00  0.00     0.170 HD
ENDROOT
BRANCH   1  13
HETATM   13  C   UNL     1      41.989 -16.008   4.500  1.00  0.00    -0.049 A 
HETATM   14  C   UNL     1      41.415 -16.408   3.282  1.00  0.00     0.010 A 
HETATM   15  C   UNL     1      42.032 -17.378   2.487  1.00  0.00     0.037 A 
HETATM   16  C   UNL     1      43.239 -17.949   2.878  1.00  0.00     0.069 A 
HETATM   17  C   UNL     1      43.796 -17.608   4.107  1.00  0.00     0.037 A 
HETATM   18  C   UNL     1      43.178 -16.641   4.908  1.00  0.00     0.010 A 
BRANCH  16  19
HETATM   19  O   UNL     1      43.782 -18.845   2.001  1.00  0.00    -0.348 OA
BRANCH  19  20
HETATM   20  C   UNL     1      43.199 -20.149   2.041  1.00  0.00     0.202 C 
BRANCH  20  21
HETATM   21  C   UNL     1      44.047 -20.989   2.949  1.00  0.00    -0.011 C 
HETATM   22  C   UNL     1      43.836 -21.139   4.263  1.00  0.00     0.009 C 
ENDBRANCH  20  21
ENDBRANCH  19  20
ENDBRANCH  16  19
ENDBRANCH   1  13
BRANCH   7  23
HETATM   23  C   UNL     1      41.273 -12.777   2.746  1.00  0.00    -0.005 A 
HETATM   24  C   UNL     1      41.758 -13.277   1.530  1.00  0.00     0.014 A 
HETATM   25  C   UNL     1      40.941 -13.310   0.398  1.00  0.00     0.001 A 
HETATM   26  C   UNL     1      39.631 -12.840   0.471  1.00  0.00     0.000 A 
HETATM   27  C   UNL     1      39.141 -12.327   1.672  1.00  0.00     0.001 A 
HETATM   28  C   UNL     1      39.961 -12.290   2.803  1.00  0.00     0.014 A 
ENDBRANCH   7  23
TORSDOF 5
ENDMDL
MODEL 7
REMARK VINA RESULT:      -7.6      2.491      5.812
REMARK  5 active torsions:
REMARK  status: ('A' for Active; 'I' for Inactive)
REMARK    1  A    between atoms: C_2  and  C_3 
REMARK    2  A    between atoms: C_3  and  O_4 
REMARK    3  A    between atoms: O_4  and  C_5 
REMARK    4  A    between atoms: C_8  and  C_9 
REMARK    5  A    between atoms: C_15  and  C_16 
ROOT
HETATM    1  C   UNL     1      40.737 -14.554   3.367  1.00  0.00     0.066 C 
HETATM    2  C   UNL     1      41.875 -15.233   2.693  1.00  0.00     0.028 A 
HETATM    3  C   UNL     1      42.110 -15.124   1.346  1.00  0.00     0.133 A 
HETATM    4  N   UNL     1      43.247 -15.818   1.080  1.00  0.00    -0.261 N 
HETATM    5  H   UNL     1      43.729 -15.945   0.197  1.00  0.00     0.191 HD
HETATM    6  N   UNL     1      43.761 -16.404   2.170  1.00  0.00    -0.172 NA
HETATM    7  C   UNL     1      42.930 -16.065   3.174  1.00  0.00     0.098 A 
HETATM    8  N   UNL     1      41.309 -14.387   0.511  1.00  0.00    -0.312 N 
HETATM    9  C   UNL     1      40.103 -13.806   1.016  1.00  0.00     0.224 C 
HETATM   10  O   UNL     1      39.486 -13.099   0.235  1.00  0.00    -0.273 OA
HETATM   11  C   UNL     1      39.613 -14.207   2.385  1.00  0.00     0.117 C 
HETATM   12  H   UNL     1      41.543 -14.212  -0.459  1.00  0.00     0.170 HD
ENDROOT
BRANCH   1  13
HETATM   13  C   UNL     1      41.294 -13.328   4.074  1.00  0.00    -0.049 A 
HETATM   14  C   UNL     1      40.836 -12.884   5.326  1.00  0.00     0.010 A 
HETATM   15  C   UNL     1      41.455 -11.814   5.975  1.00  0.00     0.037 A 
HETATM   16  C   UNL     1      42.555 -11.181   5.402  1.00  0.00     0.069 A 
HETATM   17  C   UNL     1      42.990 -11.567   4.138  1.00  0.00     0.037 A 
HETATM   18  C   UNL     1      42.368 -12.636   3.483  1.00  0.00     0.010 A 
BRANCH  16  19
HETATM   19  O   UNL     1      43.118 -10.182   6.146  1.00  0.00    -0.348 OA
BRANCH  19  20
HETATM   20  C   UNL     1      43.675 -10.606   7.392  1.00  0.00     0.202 C 
BRANCH  20  21
HETATM   21  C   UNL     1      45.053 -11.127   7.112  1.00  0.00    -0.011 C 
HETATM   22  C   UNL     1      46.177 -10.623   7.635  1.00  0.00     0.009 C 
ENDBRANCH  20  21
ENDBRANCH  19  20
ENDBRANCH  16  19
ENDBRANCH   1  13
BRANCH   7  23
HETATM   23  C   UNL     1      43.193 -16.524   4.537  1.00  0.00    -0.005 A 
HETATM   24  C   UNL     1      43.470 -15.589   5.544  1.00  0.00     0.014 A 
HETATM   25  C   UNL     1      43.724 -16.008   6.851  1.00  0.00     0.001 A 
HETATM   26  C   UNL     1      43.707 -17.366   7.164  1.00  0.00     0.000 A 
HETATM   27  C   UNL     1      43.446 -18.306   6.168  1.00  0.00     0.001 A 
HETATM   28  C   UNL     1      43.195 -17.887   4.858  1.00  0.00     0.014 A 
ENDBRANCH   7  23
TORSDOF 5
ENDMDL
MODEL 8
REMARK VINA RESULT:      -7.5      5.451      8.229
REMARK  5 active torsions:
REMARK  status: ('A' for Active; 'I' for Inactive)
REMARK    1  A    between atoms: C_2  and  C_3 
REMARK    2  A    between atoms: C_3  and  O_4 
REMARK    3  A    between atoms: O_4  and  C_5 
REMARK    4  A    between atoms: C_8  and  C_9 
REMARK    5  A    between atoms: C_15  and  C_16 
ROOT
HETATM    1  C   UNL     1      42.129  -8.438  10.652  1.00  0.00     0.066 C 
HETATM    2  C   UNL     1      42.806  -9.637  11.213  1.00  0.00     0.028 A 
HETATM    3  C   UNL     1      42.475 -10.172  12.432  1.00  0.00     0.133 A 
HETATM    4  N   UNL     1      43.244 -11.278  12.606  1.00  0.00    -0.261 N 
HETATM    5  H   UNL     1      43.262 -11.932  13.381  1.00  0.00     0.191 HD
HETATM    6  N   UNL     1      44.086 -11.488  11.584  1.00  0.00    -0.172 NA
HETATM    7  C   UNL     1      43.841 -10.487  10.718  1.00  0.00     0.098 A 
HETATM    8  N   UNL     1      41.499  -9.639  13.234  1.00  0.00    -0.312 N 
HETATM    9  C   UNL     1      40.876  -8.404  12.869  1.00  0.00     0.224 C 
HETATM   10  O   UNL     1      39.962  -8.036  13.590  1.00  0.00    -0.273 OA
HETATM   11  C   UNL     1      41.464  -7.592  11.742  1.00  0.00     0.117 C 
HETATM   12  H   UNL     1      41.174 -10.096  14.079  1.00  0.00     0.170 HD
ENDROOT
BRANCH   1  13
HETATM   13  C   UNL     1      41.139  -8.925   9.604  1.00  0.00    -0.049 A 
HETATM   14  C   UNL     1      41.417  -8.937   8.226  1.00  0.00     0.010 A 
HETATM   15  C   UNL     1      40.510  -9.491   7.321  1.00  0.00     0.037 A 
HETATM   16  C   UNL     1      39.323 -10.064   7.769  1.00  0.00     0.069 A 
HETATM   17  C   UNL     1      39.003 -10.012   9.122  1.00  0.00     0.037 A 
HETATM   18  C   UNL     1      39.907  -9.453  10.032  1.00  0.00     0.010 A 
BRANCH  16  19
HETATM   19  O   UNL     1      38.535 -10.626   6.805  1.00  0.00    -0.348 OA
BRANCH  19  20
HETATM   20  C   UNL     1      39.218 -10.966   5.596  1.00  0.00     0.202 C 
BRANCH  20  21
HETATM   21  C   UNL     1      39.287 -12.462   5.529  1.00  0.00    -0.011 C 
HETATM   22  C   UNL     1      40.278 -13.201   6.044  1.00  0.00     0.009 C 
ENDBRANCH  20  21
ENDBRANCH  19  20
ENDBRANCH  16  19
ENDBRANCH   1  13
BRANCH   7  23
HETATM   23  C   UNL     1      44.579 -10.402   9.459  1.00  0.00    -0.005 A 
HETATM   24  C   UNL     1      44.278 -11.288   8.416  1.00  0.00     0.014 A 
HETATM   25  C   UNL     1      44.972 -11.224   7.206  1.00  0.00     0.001 A 
HETATM   26  C   UNL     1      45.977 -10.274   7.030  1.00  0.00     0.000 A 
HETATM   27  C   UNL     1      46.295  -9.397   8.065  1.00  0.00     0.001 A 
HETATM   28  C   UNL     1      45.603  -9.464   9.277  1.00  0.00     0.014 A 
ENDBRANCH   7  23
TORSDOF 5
ENDMDL
MODEL 9
REMARK VINA RESULT:      -7.1      3.268      6.858
REMARK  5 active torsions:
REMARK  status: ('A' for Active; 'I' for Inactive)
REMARK    1  A    between atoms: C_2  and  C_3 
REMARK    2  A    between atoms: C_3  and  O_4 
REMARK    3  A    between atoms: O_4  and  C_5 
REMARK    4  A    between atoms: C_8  and  C_9 
REMARK    5  A    between atoms: C_15  and  C_16 
ROOT
HETATM    1  C   UNL     1      40.979 -12.597   0.584  1.00  0.00     0.066 C 
HETATM    2  C   UNL     1      39.676 -12.048   1.043  1.00  0.00     0.028 A 
HETATM    3  C   UNL     1      38.500 -12.273   0.374  1.00  0.00     0.133 A 
HETATM    4  N   UNL     1      37.511 -11.679   1.090  1.00  0.00    -0.261 N 
HETATM    5  H   UNL     1      36.514 -11.650   0.906  1.00  0.00     0.191 HD
HETATM    6  N   UNL     1      37.971 -11.047   2.179  1.00  0.00    -0.172 NA
HETATM    7  C   UNL     1      39.301 -11.253   2.169  1.00  0.00     0.098 A 
HETATM    8  N   UNL     1      38.434 -13.016  -0.777  1.00  0.00    -0.312 N 
HETATM    9  C   UNL     1      39.639 -13.477  -1.395  1.00  0.00     0.224 C 
HETATM   10  O   UNL     1      39.495 -14.198  -2.369  1.00  0.00    -0.273 OA
HETATM   11  C   UNL     1      40.963 -12.942  -0.908  1.00  0.00     0.117 C 
HETATM   12  H   UNL     1      37.556 -13.279  -1.209  1.00  0.00     0.170 HD
ENDROOT
BRANCH   1  13
HETATM   13  C   UNL     1      41.298 -13.801   1.459  1.00  0.00    -0.049 A 
HETATM   14  C   UNL     1      40.379 -14.831   1.719  1.00  0.00     0.010 A 
HETATM   15  C   UNL     1      40.761 -15.962   2.443  1.00  0.00     0.037 A 
HETATM   16  C   UNL     1      42.068 -16.100   2.903  1.00  0.00     0.069 A 
HETATM   17  C   UNL     1      42.979 -15.066   2.705  1.00  0.00     0.037 A 
HETATM   18  C   UNL     1      42.598 -13.929   1.984  1.00  0.00     0.010 A 
BRANCH  16  19
HETATM   19  O   UNL     1      42.349 -17.268   3.552  1.00  0.00    -0.348 OA
BRANCH  19  20
HETATM   20  C   UNL     1      43.524 -17.940   3.094  1.00  0.00     0.202 C 
BRANCH  20  21
HETATM   21  C   UNL     1      43.087 -18.979   2.105  1.00  0.00    -0.011 C 
HETATM   22  C   UNL     1      43.476 -20.260   2.126  1.00  0.00     0.009 C 
ENDBRANCH  20  21
ENDBRANCH  19  20
ENDBRANCH  16  19
ENDBRANCH   1  13
BRANCH   7  23
HETATM   23  C   UNL     1      40.142 -10.711   3.234  1.00  0.00    -0.005 A 
HETATM   24  C   UNL     1      40.529  -9.365   3.198  1.00  0.00     0.014 A 
HETATM   25  C   UNL     1      41.333  -8.829   4.206  1.00  0.00     0.001 A 
HETATM   26  C   UNL     1      41.760  -9.636   5.259  1.00  0.00     0.000 A 
HETATM   27  C   UNL     1      41.393 -10.980   5.299  1.00  0.00     0.001 A 
HETATM   28  C   UNL     1      40.591 -11.518   4.288  1.00  0.00     0.014 A 
ENDBRANCH   7  23
TORSDOF 5
ENDMDL
MODEL 10
REMARK VINA RESULT:      -7.1     15.328     17.551
REMARK  5 active torsions:
REMARK  status: ('A' for Active; 'I' for Inactive)
REMARK    1  A    between atoms: C_2  and  C_3 
REMARK    2  A    between atoms: C_3  and  O_4 
REMARK    3  A    between atoms: O_4  and  C_5 
REMARK    4  A    between atoms: C_8  and  C_9 
REMARK    5  A    between atoms: C_15  and  C_16 
ROOT
HETATM    1  C   UNL     1      44.912 -31.602   1.237  1.00  0.00     0.066 C 
HETATM    2  C   UNL     1      43.813 -30.602   1.211  1.00  0.00     0.028 A 
HETATM    3  C   UNL     1      42.845 -30.539   2.181  1.00  0.00     0.133 A 
HETATM    4  N   UNL     1      42.041 -29.487   1.879  1.00  0.00    -0.261 N 
HETATM    5  H   UNL     1      41.233 -29.132   2.378  1.00  0.00     0.191 HD
HETATM    6  N   UNL     1      42.405 -28.869   0.746  1.00  0.00    -0.172 NA
HETATM    7  C   UNL     1      43.488 -29.540   0.313  1.00  0.00     0.098 A 
HETATM    8  N   UNL     1      42.810 -31.400   3.248  1.00  0.00    -0.312 N 
HETATM    9  C   UNL     1      43.728 -32.495   3.308  1.00  0.00     0.224 C 
HETATM   10  O   UNL     1      43.688 -33.168   4.325  1.00  0.00    -0.273 OA
HETATM   11  C   UNL     1      44.556 -32.823   2.090  1.00  0.00     0.117 C 
HETATM   12  H   UNL     1      42.167 -31.286   4.023  1.00  0.00     0.170 HD
ENDROOT
BRANCH   1  13
HETATM   13  C   UNL     1      46.163 -30.889   1.729  1.00  0.00    -0.049 A 
HETATM   14  C   UNL     1      46.220 -30.175   2.937  1.00  0.00     0.010 A 
HETATM   15  C   UNL     1      47.424 -29.629   3.387  1.00  0.00     0.037 A 
HETATM   16  C   UNL     1      48.596 -29.802   2.657  1.00  0.00     0.069 A 
HETATM   17  C   UNL     1      48.551 -30.457   1.430  1.00  0.00     0.037 A 
HETATM   18  C   UNL     1      47.346 -31.001   0.973  1.00  0.00     0.010 A 
BRANCH  16  19
HETATM   19  O   UNL     1      49.726 -29.274   3.214  1.00  0.00    -0.348 OA
BRANCH  19  20
HETATM   20  C   UNL     1      50.802 -30.201   3.378  1.00  0.00     0.202 C 
BRANCH  20  21
HETATM   21  C   UNL     1      50.667 -30.804   4.745  1.00  0.00    -0.011 C 
HETATM   22  C   UNL     1      51.697 -31.161   5.523  1.00  0.00     0.009 C 
ENDBRANCH  20  21
ENDBRANCH  19  20
ENDBRANCH  16  19
ENDBRANCH   1  13
BRANCH   7  23
HETATM   23  C   UNL     1      44.172 -29.128  -0.911  1.00  0.00    -0.005 A 
HETATM   24  C   UNL     1      43.713 -29.587  -2.153  1.00  0.00     0.014 A 
HETATM   25  C   UNL     1      44.354 -29.206  -3.333  1.00  0.00     0.001 A 
HETATM   26  C   UNL     1      45.463 -28.365  -3.283  1.00  0.00     0.000 A 
HETATM   27  C   UNL     1      45.938 -27.912  -2.053  1.00  0.00     0.001 A 
HETATM   28  C   UNL     1      45.299 -28.297  -0.871  1.00  0.00     0.014 A 
ENDBRANCH   7  23
TORSDOF 5
ENDMDL
