MODEL 1
REMARK VINA RESULT:      -8.5      0.000      0.000
REMARK  9 active torsions:
REMARK  status: ('A' for Active; 'I' for Inactive)
REMARK    1  A    between atoms: C_4  and  C_5 
REMARK    2  A    between atoms: C_8  and  C_9 
REMARK       I    between atoms: C_9  and  N_10 
REMARK    3  A    between atoms: N_10  and  C_26 
REMARK    4  A    between atoms: N_10  and  C_11 
REMARK    5  A    between atoms: C_11  and  C_12 
REMARK    6  A    between atoms: C_11  and  C_21 
REMARK       I    between atoms: C_12  and  N_13 
REMARK    7  A    between atoms: N_13  and  C_14 
REMARK    8  A    between atoms: C_14  and  C_15 
REMARK    9  A    between atoms: C_26  and  C_27 
ROOT
HETATM    1  C   UNL     1      41.559 -14.283   6.063  1.00  0.00     0.271 C 
HETATM    2  N   UNL     1      41.766 -13.002   5.539  1.00  0.00    -0.324 N 
HETATM    3  O   UNL     1      40.518 -14.547   6.665  1.00  0.00    -0.266 OA
ENDROOT
BRANCH   2   4
HETATM    4  C   UNL     1      40.917 -11.933   6.087  1.00  0.00     0.173 C 
BRANCH   4   5
HETATM    5  C   UNL     1      40.050 -11.298   5.046  1.00  0.00     0.000 A 
HETATM    6  S   UNL     1      40.024  -9.593   4.854  1.00  0.00    -0.105 SA
HETATM    7  C   UNL     1      38.893  -9.689   3.576  1.00  0.00     0.050 A 
HETATM    8  C   UNL     1      38.509 -10.986   3.323  1.00  0.00     0.008 A 
HETATM    9  C   UNL     1      39.165 -11.914   4.182  1.00  0.00     0.017 A 
ENDBRANCH   4   5
ENDBRANCH   2   4
BRANCH   2  10
HETATM   10  C   UNL     1      42.848 -12.654   4.582  1.00  0.00     0.220 C 
BRANCH  10  11
HETATM   11  C   UNL     1      43.699 -11.514   5.178  1.00  0.00     0.245 C 
HETATM   12  N   UNL     1      44.719 -11.880   6.035  1.00  0.00    -0.357 N 
HETATM   13  H   UNL     1      44.692 -12.814   6.432  1.00  0.00     0.162 HD
HETATM   14  O   UNL     1      43.583 -10.368   4.731  1.00  0.00    -0.271 OA
BRANCH  12  15
HETATM   15  C   UNL     1      45.628 -10.915   6.629  1.00  0.00     0.154 C 
BRANCH  15  16
HETATM   16  C   UNL     1      45.520 -10.877   8.164  1.00  0.00     0.139 C 
HETATM   17  O   UNL     1      44.180 -11.197   8.576  1.00  0.00    -0.384 OA
HETATM   18  C   UNL     1      43.483  -9.979   8.876  1.00  0.00     0.168 C 
HETATM   19  C   UNL     1      44.436  -8.829   8.624  1.00  0.00     0.029 C 
HETATM   20  C   UNL     1      45.789  -9.490   8.726  1.00  0.00     0.035 C 
ENDBRANCH  15  16
ENDBRANCH  12  15
ENDBRANCH  10  11
BRANCH  10  21
HETATM   21  C   UNL     1      42.373 -12.542   3.147  1.00  0.00     0.014 A 
HETATM   22  S   UNL     1      41.683 -13.863   2.288  1.00  0.00    -0.104 SA
HETATM   23  C   UNL     1      41.329 -12.901   0.925  1.00  0.00     0.050 A 
HETATM   24  C   UNL     1      41.674 -11.585   1.121  1.00  0.00     0.008 A 
HETATM   25  C   UNL     1      42.249 -11.375   2.405  1.00  0.00     0.017 A 
ENDBRANCH  10  21
ENDBRANCH   2  10
BRANCH   1  26
HETATM   26  C   UNL     1      42.565 -15.309   5.872  1.00  0.00     0.101 C 
HETATM   27  N   UNL     1      42.579 -16.285   4.894  1.00  0.00    -0.351 N 
HETATM   28  C   UNL     1      43.612 -17.172   5.114  1.00  0.00     0.043 C 
HETATM   29  H   UNL     1      41.878 -16.391   4.167  1.00  0.00     0.166 HD
HETATM   30  C   UNL     1      44.412 -16.602   6.089  1.00  0.00     0.033 C 
HETATM   31  C   UNL     1      43.767 -15.431   6.548  1.00  0.00     0.037 C 
BRANCH  28  32
HETATM   32  C   UNL     1      43.748 -18.443   4.401  1.00  0.00    -0.009 A 
HETATM   33  C   UNL     1      44.001 -19.629   5.102  1.00  0.00     0.013 A 
HETATM   34  C   UNL     1      44.066 -20.853   4.432  1.00  0.00     0.001 A 
HETATM   35  C   UNL     1      43.870 -20.906   3.053  1.00  0.00     0.000 A 
HETATM   36  C   UNL     1      43.620 -19.734   2.343  1.00  0.00     0.001 A 
HETATM   37  C   UNL     1      43.563 -18.508   3.012  1.00  0.00     0.013 A 
ENDBRANCH  28  32
ENDBRANCH   1  26
TORSDOF 9
ENDMDL
MODEL 2
REMARK VINA RESULT:      -8.3      1.313      1.808
REMARK  9 active torsions:
REMARK  status: ('A' for Active; 'I' for Inactive)
REMARK    1  A    between atoms: C_4  and  C_5 
REMARK    2  A    between atoms: C_8  and  C_9 
REMARK       I    between atoms: C_9  and  N_10 
REMARK    3  A    between atoms: N_10  and  C_26 
REMARK    4  A    between atoms: N_10  and  C_11 
REMARK    5  A    between atoms: C_11  and  C_12 
REMARK    6  A    between atoms: C_11  and  C_21 
REMARK       I    between atoms: C_12  and  N_13 
REMARK    7  A    between atoms: N_13  and  C_14 
REMARK    8  A    between atoms: C_14  and  C_15 
REMARK    9  A    between atoms: C_26  and  C_27 
ROOT
HETATM    1  C   UNL     1      40.628 -13.946   5.703  1.00  0.00     0.271 C 
HETATM    2  N   UNL     1      40.784 -13.056   4.634  1.00  0.00    -0.324 N 
HETATM    3  O   UNL     1      39.604 -13.922   6.387  1.00  0.00    -0.266 OA
ENDROOT
BRANCH   2   4
HETATM    4  C   UNL     1      39.906 -11.876   4.641  1.00  0.00     0.173 C 
BRANCH   4   5
HETATM    5  C   UNL     1      40.528 -10.703   5.331  1.00  0.00     0.000 A 
HETATM    6  S   UNL     1      40.890  -9.269   4.460  1.00  0.00    -0.105 SA
HETATM    7  C   UNL     1      41.511  -8.501   5.854  1.00  0.00     0.050 A 
HETATM    8  C   UNL     1      41.484  -9.327   6.954  1.00  0.00     0.008 A 
HETATM    9  C   UNL     1      40.931 -10.603   6.649  1.00  0.00     0.017 A 
ENDBRANCH   4   5
ENDBRANCH   2   4
BRANCH   2  10
HETATM   10  C   UNL     1      41.841 -13.172   3.596  1.00  0.00     0.220 C 
BRANCH  10  11
HETATM   11  C   UNL     1      42.949 -12.139   3.888  1.00  0.00     0.245 C 
HETATM   12  N   UNL     1      43.562 -12.215   5.123  1.00  0.00    -0.357 N 
HETATM   13  H   UNL     1      43.094 -12.744   5.853  1.00  0.00     0.162 HD
HETATM   14  O   UNL     1      43.381 -11.432   2.972  1.00  0.00    -0.271 OA
BRANCH  12  15
HETATM   15  C   UNL     1      44.652 -11.337   5.512  1.00  0.00     0.154 C 
BRANCH  15  16
HETATM   16  C   UNL     1      45.300 -11.762   6.842  1.00  0.00     0.139 C 
HETATM   17  O   UNL     1      44.295 -11.907   7.861  1.00  0.00    -0.384 OA
HETATM   18  C   UNL     1      44.289 -10.727   8.678  1.00  0.00     0.168 C 
HETATM   19  C   UNL     1      45.342  -9.784   8.132  1.00  0.00     0.029 C 
HETATM   20  C   UNL     1      46.261 -10.712   7.376  1.00  0.00     0.035 C 
ENDBRANCH  15  16
ENDBRANCH  12  15
ENDBRANCH  10  11
BRANCH  10  21
HETATM   21  C   UNL     1      41.294 -13.284   2.186  1.00  0.00     0.014 A 
HETATM   22  S   UNL     1      41.194 -14.779   1.342  1.00  0.00    -0.104 SA
HETATM   23  C   UNL     1      40.397 -14.070   0.011  1.00  0.00     0.050 A 
HETATM   24  C   UNL     1      40.156 -12.731   0.210  1.00  0.00     0.008 A 
HETATM   25  C   UNL     1      40.649 -12.287   1.468  1.00  0.00     0.017 A 
ENDBRANCH  10  21
ENDBRANCH   2  10
BRANCH   1  26
HETATM   26  C   UNL     1      41.666 -14.918   5.986  1.00  0.00     0.101 C 
HETATM   27  N   UNL     1      42.083 -15.950   5.167  1.00  0.00    -0.351 N 
HETATM   28  C   UNL     1      42.985 -16.756   5.830  1.00  0.00     0.043 C 
HETATM   29  H   UNL     1      41.714 -16.144   4.241  1.00  0.00     0.166 HD
HETATM   30  C   UNL     1      43.335 -16.079   6.984  1.00  0.00     0.033 C 
HETATM   31  C   UNL     1      42.525 -14.924   7.072  1.00  0.00     0.037 C 
BRANCH  28  32
HETATM   32  C   UNL     1      43.424 -18.057   5.325  1.00  0.00    -0.009 A 
HETATM   33  C   UNL     1      43.498 -19.164   6.179  1.00  0.00     0.013 A 
HETATM   34  C   UNL     1      43.854 -20.423   5.688  1.00  0.00     0.001 A 
HETATM   35  C   UNL     1      44.131 -20.589   4.332  1.00  0.00     0.000 A 
HETATM   36  C   UNL     1      44.063 -19.496   3.471  1.00  0.00     0.001 A 
HETATM   37  C   UNL     1      43.716 -18.236   3.965  1.00  0.00     0.013 A 
ENDBRANCH  28  32
ENDBRANCH   1  26
TORSDOF 9
ENDMDL
MODEL 3
REMARK VINA RESULT:      -8.2      1.981      4.770
REMARK  9 active torsions:
REMARK  status: ('A' for Active; 'I' for Inactive)
REMARK    1  A    between atoms: C_4  and  C_5 
REMARK    2  A    between atoms: C_8  and  C_9 
REMARK       I    between atoms: C_9  and  N_10 
REMARK    3  A    between atoms: N_10  and  C_26 
REMARK    4  A    between atoms: N_10  and  C_11 
REMARK    5  A    between atoms: C_11  and  C_12 
REMARK    6  A    between atoms: C_11  and  C_21 
REMARK       I    between atoms: C_12  and  N_13 
REMARK    7  A    between atoms: N_13  and  C_14 
REMARK    8  A    between atoms: C_14  and  C_15 
REMARK    9  A    between atoms: C_26  and  C_27 
ROOT
HETATM    1  C   UNL     1      40.893 -13.028   5.973  1.00  0.00     0.271 C 
HETATM    2  N   UNL     1      41.162 -11.719   5.557  1.00  0.00    -0.324 N 
HETATM    3  O   UNL     1      39.775 -13.329   6.394  1.00  0.00    -0.266 OA
ENDROOT
BRANCH   2   4
HETATM    4  C   UNL     1      40.226 -10.686   6.025  1.00  0.00     0.173 C 
BRANCH   4   5
HETATM    5  C   UNL     1      39.606  -9.920   4.899  1.00  0.00     0.000 A 
HETATM    6  S   UNL     1      39.944  -8.250   4.690  1.00  0.00    -0.105 SA
HETATM    7  C   UNL     1      38.941  -8.154   3.309  1.00  0.00     0.050 A 
HETATM    8  C   UNL     1      38.327  -9.354   3.032  1.00  0.00     0.008 A 
HETATM    9  C   UNL     1      38.698 -10.370   3.959  1.00  0.00     0.017 A 
ENDBRANCH   4   5
ENDBRANCH   2   4
BRANCH   2  10
HETATM   10  C   UNL     1      42.372 -11.315   4.796  1.00  0.00     0.220 C 
BRANCH  10  11
HETATM   11  C   UNL     1      42.457 -12.154   3.504  1.00  0.00     0.245 C 
HETATM   12  N   UNL     1      41.416 -12.024   2.606  1.00  0.00    -0.357 N 
HETATM   13  H   UNL     1      40.550 -11.612   2.941  1.00  0.00     0.162 HD
HETATM   14  O   UNL     1      43.509 -12.738   3.225  1.00  0.00    -0.271 OA
BRANCH  12  15
HETATM   15  C   UNL     1      41.390 -12.716   1.330  1.00  0.00     0.154 C 
BRANCH  15  16
HETATM   16  C   UNL     1      40.026 -13.370   1.045  1.00  0.00     0.139 C 
HETATM   17  O   UNL     1      39.452 -13.872   2.265  1.00  0.00    -0.384 OA
HETATM   18  C   UNL     1      39.688 -15.285   2.342  1.00  0.00     0.168 C 
HETATM   19  C   UNL     1      40.466 -15.691   1.106  1.00  0.00     0.029 C 
HETATM   20  C   UNL     1      40.147 -14.581   0.134  1.00  0.00     0.035 C 
ENDBRANCH  15  16
ENDBRANCH  12  15
ENDBRANCH  10  11
BRANCH  10  21
HETATM   21  C   UNL     1      43.609 -11.170   5.660  1.00  0.00     0.014 A 
HETATM   22  S   UNL     1      43.544 -10.667   7.304  1.00  0.00    -0.104 SA
HETATM   23  C   UNL     1      45.218 -10.902   7.530  1.00  0.00     0.050 A 
HETATM   24  C   UNL     1      45.824 -11.403   6.401  1.00  0.00     0.008 A 
HETATM   25  C   UNL     1      44.896 -11.580   5.338  1.00  0.00     0.017 A 
ENDBRANCH  10  21
ENDBRANCH   2  10
BRANCH   1  26
HETATM   26  C   UNL     1      41.929 -14.038   5.883  1.00  0.00     0.101 C 
HETATM   27  N   UNL     1      42.162 -14.896   4.825  1.00  0.00    -0.351 N 
HETATM   28  C   UNL     1      43.135 -15.816   5.156  1.00  0.00     0.043 C 
HETATM   29  H   UNL     1      41.632 -14.909   3.959  1.00  0.00     0.166 HD
HETATM   30  C   UNL     1      43.703 -15.371   6.336  1.00  0.00     0.033 C 
HETATM   31  C   UNL     1      42.962 -14.252   6.780  1.00  0.00     0.037 C 
BRANCH  28  32
HETATM   32  C   UNL     1      43.434 -16.997   4.347  1.00  0.00    -0.009 A 
HETATM   33  C   UNL     1      44.109 -18.090   4.905  1.00  0.00     0.013 A 
HETATM   34  C   UNL     1      44.338 -19.247   4.156  1.00  0.00     0.001 A 
HETATM   35  C   UNL     1      43.887 -19.326   2.839  1.00  0.00     0.000 A 
HETATM   36  C   UNL     1      43.216 -18.246   2.270  1.00  0.00     0.001 A 
HETATM   37  C   UNL     1      42.994 -17.087   3.018  1.00  0.00     0.013 A 
ENDBRANCH  28  32
ENDBRANCH   1  26
TORSDOF 9
ENDMDL
MODEL 4
REMARK VINA RESULT:      -7.9      2.523      6.916
REMARK  9 active torsions:
REMARK  status: ('A' for Active; 'I' for Inactive)
REMARK    1  A    between atoms: C_4  and  C_5 
REMARK    2  A    between atoms: C_8  and  C_9 
REMARK       I    between atoms: C_9  and  N_10 
REMARK    3  A    between atoms: N_10  and  C_26 
REMARK    4  A    between atoms: N_10  and  C_11 
REMARK    5  A    between atoms: C_11  and  C_12 
REMARK    6  A    between atoms: C_11  and  C_21 
REMARK       I    between atoms: C_12  and  N_13 
REMARK    7  A    between atoms: N_13  and  C_14 
REMARK    8  A    between atoms: C_14  and  C_15 
REMARK    9  A    between atoms: C_26  and  C_27 
ROOT
HETATM    1  C   UNL     1      43.464 -13.644   6.536  1.00  0.00     0.271 C 
HETATM    2  N   UNL     1      42.284 -13.564   5.789  1.00  0.00    -0.324 N 
HETATM    3  O   UNL     1      44.021 -14.729   6.704  1.00  0.00    -0.266 OA
ENDROOT
BRANCH   2   4
HETATM    4  C   UNL     1      41.555 -14.827   5.592  1.00  0.00     0.173 C 
BRANCH   4   5
HETATM    5  C   UNL     1      41.839 -15.451   4.262  1.00  0.00     0.000 A 
HETATM    6  S   UNL     1      40.553 -15.901   3.218  1.00  0.00    -0.105 SA
HETATM    7  C   UNL     1      41.635 -16.478   2.027  1.00  0.00     0.050 A 
HETATM    8  C   UNL     1      42.947 -16.370   2.427  1.00  0.00     0.008 A 
HETATM    9  C   UNL     1      43.065 -15.792   3.724  1.00  0.00     0.017 A 
ENDBRANCH   4   5
ENDBRANCH   2   4
BRANCH   2  10
HETATM   10  C   UNL     1      41.683 -12.293   5.307  1.00  0.00     0.220 C 
BRANCH  10  11
HETATM   11  C   UNL     1      40.610 -11.830   6.315  1.00  0.00     0.245 C 
HETATM   12  N   UNL     1      40.720 -10.539   6.792  1.00  0.00    -0.357 N 
HETATM   13  H   UNL     1      41.611 -10.065   6.677  1.00  0.00     0.162 HD
HETATM   14  O   UNL     1      39.608 -12.527   6.502  1.00  0.00    -0.271 OA
BRANCH  12  15
HETATM   15  C   UNL     1      39.754  -9.957   7.707  1.00  0.00     0.154 C 
BRANCH  15  16
HETATM   16  C   UNL     1      40.399  -8.955   8.681  1.00  0.00     0.139 C 
HETATM   17  O   UNL     1      40.451  -9.512  10.006  1.00  0.00    -0.384 OA
HETATM   18  C   UNL     1      39.363  -8.980  10.776  1.00  0.00     0.168 C 
HETATM   19  C   UNL     1      38.577  -8.046   9.879  1.00  0.00     0.029 C 
HETATM   20  C   UNL     1      39.584  -7.678   8.817  1.00  0.00     0.035 C 
ENDBRANCH  15  16
ENDBRANCH  12  15
ENDBRANCH  10  11
BRANCH  10  21
HETATM   21  C   UNL     1      41.345 -12.306   3.829  1.00  0.00     0.014 A 
HETATM   22  S   UNL     1      39.745 -12.085   3.237  1.00  0.00    -0.104 SA
HETATM   23  C   UNL     1      40.255 -12.096   1.609  1.00  0.00     0.050 A 
HETATM   24  C   UNL     1      41.621 -12.212   1.500  1.00  0.00     0.008 A 
HETATM   25  C   UNL     1      42.247 -12.307   2.774  1.00  0.00     0.017 A 
ENDBRANCH  10  21
ENDBRANCH   2  10
BRANCH   1  26
HETATM   26  C   UNL     1      44.046 -12.438   7.091  1.00  0.00     0.101 C 
HETATM   27  N   UNL     1      43.672 -11.797   8.257  1.00  0.00    -0.351 N 
HETATM   28  C   UNL     1      44.348 -10.602   8.388  1.00  0.00     0.043 C 
HETATM   29  H   UNL     1      42.939 -12.112   8.885  1.00  0.00     0.166 HD
HETATM   30  C   UNL     1      45.346 -10.614   7.429  1.00  0.00     0.033 C 
HETATM   31  C   UNL     1      45.167 -11.768   6.632  1.00  0.00     0.037 C 
BRANCH  28  32
HETATM   32  C   UNL     1      44.002  -9.585   9.381  1.00  0.00    -0.009 A 
HETATM   33  C   UNL     1      43.773  -8.259   8.993  1.00  0.00     0.013 A 
HETATM   34  C   UNL     1      43.377  -7.300   9.929  1.00  0.00     0.001 A 
HETATM   35  C   UNL     1      43.199  -7.658  11.263  1.00  0.00     0.000 A 
HETATM   36  C   UNL     1      43.425  -8.973  11.664  1.00  0.00     0.001 A 
HETATM   37  C   UNL     1      43.829  -9.930  10.730  1.00  0.00     0.013 A 
ENDBRANCH  28  32
ENDBRANCH   1  26
TORSDOF 9
ENDMDL
MODEL 5
REMARK VINA RESULT:      -7.9      2.367      7.135
REMARK  9 active torsions:
REMARK  status: ('A' for Active; 'I' for Inactive)
REMARK    1  A    between atoms: C_4  and  C_5 
REMARK    2  A    between atoms: C_8  and  C_9 
REMARK       I    between atoms: C_9  and  N_10 
REMARK    3  A    between atoms: N_10  and  C_26 
REMARK    4  A    between atoms: N_10  and  C_11 
REMARK    5  A    between atoms: C_11  and  C_12 
REMARK    6  A    between atoms: C_11  and  C_21 
REMARK       I    between atoms: C_12  and  N_13 
REMARK    7  A    between atoms: N_13  and  C_14 
REMARK    8  A    between atoms: C_14  and  C_15 
REMARK    9  A    between atoms: C_26  and  C_27 
ROOT
HETATM    1  C   UNL     1      43.453 -14.452   6.348  1.00  0.00     0.271 C 
HETATM    2  N   UNL     1      42.321 -14.777   5.593  1.00  0.00    -0.324 N 
HETATM    3  O   UNL     1      44.181 -15.341   6.792  1.00  0.00    -0.266 OA
ENDROOT
BRANCH   2   4
HETATM    4  C   UNL     1      41.836 -16.161   5.716  1.00  0.00     0.173 C 
BRANCH   4   5
HETATM    5  C   UNL     1      42.741 -17.147   5.047  1.00  0.00     0.000 A 
HETATM    6  S   UNL     1      43.468 -18.414   5.948  1.00  0.00    -0.105 SA
HETATM    7  C   UNL     1      44.265 -19.028   4.566  1.00  0.00     0.050 A 
HETATM    8  C   UNL     1      44.019 -18.264   3.448  1.00  0.00     0.008 A 
HETATM    9  C   UNL     1      43.153 -17.170   3.728  1.00  0.00     0.017 A 
ENDBRANCH   4   5
ENDBRANCH   2   4
BRANCH   2  10
HETATM   10  C   UNL     1      41.536 -13.798   4.798  1.00  0.00     0.220 C 
BRANCH  10  11
HETATM   11  C   UNL     1      40.424 -13.204   5.688  1.00  0.00     0.245 C 
HETATM   12  N   UNL     1      40.038 -11.906   5.419  1.00  0.00    -0.357 N 
HETATM   13  H   UNL     1      40.659 -11.333   4.856  1.00  0.00     0.162 HD
HETATM   14  O   UNL     1      39.793 -13.943   6.451  1.00  0.00    -0.271 OA
BRANCH  12  15
HETATM   15  C   UNL     1      38.971 -11.239   6.146  1.00  0.00     0.154 C 
BRANCH  15  16
HETATM   16  C   UNL     1      39.507 -10.239   7.186  1.00  0.00     0.139 C 
HETATM   17  O   UNL     1      38.592  -9.140   7.337  1.00  0.00    -0.384 OA
HETATM   18  C   UNL     1      39.076  -8.025   6.574  1.00  0.00     0.168 C 
HETATM   19  C   UNL     1      40.361  -8.454   5.896  1.00  0.00     0.029 C 
HETATM   20  C   UNL     1      40.821  -9.607   6.754  1.00  0.00     0.035 C 
ENDBRANCH  15  16
ENDBRANCH  12  15
ENDBRANCH  10  11
BRANCH  10  21
HETATM   21  C   UNL     1      41.179 -14.293   3.410  1.00  0.00     0.014 A 
HETATM   22  S   UNL     1      42.193 -14.046   2.043  1.00  0.00    -0.104 SA
HETATM   23  C   UNL     1      41.186 -14.971   1.024  1.00  0.00     0.050 A 
HETATM   24  C   UNL     1      40.120 -15.510   1.705  1.00  0.00     0.008 A 
HETATM   25  C   UNL     1      40.131 -15.141   3.079  1.00  0.00     0.017 A 
ENDBRANCH  10  21
ENDBRANCH   2  10
BRANCH   1  26
HETATM   26  C   UNL     1      43.783 -13.060   6.585  1.00  0.00     0.101 C 
HETATM   27  N   UNL     1      43.843 -12.418   7.807  1.00  0.00    -0.351 N 
HETATM   28  C   UNL     1      44.041 -11.064   7.631  1.00  0.00     0.043 C 
HETATM   29  H   UNL     1      43.674 -12.859   8.706  1.00  0.00     0.166 HD
HETATM   30  C   UNL     1      44.370 -10.891   6.298  1.00  0.00     0.033 C 
HETATM   31  C   UNL     1      44.225 -12.140   5.650  1.00  0.00     0.037 C 
BRANCH  28  32
HETATM   32  C   UNL     1      43.910 -10.084   8.709  1.00  0.00    -0.009 A 
HETATM   33  C   UNL     1      43.838  -8.715   8.421  1.00  0.00     0.013 A 
HETATM   34  C   UNL     1      43.647  -7.780   9.442  1.00  0.00     0.001 A 
HETATM   35  C   UNL     1      43.516  -8.206  10.762  1.00  0.00     0.000 A 
HETATM   36  C   UNL     1      43.587  -9.564  11.063  1.00  0.00     0.001 A 
HETATM   37  C   UNL     1      43.787 -10.498  10.043  1.00  0.00     0.013 A 
ENDBRANCH  28  32
ENDBRANCH   1  26
TORSDOF 9
ENDMDL
MODEL 6
REMARK VINA RESULT:      -7.9      1.982      4.974
REMARK  9 active torsions:
REMARK  status: ('A' for Active; 'I' for Inactive)
REMARK    1  A    between atoms: C_4  and  C_5 
REMARK    2  A    between atoms: C_8  and  C_9 
REMARK       I    between atoms: C_9  and  N_10 
REMARK    3  A    between atoms: N_10  and  C_26 
REMARK    4  A    between atoms: N_10  and  C_11 
REMARK    5  A    between atoms: C_11  and  C_12 
REMARK    6  A    between atoms: C_11  and  C_21 
REMARK       I    between atoms: C_12  and  N_13 
REMARK    7  A    between atoms: N_13  and  C_14 
REMARK    8  A    between atoms: C_14  and  C_15 
REMARK    9  A    between atoms: C_26  and  C_27 
ROOT
HETATM    1  C   UNL     1      43.224 -12.936   3.524  1.00  0.00     0.271 C 
HETATM    2  N   UNL     1      42.316 -12.401   4.445  1.00  0.00    -0.324 N 
HETATM    3  O   UNL     1      44.242 -12.313   3.221  1.00  0.00    -0.266 OA
ENDROOT
BRANCH   2   4
HETATM    4  C   UNL     1      42.418 -10.954   4.688  1.00  0.00     0.173 C 
BRANCH   4   5
HETATM    5  C   UNL     1      43.072 -10.637   5.996  1.00  0.00     0.000 A 
HETATM    6  S   UNL     1      42.301  -9.605   7.130  1.00  0.00    -0.105 SA
HETATM    7  C   UNL     1      43.590  -9.755   8.242  1.00  0.00     0.050 A 
HETATM    8  C   UNL     1      44.608 -10.540   7.749  1.00  0.00     0.008 A 
HETATM    9  C   UNL     1      44.316 -11.036   6.446  1.00  0.00     0.017 A 
ENDBRANCH   4   5
ENDBRANCH   2   4
BRANCH   2  10
HETATM   10  C   UNL     1      41.211 -13.170   5.074  1.00  0.00     0.220 C 
BRANCH  10  11
HETATM   11  C   UNL     1      40.091 -12.192   5.488  1.00  0.00     0.245 C 
HETATM   12  N   UNL     1      39.599 -11.356   4.505  1.00  0.00    -0.357 N 
HETATM   13  H   UNL     1      40.155 -11.234   3.664  1.00  0.00     0.162 HD
HETATM   14  O   UNL     1      39.545 -12.321   6.588  1.00  0.00    -0.271 OA
BRANCH  12  15
HETATM   15  C   UNL     1      38.512 -10.421   4.743  1.00  0.00     0.154 C 
BRANCH  15  16
HETATM   16  C   UNL     1      38.484  -9.281   3.710  1.00  0.00     0.139 C 
HETATM   17  O   UNL     1      39.815  -9.002   3.241  1.00  0.00    -0.384 OA
HETATM   18  C   UNL     1      40.318  -7.851   3.935  1.00  0.00     0.168 C 
HETATM   19  C   UNL     1      39.247  -7.391   4.902  1.00  0.00     0.029 C 
HETATM   20  C   UNL     1      37.989  -7.974   4.308  1.00  0.00     0.035 C 
ENDBRANCH  15  16
ENDBRANCH  12  15
ENDBRANCH  10  11
BRANCH  10  21
HETATM   21  C   UNL     1      41.687 -14.207   6.072  1.00  0.00     0.014 A 
HETATM   22  S   UNL     1      40.992 -15.776   6.189  1.00  0.00    -0.104 SA
HETATM   23  C   UNL     1      42.126 -16.283   7.358  1.00  0.00     0.050 A 
HETATM   24  C   UNL     1      43.056 -15.307   7.629  1.00  0.00     0.008 A 
HETATM   25  C   UNL     1      42.818 -14.126   6.873  1.00  0.00     0.017 A 
ENDBRANCH  10  21
ENDBRANCH   2  10
BRANCH   1  26
HETATM   26  C   UNL     1      42.975 -14.242   2.946  1.00  0.00     0.101 C 
HETATM   27  N   UNL     1      43.176 -15.469   3.550  1.00  0.00    -0.351 N 
HETATM   28  C   UNL     1      42.971 -16.490   2.645  1.00  0.00     0.043 C 
HETATM   29  H   UNL     1      43.514 -15.603   4.498  1.00  0.00     0.166 HD
HETATM   30  C   UNL     1      42.383 -15.912   1.534  1.00  0.00     0.033 C 
HETATM   31  C   UNL     1      42.370 -14.512   1.730  1.00  0.00     0.037 C 
BRANCH  28  32
HETATM   32  C   UNL     1      43.336 -17.883   2.907  1.00  0.00    -0.009 A 
HETATM   33  C   UNL     1      43.920 -18.248   4.126  1.00  0.00     0.013 A 
HETATM   34  C   UNL     1      44.210 -19.586   4.405  1.00  0.00     0.001 A 
HETATM   35  C   UNL     1      43.910 -20.576   3.471  1.00  0.00     0.000 A 
HETATM   36  C   UNL     1      43.330 -20.226   2.253  1.00  0.00     0.001 A 
HETATM   37  C   UNL     1      43.049 -18.887   1.971  1.00  0.00     0.013 A 
ENDBRANCH  28  32
ENDBRANCH   1  26
TORSDOF 9
ENDMDL
MODEL 7
REMARK VINA RESULT:      -7.8      2.139      5.323
REMARK  9 active torsions:
REMARK  status: ('A' for Active; 'I' for Inactive)
REMARK    1  A    between atoms: C_4  and  C_5 
REMARK    2  A    between atoms: C_8  and  C_9 
REMARK       I    between atoms: C_9  and  N_10 
REMARK    3  A    between atoms: N_10  and  C_26 
REMARK    4  A    between atoms: N_10  and  C_11 
REMARK    5  A    between atoms: C_11  and  C_12 
REMARK    6  A    between atoms: C_11  and  C_21 
REMARK       I    between atoms: C_12  and  N_13 
REMARK    7  A    between atoms: N_13  and  C_14 
REMARK    8  A    between atoms: C_14  and  C_15 
REMARK    9  A    between atoms: C_26  and  C_27 
ROOT
HETATM    1  C   UNL     1      43.481 -13.093   6.716  1.00  0.00     0.271 C 
HETATM    2  N   UNL     1      42.736 -12.170   5.973  1.00  0.00    -0.324 N 
HETATM    3  O   UNL     1      44.326 -12.705   7.522  1.00  0.00    -0.266 OA
ENDROOT
BRANCH   2   4
HETATM    4  C   UNL     1      43.285 -10.808   5.895  1.00  0.00     0.173 C 
BRANCH   4   5
HETATM    5  C   UNL     1      43.138 -10.056   7.181  1.00  0.00     0.000 A 
HETATM    6  S   UNL     1      44.523  -9.545   8.055  1.00  0.00    -0.105 SA
HETATM    7  C   UNL     1      43.568  -8.826   9.276  1.00  0.00     0.050 A 
HETATM    8  C   UNL     1      42.222  -9.003   9.050  1.00  0.00     0.008 A 
HETATM    9  C   UNL     1      41.974  -9.727   7.849  1.00  0.00     0.017 A 
ENDBRANCH   4   5
ENDBRANCH   2   4
BRANCH   2  10
HETATM   10  C   UNL     1      41.526 -12.514   5.182  1.00  0.00     0.220 C 
BRANCH  10  11
HETATM   11  C   UNL     1      41.952 -12.883   3.746  1.00  0.00     0.245 C 
HETATM   12  N   UNL     1      41.181 -13.822   3.089  1.00  0.00    -0.357 N 
HETATM   13  H   UNL     1      40.562 -14.401   3.647  1.00  0.00     0.162 HD
HETATM   14  O   UNL     1      42.813 -12.207   3.173  1.00  0.00    -0.271 OA
BRANCH  12  15
HETATM   15  C   UNL     1      41.439 -14.226   1.717  1.00  0.00     0.154 C 
BRANCH  15  16
HETATM   16  C   UNL     1      40.192 -14.096   0.824  1.00  0.00     0.139 C 
HETATM   17  O   UNL     1      40.574 -14.067  -0.562  1.00  0.00    -0.384 OA
HETATM   18  C   UNL     1      40.575 -12.705  -1.015  1.00  0.00     0.168 C 
HETATM   19  C   UNL     1      40.184 -11.829   0.158  1.00  0.00     0.029 C 
HETATM   20  C   UNL     1      39.449 -12.790   1.060  1.00  0.00     0.035 C 
ENDBRANCH  15  16
ENDBRANCH  12  15
ENDBRANCH  10  11
BRANCH  10  21
HETATM   21  C   UNL     1      40.377 -11.544   5.381  1.00  0.00     0.014 A 
HETATM   22  S   UNL     1      39.941 -10.364   4.208  1.00  0.00    -0.104 SA
HETATM   23  C   UNL     1      38.580  -9.856   5.103  1.00  0.00     0.050 A 
HETATM   24  C   UNL     1      38.415 -10.596   6.250  1.00  0.00     0.008 A 
HETATM   25  C   UNL     1      39.432 -11.580   6.396  1.00  0.00     0.017 A 
ENDBRANCH  10  21
ENDBRANCH   2  10
BRANCH   1  26
HETATM   26  C   UNL     1      43.235 -14.512   6.552  1.00  0.00     0.101 C 
HETATM   27  N   UNL     1      43.726 -15.330   5.552  1.00  0.00    -0.351 N 
HETATM   28  C   UNL     1      43.161 -16.586   5.636  1.00  0.00     0.043 C 
HETATM   29  H   UNL     1      44.346 -15.029   4.806  1.00  0.00     0.166 HD
HETATM   30  C   UNL     1      42.506 -16.636   6.853  1.00  0.00     0.033 C 
HETATM   31  C   UNL     1      42.567 -15.348   7.432  1.00  0.00     0.037 C 
BRANCH  28  32
HETATM   32  C   UNL     1      43.291 -17.598   4.587  1.00  0.00    -0.009 A 
HETATM   33  C   UNL     1      42.826 -17.344   3.291  1.00  0.00     0.013 A 
HETATM   34  C   UNL     1      43.007 -18.282   2.271  1.00  0.00     0.001 A 
HETATM   35  C   UNL     1      43.664 -19.482   2.535  1.00  0.00     0.000 A 
HETATM   36  C   UNL     1      44.130 -19.749   3.821  1.00  0.00     0.001 A 
HETATM   37  C   UNL     1      43.941 -18.814   4.842  1.00  0.00     0.013 A 
ENDBRANCH  28  32
ENDBRANCH   1  26
TORSDOF 9
ENDMDL
MODEL 8
REMARK VINA RESULT:      -7.6      1.897      3.258
REMARK  9 active torsions:
REMARK  status: ('A' for Active; 'I' for Inactive)
REMARK    1  A    between atoms: C_4  and  C_5 
REMARK    2  A    between atoms: C_8  and  C_9 
REMARK       I    between atoms: C_9  and  N_10 
REMARK    3  A    between atoms: N_10  and  C_26 
REMARK    4  A    between atoms: N_10  and  C_11 
REMARK    5  A    between atoms: C_11  and  C_12 
REMARK    6  A    between atoms: C_11  and  C_21 
REMARK       I    between atoms: C_12  and  N_13 
REMARK    7  A    between atoms: N_13  and  C_14 
REMARK    8  A    between atoms: C_14  and  C_15 
REMARK    9  A    between atoms: C_26  and  C_27 
ROOT
HETATM    1  C   UNL     1      40.472 -12.475   3.644  1.00  0.00     0.271 C 
HETATM    2  N   UNL     1      40.288 -12.117   4.984  1.00  0.00    -0.324 N 
HETATM    3  O   UNL     1      39.730 -12.023   2.771  1.00  0.00    -0.266 OA
ENDROOT
BRANCH   2   4
HETATM    4  C   UNL     1      38.975 -11.549   5.327  1.00  0.00     0.173 C 
BRANCH   4   5
HETATM    5  C   UNL     1      39.032 -10.071   5.556  1.00  0.00     0.000 A 
HETATM    6  S   UNL     1      39.377  -9.442   7.115  1.00  0.00    -0.105 SA
HETATM    7  C   UNL     1      39.266  -7.830   6.560  1.00  0.00     0.050 A 
HETATM    8  C   UNL     1      38.933  -7.764   5.227  1.00  0.00     0.008 A 
HETATM    9  C   UNL     1      38.782  -9.058   4.650  1.00  0.00     0.017 A 
ENDBRANCH   4   5
ENDBRANCH   2   4
BRANCH   2  10
HETATM   10  C   UNL     1      41.271 -12.386   6.065  1.00  0.00     0.220 C 
BRANCH  10  11
HETATM   11  C   UNL     1      42.495 -11.468   5.872  1.00  0.00     0.245 C 
HETATM   12  N   UNL     1      43.695 -11.911   6.394  1.00  0.00    -0.357 N 
HETATM   13  H   UNL     1      43.665 -12.653   7.086  1.00  0.00     0.162 HD
HETATM   14  O   UNL     1      42.417 -10.499   5.109  1.00  0.00    -0.271 OA
BRANCH  12  15
HETATM   15  C   UNL     1      44.936 -11.171   6.243  1.00  0.00     0.154 C 
BRANCH  15  16
HETATM   16  C   UNL     1      45.711 -11.051   7.567  1.00  0.00     0.139 C 
HETATM   17  O   UNL     1      44.835 -11.302   8.680  1.00  0.00    -0.384 OA
HETATM   18  C   UNL     1      44.428 -10.047   9.243  1.00  0.00     0.168 C 
HETATM   19  C   UNL     1      45.074  -8.945   8.429  1.00  0.00     0.029 C 
HETATM   20  C   UNL     1      46.250  -9.647   7.794  1.00  0.00     0.035 C 
ENDBRANCH  15  16
ENDBRANCH  12  15
ENDBRANCH  10  11
BRANCH  10  21
HETATM   21  C   UNL     1      41.494 -13.863   6.325  1.00  0.00     0.014 A 
HETATM   22  S   UNL     1      42.999 -14.497   6.865  1.00  0.00    -0.104 SA
HETATM   23  C   UNL     1      42.372 -16.075   7.026  1.00  0.00     0.050 A 
HETATM   24  C   UNL     1      41.031 -16.128   6.729  1.00  0.00     0.008 A 
HETATM   25  C   UNL     1      40.523 -14.854   6.351  1.00  0.00     0.017 A 
ENDBRANCH  10  21
ENDBRANCH   2  10
BRANCH   1  26
HETATM   26  C   UNL     1      41.560 -13.363   3.281  1.00  0.00     0.101 C 
HETATM   27  N   UNL     1      41.523 -14.744   3.232  1.00  0.00    -0.351 N 
HETATM   28  C   UNL     1      42.783 -15.251   2.991  1.00  0.00     0.043 C 
HETATM   29  H   UNL     1      40.706 -15.312   3.434  1.00  0.00     0.166 HD
HETATM   30  C   UNL     1      43.571 -14.173   2.627  1.00  0.00     0.033 C 
HETATM   31  C   UNL     1      42.803 -12.999   2.791  1.00  0.00     0.037 C 
BRANCH  28  32
HETATM   32  C   UNL     1      43.119 -16.669   3.120  1.00  0.00    -0.009 A 
HETATM   33  C   UNL     1      42.709 -17.589   2.147  1.00  0.00     0.013 A 
HETATM   34  C   UNL     1      43.083 -18.932   2.232  1.00  0.00     0.001 A 
HETATM   35  C   UNL     1      43.879 -19.369   3.289  1.00  0.00     0.000 A 
HETATM   36  C   UNL     1      44.292 -18.466   4.265  1.00  0.00     0.001 A 
HETATM   37  C   UNL     1      43.911 -17.124   4.184  1.00  0.00     0.013 A 
ENDBRANCH  28  32
ENDBRANCH   1  26
TORSDOF 9
ENDMDL
MODEL 9
REMARK VINA RESULT:      -7.4      2.327      6.135
REMARK  9 active torsions:
REMARK  status: ('A' for Active; 'I' for Inactive)
REMARK    1  A    between atoms: C_4  and  C_5 
REMARK    2  A    between atoms: C_8  and  C_9 
REMARK       I    between atoms: C_9  and  N_10 
REMARK    3  A    between atoms: N_10  and  C_26 
REMARK    4  A    between atoms: N_10  and  C_11 
REMARK    5  A    between atoms: C_11  and  C_12 
REMARK    6  A    between atoms: C_11  and  C_21 
REMARK       I    between atoms: C_12  and  N_13 
REMARK    7  A    between atoms: N_13  and  C_14 
REMARK    8  A    between atoms: C_14  and  C_15 
REMARK    9  A    between atoms: C_26  and  C_27 
ROOT
HETATM    1  C   UNL     1      39.830 -12.832   5.132  1.00  0.00     0.271 C 
HETATM    2  N   UNL     1      40.746 -13.890   5.122  1.00  0.00    -0.324 N 
HETATM    3  O   UNL     1      39.085 -12.664   6.099  1.00  0.00    -0.266 OA
ENDROOT
BRANCH   2   4
HETATM    4  C   UNL     1      40.489 -14.979   6.077  1.00  0.00     0.173 C 
BRANCH   4   5
HETATM    5  C   UNL     1      41.701 -15.818   6.331  1.00  0.00     0.000 A 
HETATM    6  S   UNL     1      42.785 -15.422   7.601  1.00  0.00    -0.105 SA
HETATM    7  C   UNL     1      43.794 -16.754   7.243  1.00  0.00     0.050 A 
HETATM    8  C   UNL     1      43.343 -17.465   6.154  1.00  0.00     0.008 A 
HETATM    9  C   UNL     1      42.144 -16.916   5.618  1.00  0.00     0.017 A 
ENDBRANCH   4   5
ENDBRANCH   2   4
BRANCH   2  10
HETATM   10  C   UNL     1      41.856 -14.026   4.144  1.00  0.00     0.220 C 
BRANCH  10  11
HETATM   11  C   UNL     1      42.826 -12.839   4.316  1.00  0.00     0.245 C 
HETATM   12  N   UNL     1      43.159 -12.488   5.610  1.00  0.00    -0.357 N 
HETATM   13  H   UNL     1      42.569 -12.832   6.361  1.00  0.00     0.162 HD
HETATM   14  O   UNL     1      43.415 -12.385   3.330  1.00  0.00    -0.271 OA
BRANCH  12  15
HETATM   15  C   UNL     1      44.098 -11.423   5.916  1.00  0.00     0.154 C 
BRANCH  15  16
HETATM   16  C   UNL     1      44.998 -11.763   7.118  1.00  0.00     0.139 C 
HETATM   17  O   UNL     1      44.252 -11.655   8.343  1.00  0.00    -0.384 OA
HETATM   18  C   UNL     1      44.551 -10.394   8.959  1.00  0.00     0.168 C 
HETATM   19  C   UNL     1      45.531  -9.665   8.063  1.00  0.00     0.029 C 
HETATM   20  C   UNL     1      46.153 -10.786   7.268  1.00  0.00     0.035 C 
ENDBRANCH  15  16
ENDBRANCH  12  15
ENDBRANCH  10  11
BRANCH  10  21
HETATM   21  C   UNL     1      41.392 -14.399   2.750  1.00  0.00     0.014 A 
HETATM   22  S   UNL     1      40.126 -15.527   2.460  1.00  0.00    -0.104 SA
HETATM   23  C   UNL     1      40.159 -15.258   0.776  1.00  0.00     0.050 A 
HETATM   24  C   UNL     1      41.074 -14.292   0.427  1.00  0.00     0.008 A 
HETATM   25  C   UNL     1      41.762 -13.783   1.563  1.00  0.00     0.017 A 
ENDBRANCH  10  21
ENDBRANCH   2  10
BRANCH   1  26
HETATM   26  C   UNL     1      39.778 -11.916   4.010  1.00  0.00     0.101 C 
HETATM   27  N   UNL     1      39.117 -12.108   2.812  1.00  0.00    -0.351 N 
HETATM   28  C   UNL     1      39.414 -11.090   1.929  1.00  0.00     0.043 C 
HETATM   29  H   UNL     1      38.563 -12.926   2.577  1.00  0.00     0.166 HD
HETATM   30  C   UNL     1      40.060 -10.114   2.667  1.00  0.00     0.033 C 
HETATM   31  C   UNL     1      40.271 -10.623   3.969  1.00  0.00     0.037 C 
BRANCH  28  32
HETATM   32  C   UNL     1      39.067 -11.130   0.509  1.00  0.00    -0.009 A 
HETATM   33  C   UNL     1      39.996 -10.736  -0.462  1.00  0.00     0.013 A 
HETATM   34  C   UNL     1      39.693 -10.834  -1.822  1.00  0.00     0.001 A 
HETATM   35  C   UNL     1      38.457 -11.336  -2.227  1.00  0.00     0.000 A 
HETATM   36  C   UNL     1      37.522 -11.730  -1.272  1.00  0.00     0.001 A 
HETATM   37  C   UNL     1      37.824 -11.623   0.088  1.00  0.00     0.013 A 
ENDBRANCH  28  32
ENDBRANCH   1  26
TORSDOF 9
ENDMDL
MODEL 10
REMARK VINA RESULT:      -7.3      3.144      8.613
REMARK  9 active torsions:
REMARK  status: ('A' for Active; 'I' for Inactive)
REMARK    1  A    between atoms: C_4  and  C_5 
REMARK    2  A    between atoms: C_8  and  C_9 
REMARK       I    between atoms: C_9  and  N_10 
REMARK    3  A    between atoms: N_10  and  C_26 
REMARK    4  A    between atoms: N_10  and  C_11 
REMARK    5  A    between atoms: C_11  and  C_12 
REMARK    6  A    between atoms: C_11  and  C_21 
REMARK       I    between atoms: C_12  and  N_13 
REMARK    7  A    between atoms: N_13  and  C_14 
REMARK    8  A    between atoms: C_14  and  C_15 
REMARK    9  A    between atoms: C_26  and  C_27 
ROOT
HETATM    1  C   UNL     1      40.105 -13.545   5.908  1.00  0.00     0.271 C 
HETATM    2  N   UNL     1      41.093 -13.890   4.980  1.00  0.00    -0.324 N 
HETATM    3  O   UNL     1      39.580 -14.411   6.609  1.00  0.00    -0.266 OA
ENDROOT
BRANCH   2   4
HETATM    4  C   UNL     1      41.159 -15.310   4.602  1.00  0.00     0.173 C 
BRANCH   4   5
HETATM    5  C   UNL     1      42.315 -16.019   5.233  1.00  0.00     0.000 A 
HETATM    6  S   UNL     1      42.299 -16.396   6.907  1.00  0.00    -0.105 SA
HETATM    7  C   UNL     1      43.839 -17.132   6.823  1.00  0.00     0.050 A 
HETATM    8  C   UNL     1      44.377 -17.060   5.559  1.00  0.00     0.008 A 
HETATM    9  C   UNL     1      43.505 -16.403   4.645  1.00  0.00     0.017 A 
ENDBRANCH   4   5
ENDBRANCH   2   4
BRANCH   2  10
HETATM   10  C   UNL     1      41.968 -12.910   4.285  1.00  0.00     0.220 C 
BRANCH  10  11
HETATM   11  C   UNL     1      42.119 -13.330   2.808  1.00  0.00     0.245 C 
HETATM   12  N   UNL     1      41.115 -12.939   1.943  1.00  0.00    -0.357 N 
HETATM   13  H   UNL     1      40.231 -12.644   2.346  1.00  0.00     0.162 HD
HETATM   14  O   UNL     1      43.188 -13.807   2.416  1.00  0.00    -0.271 OA
BRANCH  12  15
HETATM   15  C   UNL     1      41.153 -13.223   0.519  1.00  0.00     0.154 C 
BRANCH  15  16
HETATM   16  C   UNL     1      39.749 -13.443  -0.071  1.00  0.00     0.139 C 
HETATM   17  O   UNL     1      39.759 -14.563  -0.973  1.00  0.00    -0.384 OA
HETATM   18  C   UNL     1      39.835 -14.075  -2.320  1.00  0.00     0.168 C 
HETATM   19  C   UNL     1      39.889 -12.562  -2.259  1.00  0.00     0.029 C 
HETATM   20  C   UNL     1      39.285 -12.262  -0.909  1.00  0.00     0.035 C 
ENDBRANCH  15  16
ENDBRANCH  12  15
ENDBRANCH  10  11
BRANCH  10  21
HETATM   21  C   UNL     1      43.209 -12.541   5.074  1.00  0.00     0.014 A 
HETATM   22  S   UNL     1      44.376 -11.415   4.502  1.00  0.00    -0.104 SA
HETATM   23  C   UNL     1      45.274 -11.481   5.950  1.00  0.00     0.050 A 
HETATM   24  C   UNL     1      44.684 -12.301   6.883  1.00  0.00     0.008 A 
HETATM   25  C   UNL     1      43.486 -12.888   6.389  1.00  0.00     0.017 A 
ENDBRANCH  10  21
ENDBRANCH   2  10
BRANCH   1  26
HETATM   26  C   UNL     1      39.719 -12.156   6.064  1.00  0.00     0.101 C 
HETATM   27  N   UNL     1      40.008 -11.328   7.132  1.00  0.00    -0.351 N 
HETATM   28  C   UNL     1      39.352 -10.123   6.998  1.00  0.00     0.043 C 
HETATM   29  H   UNL     1      40.553 -11.597   7.946  1.00  0.00     0.166 HD
HETATM   30  C   UNL     1      38.853 -10.093   5.708  1.00  0.00     0.033 C 
HETATM   31  C   UNL     1      39.098 -11.355   5.120  1.00  0.00     0.037 C 
BRANCH  28  32
HETATM   32  C   UNL     1      39.261  -9.133   8.071  1.00  0.00    -0.009 A 
HETATM   33  C   UNL     1      39.356  -9.526   9.412  1.00  0.00     0.013 A 
HETATM   34  C   UNL     1      39.335  -8.577  10.438  1.00  0.00     0.001 A 
HETATM   35  C   UNL     1      39.228  -7.221  10.132  1.00  0.00     0.000 A 
HETATM   36  C   UNL     1      39.131  -6.816   8.802  1.00  0.00     0.001 A 
HETATM   37  C   UNL     1      39.143  -7.766   7.778  1.00  0.00     0.013 A 
ENDBRANCH  28  32
ENDBRANCH   1  26
TORSDOF 9
ENDMDL
