MODEL 1
REMARK VINA RESULT:      -8.6      0.000      0.000
REMARK  6 active torsions:
REMARK  status: ('A' for Active; 'I' for Inactive)
REMARK    1  A    between atoms: C_2  and  O_3 
REMARK    2  A    between atoms: C_2  and  C_4 
REMARK    3  A    between atoms: C_2  and  C_11 
REMARK    4  A    between atoms: C_11  and  N_12 
REMARK       I    between atoms: N_12  and  C_13 
REMARK    5  A    between atoms: C_13  and  C_14 
REMARK    6  A    between atoms: C_15  and  C_16 
ROOT
HETATM    1  N   UNL     1      40.923 -14.436   3.791  1.00  0.00    -0.354 N 
HETATM    2  C   UNL     1      42.216 -14.502   4.268  1.00  0.00     0.255 C 
HETATM    3  O   UNL     1      43.154 -13.958   3.696  1.00  0.00    -0.268 OA
HETATM    4  H   UNL     1      40.203 -14.975   4.248  1.00  0.00     0.162 HD
ENDROOT
BRANCH   2   5
HETATM    5  C   UNL     1      42.377 -15.288   5.485  1.00  0.00     0.080 A 
HETATM    6  C   UNL     1      42.826 -16.645   5.634  1.00  0.00     0.104 A 
HETATM    7  N   UNL     1      42.886 -16.989   6.934  1.00  0.00    -0.174 NA
HETATM    8  N   UNL     1      42.482 -15.903   7.595  1.00  0.00    -0.288 N 
HETATM    9  H   UNL     1      42.455 -15.945   8.609  1.00  0.00     0.188 HD
HETATM   10  C   UNL     1      42.163 -14.859   6.785  1.00  0.00     0.128 A 
BRANCH   6  11
HETATM   11  C   UNL     1      43.190 -17.635   4.615  1.00  0.00    -0.004 A 
HETATM   12  C   UNL     1      43.878 -18.802   4.991  1.00  0.00     0.017 A 
HETATM   13  C   UNL     1      44.217 -19.769   4.042  1.00  0.00     0.043 A 
HETATM   14  C   UNL     1      43.864 -19.574   2.713  1.00  0.00     0.116 A 
HETATM   15  F   UNL     1      44.188 -20.499   1.801  1.00  0.00    -0.206 F 
HETATM   16  C   UNL     1      43.173 -18.435   2.319  1.00  0.00     0.043 A 
HETATM   17  C   UNL     1      42.829 -17.470   3.269  1.00  0.00     0.017 A 
ENDBRANCH   6  11
ENDBRANCH   2   5
BRANCH   1  18
HETATM   18  C   UNL     1      40.576 -13.707   2.583  1.00  0.00     0.165 C 
BRANCH  18  19
HETATM   19  C   UNL     1      40.543 -14.569   1.286  1.00  0.00     0.097 C 
HETATM   20  C   UNL     1      40.021 -15.976   1.627  1.00  0.00     0.053 C 
BRANCH  19  21
HETATM   21  O   UNL     1      41.911 -14.774   0.878  1.00  0.00    -0.384 OA
HETATM   22  H   UNL     1      41.910 -15.462   0.189  1.00  0.00     0.211 HD
ENDBRANCH  19  21
BRANCH  19  23
HETATM   23  C   UNL     1      39.810 -13.882   0.131  1.00  0.00    -0.023 A 
HETATM   24  C   UNL     1      39.487 -14.536  -1.071  1.00  0.00     0.013 A 
HETATM   25  C   UNL     1      38.829 -13.861  -2.103  1.00  0.00     0.043 A 
HETATM   26  C   UNL     1      38.484 -12.526  -1.946  1.00  0.00     0.116 A 
HETATM   27  F   UNL     1      37.857 -11.883  -2.939  1.00  0.00    -0.206 F 
HETATM   28  C   UNL     1      38.787 -11.851  -0.773  1.00  0.00     0.043 A 
HETATM   29  C   UNL     1      39.448 -12.523   0.256  1.00  0.00     0.013 A 
ENDBRANCH  19  23
ENDBRANCH  18  19
ENDBRANCH   1  18
TORSDOF 6
ENDMDL
MODEL 2
REMARK VINA RESULT:      -8.5      3.119      4.719
REMARK  6 active torsions:
REMARK  status: ('A' for Active; 'I' for Inactive)
REMARK    1  A    between atoms: C_2  and  O_3 
REMARK    2  A    between atoms: C_2  and  C_4 
REMARK    3  A    between atoms: C_2  and  C_11 
REMARK    4  A    between atoms: C_11  and  N_12 
REMARK       I    between atoms: N_12  and  C_13 
REMARK    5  A    between atoms: C_13  and  C_14 
REMARK    6  A    between atoms: C_15  and  C_16 
ROOT
HETATM    1  N   UNL     1      41.780 -12.131   4.037  1.00  0.00    -0.354 N 
HETATM    2  C   UNL     1      43.108 -11.887   4.317  1.00  0.00     0.255 C 
HETATM    3  O   UNL     1      43.954 -11.770   3.437  1.00  0.00    -0.268 OA
HETATM    4  H   UNL     1      41.142 -12.310   4.798  1.00  0.00     0.162 HD
ENDROOT
BRANCH   2   5
HETATM    5  C   UNL     1      43.426 -11.808   5.738  1.00  0.00     0.080 A 
HETATM    6  C   UNL     1      43.549 -12.869   6.699  1.00  0.00     0.104 A 
HETATM    7  N   UNL     1      43.908 -12.384   7.903  1.00  0.00    -0.174 NA
HETATM    8  N   UNL     1      44.002 -11.066   7.728  1.00  0.00    -0.288 N 
HETATM    9  H   UNL     1      44.270 -10.497   8.525  1.00  0.00     0.188 HD
HETATM   10  C   UNL     1      43.724 -10.663   6.460  1.00  0.00     0.128 A 
BRANCH   6  11
HETATM   11  C   UNL     1      43.334 -14.311   6.544  1.00  0.00    -0.004 A 
HETATM   12  C   UNL     1      44.421 -15.150   6.240  1.00  0.00     0.017 A 
HETATM   13  C   UNL     1      44.244 -16.529   6.108  1.00  0.00     0.043 A 
HETATM   14  C   UNL     1      42.979 -17.075   6.284  1.00  0.00     0.116 A 
HETATM   15  F   UNL     1      42.807 -18.397   6.158  1.00  0.00    -0.206 F 
HETATM   16  C   UNL     1      41.892 -16.269   6.598  1.00  0.00     0.043 A 
HETATM   17  C   UNL     1      42.069 -14.889   6.735  1.00  0.00     0.017 A 
ENDBRANCH   6  11
ENDBRANCH   2   5
BRANCH   1  18
HETATM   18  C   UNL     1      41.282 -12.253   2.676  1.00  0.00     0.165 C 
BRANCH  18  19
HETATM   19  C   UNL     1      40.514 -13.575   2.379  1.00  0.00     0.097 C 
HETATM   20  C   UNL     1      39.680 -13.398   1.098  1.00  0.00     0.053 C 
BRANCH  19  21
HETATM   21  O   UNL     1      39.542 -13.747   3.429  1.00  0.00    -0.384 OA
HETATM   22  H   UNL     1      38.665 -13.798   3.010  1.00  0.00     0.211 HD
ENDBRANCH  19  21
BRANCH  19  23
HETATM   23  C   UNL     1      41.424 -14.807   2.380  1.00  0.00    -0.023 A 
HETATM   24  C   UNL     1      41.071 -16.022   2.994  1.00  0.00     0.013 A 
HETATM   25  C   UNL     1      41.943 -17.115   2.980  1.00  0.00     0.043 A 
HETATM   26  C   UNL     1      43.175 -17.007   2.351  1.00  0.00     0.116 A 
HETATM   27  F   UNL     1      44.008 -18.056   2.345  1.00  0.00    -0.206 F 
HETATM   28  C   UNL     1      43.555 -15.825   1.735  1.00  0.00     0.043 A 
HETATM   29  C   UNL     1      42.687 -14.732   1.753  1.00  0.00     0.013 A 
ENDBRANCH  19  23
ENDBRANCH  18  19
ENDBRANCH   1  18
TORSDOF 6
ENDMDL
MODEL 3
REMARK VINA RESULT:      -8.4      2.317      7.495
REMARK  6 active torsions:
REMARK  status: ('A' for Active; 'I' for Inactive)
REMARK    1  A    between atoms: C_2  and  O_3 
REMARK    2  A    between atoms: C_2  and  C_4 
REMARK    3  A    between atoms: C_2  and  C_11 
REMARK    4  A    between atoms: C_11  and  N_12 
REMARK       I    between atoms: N_12  and  C_13 
REMARK    5  A    between atoms: C_13  and  C_14 
REMARK    6  A    between atoms: C_15  and  C_16 
ROOT
HETATM    1  N   UNL     1      42.749 -13.780   3.060  1.00  0.00    -0.354 N 
HETATM    2  C   UNL     1      41.543 -13.112   3.039  1.00  0.00     0.255 C 
HETATM    3  O   UNL     1      40.528 -13.575   3.547  1.00  0.00    -0.268 OA
HETATM    4  H   UNL     1      43.531 -13.399   2.550  1.00  0.00     0.162 HD
ENDROOT
BRANCH   2   5
HETATM    5  C   UNL     1      41.568 -11.831   2.343  1.00  0.00     0.080 A 
HETATM    6  C   UNL     1      41.184 -11.526   0.993  1.00  0.00     0.104 A 
HETATM    7  N   UNL     1      41.308 -10.208   0.747  1.00  0.00    -0.174 NA
HETATM    8  N   UNL     1      41.763  -9.687   1.887  1.00  0.00    -0.288 N 
HETATM    9  H   UNL     1      41.926  -8.686   1.922  1.00  0.00     0.188 HD
HETATM   10  C   UNL     1      41.940 -10.605   2.873  1.00  0.00     0.128 A 
BRANCH   6  11
HETATM   11  C   UNL     1      40.718 -12.413  -0.079  1.00  0.00    -0.004 A 
HETATM   12  C   UNL     1      40.940 -12.060  -1.422  1.00  0.00     0.017 A 
HETATM   13  C   UNL     1      40.524 -12.898  -2.458  1.00  0.00     0.043 A 
HETATM   14  C   UNL     1      39.888 -14.096  -2.154  1.00  0.00     0.116 A 
HETATM   15  F   UNL     1      39.488 -14.901  -3.147  1.00  0.00    -0.206 F 
HETATM   16  C   UNL     1      39.670 -14.472  -0.836  1.00  0.00     0.043 A 
HETATM   17  C   UNL     1      40.091 -13.636   0.203  1.00  0.00     0.017 A 
ENDBRANCH   6  11
ENDBRANCH   2   5
BRANCH   1  18
HETATM   18  C   UNL     1      42.909 -15.077   3.699  1.00  0.00     0.165 C 
BRANCH  18  19
HETATM   19  C   UNL     1      42.709 -16.299   2.754  1.00  0.00     0.097 C 
HETATM   20  C   UNL     1      43.287 -15.965   1.367  1.00  0.00     0.053 C 
BRANCH  19  21
HETATM   21  O   UNL     1      41.291 -16.440   2.537  1.00  0.00    -0.384 OA
HETATM   22  H   UNL     1      41.112 -16.196   1.611  1.00  0.00     0.211 HD
ENDBRANCH  19  21
BRANCH  19  23
HETATM   23  C   UNL     1      43.222 -17.610   3.357  1.00  0.00    -0.023 A 
HETATM   24  C   UNL     1      43.400 -18.783   2.604  1.00  0.00     0.013 A 
HETATM   25  C   UNL     1      43.858 -19.960   3.204  1.00  0.00     0.043 A 
HETATM   26  C   UNL     1      44.144 -19.977   4.562  1.00  0.00     0.116 A 
HETATM   27  F   UNL     1      44.578 -21.108   5.133  1.00  0.00    -0.206 F 
HETATM   28  C   UNL     1      43.980 -18.837   5.334  1.00  0.00     0.043 A 
HETATM   29  C   UNL     1      43.519 -17.663   4.736  1.00  0.00     0.013 A 
ENDBRANCH  19  23
ENDBRANCH  18  19
ENDBRANCH   1  18
TORSDOF 6
ENDMDL
MODEL 4
REMARK VINA RESULT:      -8.3      4.014      7.583
REMARK  6 active torsions:
REMARK  status: ('A' for Active; 'I' for Inactive)
REMARK    1  A    between atoms: C_2  and  O_3 
REMARK    2  A    between atoms: C_2  and  C_4 
REMARK    3  A    between atoms: C_2  and  C_11 
REMARK    4  A    between atoms: C_11  and  N_12 
REMARK       I    between atoms: N_12  and  C_13 
REMARK    5  A    between atoms: C_13  and  C_14 
REMARK    6  A    between atoms: C_15  and  C_16 
ROOT
HETATM    1  N   UNL     1      42.849 -14.035   3.937  1.00  0.00    -0.354 N 
HETATM    2  C   UNL     1      41.676 -13.448   4.364  1.00  0.00     0.255 C 
HETATM    3  O   UNL     1      40.790 -14.084   4.924  1.00  0.00    -0.268 OA
HETATM    4  H   UNL     1      43.506 -13.488   3.402  1.00  0.00     0.162 HD
ENDROOT
BRANCH   2   5
HETATM    5  C   UNL     1      41.566 -12.024   4.071  1.00  0.00     0.080 A 
HETATM    6  C   UNL     1      42.277 -10.921   4.658  1.00  0.00     0.104 A 
HETATM    7  N   UNL     1      41.924  -9.761   4.074  1.00  0.00    -0.174 NA
HETATM    8  N   UNL     1      41.015 -10.099   3.158  1.00  0.00    -0.288 N 
HETATM    9  H   UNL     1      40.613  -9.360   2.590  1.00  0.00     0.188 HD
HETATM   10  C   UNL     1      40.759 -11.433   3.112  1.00  0.00     0.128 A 
BRANCH   6  11
HETATM   11  C   UNL     1      43.261 -10.905   5.745  1.00  0.00    -0.004 A 
HETATM   12  C   UNL     1      42.895 -10.411   7.009  1.00  0.00     0.017 A 
HETATM   13  C   UNL     1      43.809 -10.405   8.065  1.00  0.00     0.043 A 
HETATM   14  C   UNL     1      45.092 -10.897   7.861  1.00  0.00     0.116 A 
HETATM   15  F   UNL     1      45.970 -10.891   8.872  1.00  0.00    -0.206 F 
HETATM   16  C   UNL     1      45.473 -11.402   6.624  1.00  0.00     0.043 A 
HETATM   17  C   UNL     1      44.557 -11.413   5.568  1.00  0.00     0.017 A 
ENDBRANCH   6  11
ENDBRANCH   2   5
BRANCH   1  18
HETATM   18  C   UNL     1      43.127 -15.449   4.132  1.00  0.00     0.165 C 
BRANCH  18  19
HETATM   19  C   UNL     1      42.793 -16.354   2.909  1.00  0.00     0.097 C 
HETATM   20  C   UNL     1      43.367 -15.713   1.634  1.00  0.00     0.053 C 
BRANCH  19  21
HETATM   21  O   UNL     1      41.364 -16.314   2.730  1.00  0.00    -0.384 OA
HETATM   22  H   UNL     1      41.079 -15.392   2.858  1.00  0.00     0.211 HD
ENDBRANCH  19  21
BRANCH  19  23
HETATM   23  C   UNL     1      43.195 -17.816   3.123  1.00  0.00    -0.023 A 
HETATM   24  C   UNL     1      43.828 -18.276   4.291  1.00  0.00     0.013 A 
HETATM   25  C   UNL     1      44.188 -19.619   4.433  1.00  0.00     0.043 A 
HETATM   26  C   UNL     1      43.919 -20.518   3.411  1.00  0.00     0.116 A 
HETATM   27  F   UNL     1      44.270 -21.803   3.551  1.00  0.00    -0.206 F 
HETATM   28  C   UNL     1      43.295 -20.099   2.246  1.00  0.00     0.043 A 
HETATM   29  C   UNL     1      42.940 -18.757   2.102  1.00  0.00     0.013 A 
ENDBRANCH  19  23
ENDBRANCH  18  19
ENDBRANCH   1  18
TORSDOF 6
ENDMDL
MODEL 5
REMARK VINA RESULT:      -8.3      4.110      6.903
REMARK  6 active torsions:
REMARK  status: ('A' for Active; 'I' for Inactive)
REMARK    1  A    between atoms: C_2  and  O_3 
REMARK    2  A    between atoms: C_2  and  C_4 
REMARK    3  A    between atoms: C_2  and  C_11 
REMARK    4  A    between atoms: C_11  and  N_12 
REMARK       I    between atoms: N_12  and  C_13 
REMARK    5  A    between atoms: C_13  and  C_14 
REMARK    6  A    between atoms: C_15  and  C_16 
ROOT
HETATM    1  N   UNL     1      41.881 -12.855   3.913  1.00  0.00    -0.354 N 
HETATM    2  C   UNL     1      42.386 -13.571   2.847  1.00  0.00     0.255 C 
HETATM    3  O   UNL     1      43.540 -13.437   2.455  1.00  0.00    -0.268 OA
HETATM    4  H   UNL     1      40.901 -12.934   4.138  1.00  0.00     0.162 HD
ENDROOT
BRANCH   2   5
HETATM    5  C   UNL     1      41.432 -14.472   2.212  1.00  0.00     0.080 A 
HETATM    6  C   UNL     1      41.364 -15.906   2.271  1.00  0.00     0.104 A 
HETATM    7  N   UNL     1      40.299 -16.363   1.587  1.00  0.00    -0.174 NA
HETATM    8  N   UNL     1      39.711 -15.270   1.097  1.00  0.00    -0.288 N 
HETATM    9  H   UNL     1      38.870 -15.390   0.542  1.00  0.00     0.188 HD
HETATM   10  C   UNL     1      40.342 -14.115   1.434  1.00  0.00     0.128 A 
BRANCH   6  11
HETATM   11  C   UNL     1      42.257 -16.866   2.929  1.00  0.00    -0.004 A 
HETATM   12  C   UNL     1      42.811 -17.925   2.187  1.00  0.00     0.017 A 
HETATM   13  C   UNL     1      43.679 -18.839   2.787  1.00  0.00     0.043 A 
HETATM   14  C   UNL     1      44.000 -18.695   4.131  1.00  0.00     0.116 A 
HETATM   15  F   UNL     1      44.832 -19.571   4.709  1.00  0.00    -0.206 F 
HETATM   16  C   UNL     1      43.475 -17.651   4.882  1.00  0.00     0.043 A 
HETATM   17  C   UNL     1      42.610 -16.732   4.280  1.00  0.00     0.017 A 
ENDBRANCH   6  11
ENDBRANCH   2   5
BRANCH   1  18
HETATM   18  C   UNL     1      42.684 -11.900   4.658  1.00  0.00     0.165 C 
BRANCH  18  19
HETATM   19  C   UNL     1      42.789 -12.186   6.186  1.00  0.00     0.097 C 
HETATM   20  C   UNL     1      43.020 -13.692   6.404  1.00  0.00     0.053 C 
BRANCH  19  21
HETATM   21  O   UNL     1      41.490 -11.928   6.755  1.00  0.00    -0.384 OA
HETATM   22  H   UNL     1      40.868 -12.568   6.366  1.00  0.00     0.211 HD
ENDBRANCH  19  21
BRANCH  19  23
HETATM   23  C   UNL     1      43.797 -11.278   6.895  1.00  0.00    -0.023 A 
HETATM   24  C   UNL     1      43.419 -10.158   7.656  1.00  0.00     0.013 A 
HETATM   25  C   UNL     1      44.379  -9.351   8.274  1.00  0.00     0.043 A 
HETATM   26  C   UNL     1      45.726  -9.655   8.140  1.00  0.00     0.116 A 
HETATM   27  F   UNL     1      46.642  -8.876   8.731  1.00  0.00    -0.206 F 
HETATM   28  C   UNL     1      46.134 -10.752   7.397  1.00  0.00     0.043 A 
HETATM   29  C   UNL     1      45.176 -11.555   6.777  1.00  0.00     0.013 A 
ENDBRANCH  19  23
ENDBRANCH  18  19
ENDBRANCH   1  18
TORSDOF 6
ENDMDL
MODEL 6
REMARK VINA RESULT:      -8.3      1.484      2.140
REMARK  6 active torsions:
REMARK  status: ('A' for Active; 'I' for Inactive)
REMARK    1  A    between atoms: C_2  and  O_3 
REMARK    2  A    between atoms: C_2  and  C_4 
REMARK    3  A    between atoms: C_2  and  C_11 
REMARK    4  A    between atoms: C_11  and  N_12 
REMARK       I    between atoms: N_12  and  C_13 
REMARK    5  A    between atoms: C_13  and  C_14 
REMARK    6  A    between atoms: C_15  and  C_16 
ROOT
HETATM    1  N   UNL     1      41.190 -13.482   2.311  1.00  0.00    -0.354 N 
HETATM    2  C   UNL     1      42.408 -13.814   2.868  1.00  0.00     0.255 C 
HETATM    3  O   UNL     1      43.459 -13.730   2.244  1.00  0.00    -0.268 OA
HETATM    4  H   UNL     1      40.346 -13.654   2.835  1.00  0.00     0.162 HD
ENDROOT
BRANCH   2   5
HETATM    5  C   UNL     1      42.337 -14.294   4.243  1.00  0.00     0.080 A 
HETATM    6  C   UNL     1      42.645 -15.597   4.764  1.00  0.00     0.104 A 
HETATM    7  N   UNL     1      42.501 -15.623   6.102  1.00  0.00    -0.174 NA
HETATM    8  N   UNL     1      42.107 -14.392   6.429  1.00  0.00    -0.288 N 
HETATM    9  H   UNL     1      41.941 -14.189   7.410  1.00  0.00     0.188 HD
HETATM   10  C   UNL     1      41.989 -13.557   5.363  1.00  0.00     0.128 A 
BRANCH   6  11
HETATM   11  C   UNL     1      43.055 -16.820   4.064  1.00  0.00    -0.004 A 
HETATM   12  C   UNL     1      44.033 -17.654   4.635  1.00  0.00     0.017 A 
HETATM   13  C   UNL     1      44.424 -18.833   3.997  1.00  0.00     0.043 A 
HETATM   14  C   UNL     1      43.836 -19.185   2.789  1.00  0.00     0.116 A 
HETATM   15  F   UNL     1      44.211 -20.315   2.176  1.00  0.00    -0.206 F 
HETATM   16  C   UNL     1      42.860 -18.383   2.212  1.00  0.00     0.043 A 
HETATM   17  C   UNL     1      42.463 -17.205   2.852  1.00  0.00     0.017 A 
ENDBRANCH   6  11
ENDBRANCH   2   5
BRANCH   1  18
HETATM   18  C   UNL     1      41.066 -12.996   0.946  1.00  0.00     0.165 C 
BRANCH  18  19
HETATM   19  C   UNL     1      39.644 -12.492   0.558  1.00  0.00     0.097 C 
HETATM   20  C   UNL     1      39.620 -10.955   0.614  1.00  0.00     0.053 C 
BRANCH  19  21
HETATM   21  O   UNL     1      38.746 -12.912   1.605  1.00  0.00    -0.384 OA
HETATM   22  H   UNL     1      37.843 -12.888   1.241  1.00  0.00     0.211 HD
ENDBRANCH  19  21
BRANCH  19  23
HETATM   23  C   UNL     1      39.138 -13.090  -0.758  1.00  0.00    -0.023 A 
HETATM   24  C   UNL     1      38.037 -12.572  -1.462  1.00  0.00     0.013 A 
HETATM   25  C   UNL     1      37.604 -13.162  -2.654  1.00  0.00     0.043 A 
HETATM   26  C   UNL     1      38.267 -14.273  -3.155  1.00  0.00     0.116 A 
HETATM   27  F   UNL     1      37.845 -14.836  -4.295  1.00  0.00    -0.206 F 
HETATM   28  C   UNL     1      39.357 -14.808  -2.486  1.00  0.00     0.043 A 
HETATM   29  C   UNL     1      39.787 -14.223  -1.294  1.00  0.00     0.013 A 
ENDBRANCH  19  23
ENDBRANCH  18  19
ENDBRANCH   1  18
TORSDOF 6
ENDMDL
MODEL 7
REMARK VINA RESULT:      -8.2      3.410      7.070
REMARK  6 active torsions:
REMARK  status: ('A' for Active; 'I' for Inactive)
REMARK    1  A    between atoms: C_2  and  O_3 
REMARK    2  A    between atoms: C_2  and  C_4 
REMARK    3  A    between atoms: C_2  and  C_11 
REMARK    4  A    between atoms: C_11  and  N_12 
REMARK       I    between atoms: N_12  and  C_13 
REMARK    5  A    between atoms: C_13  and  C_14 
REMARK    6  A    between atoms: C_15  and  C_16 
ROOT
HETATM    1  N   UNL     1      40.575 -14.881   2.659  1.00  0.00    -0.354 N 
HETATM    2  C   UNL     1      40.535 -13.777   1.832  1.00  0.00     0.255 C 
HETATM    3  O   UNL     1      40.995 -13.790   0.696  1.00  0.00    -0.268 OA
HETATM    4  H   UNL     1      40.266 -14.791   3.614  1.00  0.00     0.162 HD
ENDROOT
BRANCH   2   5
HETATM    5  C   UNL     1      39.929 -12.592   2.428  1.00  0.00     0.080 A 
HETATM    6  C   UNL     1      40.430 -11.749   3.478  1.00  0.00     0.104 A 
HETATM    7  N   UNL     1      39.591 -10.721   3.706  1.00  0.00    -0.174 NA
HETATM    8  N   UNL     1      38.586 -10.900   2.848  1.00  0.00    -0.288 N 
HETATM    9  H   UNL     1      37.831 -10.222   2.850  1.00  0.00     0.188 HD
HETATM   10  C   UNL     1      38.730 -12.000   2.062  1.00  0.00     0.128 A 
BRANCH   6  11
HETATM   11  C   UNL     1      41.650 -11.868   4.282  1.00  0.00    -0.004 A 
HETATM   12  C   UNL     1      41.604 -12.521   5.527  1.00  0.00     0.017 A 
HETATM   13  C   UNL     1      42.757 -12.665   6.301  1.00  0.00     0.043 A 
HETATM   14  C   UNL     1      43.963 -12.160   5.830  1.00  0.00     0.116 A 
HETATM   15  F   UNL     1      45.070 -12.297   6.571  1.00  0.00    -0.206 F 
HETATM   16  C   UNL     1      44.036 -11.523   4.599  1.00  0.00     0.043 A 
HETATM   17  C   UNL     1      42.883 -11.383   3.821  1.00  0.00     0.017 A 
ENDBRANCH   6  11
ENDBRANCH   2   5
BRANCH   1  18
HETATM   18  C   UNL     1      41.154 -16.146   2.237  1.00  0.00     0.165 C 
BRANCH  18  19
HETATM   19  C   UNL     1      42.688 -16.275   2.480  1.00  0.00     0.097 C 
HETATM   20  C   UNL     1      43.130 -15.210   3.499  1.00  0.00     0.053 C 
BRANCH  19  21
HETATM   21  O   UNL     1      43.344 -15.903   1.252  1.00  0.00    -0.384 OA
HETATM   22  H   UNL     1      42.700 -16.018   0.530  1.00  0.00     0.211 HD
ENDBRANCH  19  21
BRANCH  19  23
HETATM   23  C   UNL     1      43.119 -17.703   2.825  1.00  0.00    -0.023 A 
HETATM   24  C   UNL     1      43.822 -18.030   3.998  1.00  0.00     0.013 A 
HETATM   25  C   UNL     1      44.206 -19.349   4.262  1.00  0.00     0.043 A 
HETATM   26  C   UNL     1      43.890 -20.354   3.359  1.00  0.00     0.116 A 
HETATM   27  F   UNL     1      44.264 -21.614   3.615  1.00  0.00    -0.206 F 
HETATM   28  C   UNL     1      43.197 -20.066   2.193  1.00  0.00     0.043 A 
HETATM   29  C   UNL     1      42.818 -18.750   1.927  1.00  0.00     0.013 A 
ENDBRANCH  19  23
ENDBRANCH  18  19
ENDBRANCH   1  18
TORSDOF 6
ENDMDL
MODEL 8
REMARK VINA RESULT:      -8.1      5.249      8.267
REMARK  6 active torsions:
REMARK  status: ('A' for Active; 'I' for Inactive)
REMARK    1  A    between atoms: C_2  and  O_3 
REMARK    2  A    between atoms: C_2  and  C_4 
REMARK    3  A    between atoms: C_2  and  C_11 
REMARK    4  A    between atoms: C_11  and  N_12 
REMARK       I    between atoms: N_12  and  C_13 
REMARK    5  A    between atoms: C_13  and  C_14 
REMARK    6  A    between atoms: C_15  and  C_16 
ROOT
HETATM    1  N   UNL     1      43.207 -12.413   5.754  1.00  0.00    -0.354 N 
HETATM    2  C   UNL     1      43.875 -12.556   6.952  1.00  0.00     0.255 C 
HETATM    3  O   UNL     1      43.634 -13.470   7.733  1.00  0.00    -0.268 OA
HETATM    4  H   UNL     1      43.377 -11.594   5.190  1.00  0.00     0.162 HD
ENDROOT
BRANCH   2   5
HETATM    5  C   UNL     1      44.866 -11.521   7.224  1.00  0.00     0.080 A 
HETATM    6  C   UNL     1      44.871 -10.520   8.254  1.00  0.00     0.104 A 
HETATM    7  N   UNL     1      45.996  -9.783   8.199  1.00  0.00    -0.174 NA
HETATM    8  N   UNL     1      46.682 -10.280   7.169  1.00  0.00    -0.288 N 
HETATM    9  H   UNL     1      47.581  -9.863   6.950  1.00  0.00     0.188 HD
HETATM   10  C   UNL     1      46.058 -11.315   6.548  1.00  0.00     0.128 A 
BRANCH   6  11
HETATM   11  C   UNL     1      43.867 -10.216   9.279  1.00  0.00    -0.004 A 
HETATM   12  C   UNL     1      44.102 -10.582  10.616  1.00  0.00     0.017 A 
HETATM   13  C   UNL     1      43.170 -10.285  11.612  1.00  0.00     0.043 A 
HETATM   14  C   UNL     1      42.000  -9.616  11.275  1.00  0.00     0.116 A 
HETATM   15  F   UNL     1      41.104  -9.331  12.229  1.00  0.00    -0.206 F 
HETATM   16  C   UNL     1      41.750  -9.234   9.964  1.00  0.00     0.043 A 
HETATM   17  C   UNL     1      42.685  -9.526   8.966  1.00  0.00     0.017 A 
ENDBRANCH   6  11
ENDBRANCH   2   5
BRANCH   1  18
HETATM   18  C   UNL     1      42.176 -13.344   5.323  1.00  0.00     0.165 C 
BRANCH  18  19
HETATM   19  C   UNL     1      42.360 -13.899   3.879  1.00  0.00     0.097 C 
HETATM   20  C   UNL     1      43.203 -12.906   3.059  1.00  0.00     0.053 C 
BRANCH  19  21
HETATM   21  O   UNL     1      41.062 -13.885   3.252  1.00  0.00    -0.384 OA
HETATM   22  H   UNL     1      41.134 -14.390   2.422  1.00  0.00     0.211 HD
ENDBRANCH  19  21
BRANCH  19  23
HETATM   23  C   UNL     1      42.874 -15.341   3.856  1.00  0.00    -0.023 A 
HETATM   24  C   UNL     1      43.396 -15.989   4.989  1.00  0.00     0.013 A 
HETATM   25  C   UNL     1      43.866 -17.303   4.914  1.00  0.00     0.043 A 
HETATM   26  C   UNL     1      43.818 -17.985   3.706  1.00  0.00     0.116 A 
HETATM   27  F   UNL     1      44.273 -19.243   3.639  1.00  0.00    -0.206 F 
HETATM   28  C   UNL     1      43.309 -17.377   2.570  1.00  0.00     0.043 A 
HETATM   29  C   UNL     1      42.843 -16.063   2.643  1.00  0.00     0.013 A 
ENDBRANCH  19  23
ENDBRANCH  18  19
ENDBRANCH   1  18
TORSDOF 6
ENDMDL
MODEL 9
REMARK VINA RESULT:      -8.0     14.159     16.423
REMARK  6 active torsions:
REMARK  status: ('A' for Active; 'I' for Inactive)
REMARK    1  A    between atoms: C_2  and  O_3 
REMARK    2  A    between atoms: C_2  and  C_4 
REMARK    3  A    between atoms: C_2  and  C_11 
REMARK    4  A    between atoms: C_11  and  N_12 
REMARK       I    between atoms: N_12  and  C_13 
REMARK    5  A    between atoms: C_13  and  C_14 
REMARK    6  A    between atoms: C_15  and  C_16 
ROOT
HETATM    1  N   UNL     1      46.346 -30.222   2.655  1.00  0.00    -0.354 N 
HETATM    2  C   UNL     1      45.542 -30.681   1.632  1.00  0.00     0.255 C 
HETATM    3  O   UNL     1      45.923 -31.520   0.823  1.00  0.00    -0.268 OA
HETATM    4  H   UNL     1      46.018 -29.467   3.237  1.00  0.00     0.162 HD
ENDROOT
BRANCH   2   5
HETATM    5  C   UNL     1      44.219 -30.071   1.577  1.00  0.00     0.080 A 
HETATM    6  C   UNL     1      43.582 -29.385   0.487  1.00  0.00     0.104 A 
HETATM    7  N   UNL     1      42.332 -29.013   0.821  1.00  0.00    -0.174 NA
HETATM    8  N   UNL     1      42.174 -29.431   2.078  1.00  0.00    -0.288 N 
HETATM    9  H   UNL     1      41.283 -29.252   2.531  1.00  0.00     0.188 HD
HETATM   10  C   UNL     1      43.265 -30.065   2.583  1.00  0.00     0.128 A 
BRANCH   6  11
HETATM   11  C   UNL     1      44.094 -29.054  -0.847  1.00  0.00    -0.004 A 
HETATM   12  C   UNL     1      43.584 -29.721  -1.975  1.00  0.00     0.017 A 
HETATM   13  C   UNL     1      44.042 -29.408  -3.257  1.00  0.00     0.043 A 
HETATM   14  C   UNL     1      45.009 -28.423  -3.415  1.00  0.00     0.116 A 
HETATM   15  F   UNL     1      45.449 -28.122  -4.643  1.00  0.00    -0.206 F 
HETATM   16  C   UNL     1      45.519 -27.742  -2.318  1.00  0.00     0.043 A 
HETATM   17  C   UNL     1      45.057 -28.051  -1.034  1.00  0.00     0.017 A 
ENDBRANCH   6  11
ENDBRANCH   2   5
BRANCH   1  18
HETATM   18  C   UNL     1      47.701 -30.709   2.856  1.00  0.00     0.165 C 
BRANCH  18  19
HETATM   19  C   UNL     1      48.822 -29.705   2.453  1.00  0.00     0.097 C 
HETATM   20  C   UNL     1      49.879 -29.652   3.570  1.00  0.00     0.053 C 
BRANCH  19  21
HETATM   21  O   UNL     1      48.231 -28.391   2.444  1.00  0.00    -0.384 OA
HETATM   22  H   UNL     1      48.935 -27.755   2.223  1.00  0.00     0.211 HD
ENDBRANCH  19  21
BRANCH  19  23
HETATM   23  C   UNL     1      49.387 -29.971   1.055  1.00  0.00    -0.023 A 
HETATM   24  C   UNL     1      50.584 -30.674   0.831  1.00  0.00     0.013 A 
HETATM   25  C   UNL     1      51.066 -30.880  -0.465  1.00  0.00     0.043 A 
HETATM   26  C   UNL     1      50.357 -30.388  -1.551  1.00  0.00     0.116 A 
HETATM   27  F   UNL     1      50.826 -30.584  -2.791  1.00  0.00    -0.206 F 
HETATM   28  C   UNL     1      49.173 -29.691  -1.367  1.00  0.00     0.043 A 
HETATM   29  C   UNL     1      48.693 -29.482  -0.073  1.00  0.00     0.013 A 
ENDBRANCH  19  23
ENDBRANCH  18  19
ENDBRANCH   1  18
TORSDOF 6
ENDMDL
MODEL 10
REMARK VINA RESULT:      -8.0     14.131     16.293
REMARK  6 active torsions:
REMARK  status: ('A' for Active; 'I' for Inactive)
REMARK    1  A    between atoms: C_2  and  O_3 
REMARK    2  A    between atoms: C_2  and  C_4 
REMARK    3  A    between atoms: C_2  and  C_11 
REMARK    4  A    between atoms: C_11  and  N_12 
REMARK       I    between atoms: N_12  and  C_13 
REMARK    5  A    between atoms: C_13  and  C_14 
REMARK    6  A    between atoms: C_15  and  C_16 
ROOT
HETATM    1  N   UNL     1      47.328 -29.894   2.230  1.00  0.00    -0.354 N 
HETATM    2  C   UNL     1      46.440 -28.897   1.884  1.00  0.00     0.255 C 
HETATM    3  O   UNL     1      46.798 -27.743   1.675  1.00  0.00    -0.268 OA
HETATM    4  H   UNL     1      46.973 -30.804   2.479  1.00  0.00     0.162 HD
ENDROOT
BRANCH   2   5
HETATM    5  C   UNL     1      45.046 -29.320   1.814  1.00  0.00     0.080 A 
HETATM    6  C   UNL     1      44.200 -29.463   0.663  1.00  0.00     0.104 A 
HETATM    7  N   UNL     1      42.987 -29.930   1.015  1.00  0.00    -0.174 NA
HETATM    8  N   UNL     1      43.046 -30.071   2.340  1.00  0.00    -0.288 N 
HETATM    9  H   UNL     1      42.222 -30.422   2.819  1.00  0.00     0.188 HD
HETATM   10  C   UNL     1      44.246 -29.721   2.873  1.00  0.00     0.128 A 
BRANCH   6  11
HETATM   11  C   UNL     1      44.471 -29.172  -0.749  1.00  0.00    -0.004 A 
HETATM   12  C   UNL     1      44.029 -30.065  -1.742  1.00  0.00     0.017 A 
HETATM   13  C   UNL     1      44.258 -29.798  -3.094  1.00  0.00     0.043 A 
HETATM   14  C   UNL     1      44.925 -28.636  -3.458  1.00  0.00     0.116 A 
HETATM   15  F   UNL     1      45.146 -28.379  -4.753  1.00  0.00    -0.206 F 
HETATM   16  C   UNL     1      45.360 -27.733  -2.496  1.00  0.00     0.043 A 
HETATM   17  C   UNL     1      45.127 -27.996  -1.143  1.00  0.00     0.017 A 
ENDBRANCH   6  11
ENDBRANCH   2   5
BRANCH   1  18
HETATM   18  C   UNL     1      48.756 -29.652   2.359  1.00  0.00     0.165 C 
BRANCH  18  19
HETATM   19  C   UNL     1      49.643 -30.418   1.333  1.00  0.00     0.097 C 
HETATM   20  C   UNL     1      50.194 -31.694   1.992  1.00  0.00     0.053 C 
BRANCH  19  21
HETATM   21  O   UNL     1      50.806 -29.601   1.086  1.00  0.00    -0.384 OA
HETATM   22  H   UNL     1      51.302 -30.014   0.356  1.00  0.00     0.211 HD
ENDBRANCH  19  21
BRANCH  19  23
HETATM   23  C   UNL     1      48.941 -30.647  -0.009  1.00  0.00    -0.023 A 
HETATM   24  C   UNL     1      48.311 -31.857  -0.349  1.00  0.00     0.013 A 
HETATM   25  C   UNL     1      47.694 -32.022  -1.593  1.00  0.00     0.043 A 
HETATM   26  C   UNL     1      47.699 -30.980  -2.509  1.00  0.00     0.116 A 
HETATM   27  F   UNL     1      47.110 -31.146  -3.701  1.00  0.00    -0.206 F 
HETATM   28  C   UNL     1      48.310 -29.773  -2.206  1.00  0.00     0.043 A 
HETATM   29  C   UNL     1      48.929 -29.609  -0.966  1.00  0.00     0.013 A 
ENDBRANCH  19  23
ENDBRANCH  18  19
ENDBRANCH   1  18
TORSDOF 6
ENDMDL
