MODEL 1
REMARK VINA RESULT:      -8.3      0.000      0.000
REMARK  10 active torsions:
REMARK  status: ('A' for Active; 'I' for Inactive)
REMARK    1  A    between atoms: C_2  and  N_3 
REMARK    2  A    between atoms: N_3  and  C_5 
REMARK    3  A    between atoms: N_3  and  C_34 
REMARK    4  A    between atoms: C_5  and  C_6 
REMARK    5  A    between atoms: N_7  and  C_8 
REMARK    6  A    between atoms: C_12  and  N_13 
REMARK    7  A    between atoms: C_16  and  C_17 
REMARK       I    between atoms: C_17  and  N_18 
REMARK    8  A    between atoms: N_18  and  N_19 
REMARK    9  A    between atoms: C_20  and  C_21 
REMARK   10  A    between atoms: C_23  and  C_24 
ROOT
HETATM    1  C   UNL     1      40.777  -8.936   9.455  1.00  0.00     0.096 A 
HETATM    2  N   UNL     1      39.845  -8.525  10.405  1.00  0.00    -0.215 N 
HETATM    3  N   UNL     1      38.614  -8.512   9.830  1.00  0.00     0.012 NA
HETATM    4  N   UNL     1      38.701  -8.989   8.599  1.00  0.00    -0.152 NA
HETATM    5  C   UNL     1      40.012  -9.262   8.344  1.00  0.00     0.170 A 
ENDROOT
BRANCH   5   6
HETATM    6  C   UNL     1      40.496  -9.824   7.089  1.00  0.00     0.293 C 
HETATM    7  N   UNL     1      40.293 -11.185   6.960  1.00  0.00    -0.242 N 
HETATM    8  H   UNL     1      39.839 -11.712   7.704  1.00  0.00     0.192 HD
HETATM    9  O   UNL     1      41.059  -9.102   6.269  1.00  0.00    -0.264 OA
BRANCH   7  10
HETATM   10  N   UNL     1      40.706 -11.811   5.821  1.00  0.00    -0.181 NA
HETATM   11  C   UNL     1      41.878 -12.361   5.851  1.00  0.00     0.175 C 
BRANCH  11  12
HETATM   12  C   UNL     1      42.381 -13.048   4.697  1.00  0.00     0.095 A 
HETATM   13  O   UNL     1      42.507 -14.405   4.757  1.00  0.00    -0.309 OA
HETATM   14  C   UNL     1      43.007 -14.831   3.555  1.00  0.00     0.086 A 
HETATM   15  C   UNL     1      43.190 -13.739   2.727  1.00  0.00     0.041 A 
HETATM   16  C   UNL     1      42.793 -12.597   3.461  1.00  0.00     0.041 A 
BRANCH  14  17
HETATM   17  C   UNL     1      43.232 -16.267   3.409  1.00  0.00    -0.002 A 
HETATM   18  C   UNL     1      42.793 -16.964   2.272  1.00  0.00     0.015 A 
HETATM   19  C   UNL     1      43.004 -18.342   2.145  1.00  0.00     0.020 A 
HETATM   20  C   UNL     1      43.657 -19.037   3.158  1.00  0.00     0.011 A 
HETATM   21 BR   UNL     1      43.941 -20.897   2.991  1.00  0.00    -0.051 Br
HETATM   22  C   UNL     1      44.102 -18.368   4.295  1.00  0.00     0.020 A 
HETATM   23  C   UNL     1      43.889 -16.990   4.418  1.00  0.00     0.015 A 
ENDBRANCH  14  17
ENDBRANCH  11  12
ENDBRANCH   7  10
ENDBRANCH   5   6
BRANCH   1  24
HETATM   24  C   UNL     1      42.251  -8.909   9.621  1.00  0.00     0.296 C 
BRANCH  24  25
HETATM   25  N   UNL     1      42.938 -10.261   9.732  1.00  0.00    -0.066 N 
HETATM   26  H   UNL     1      42.191 -10.971   9.696  1.00  0.00     0.280 HD
BRANCH  25  27
HETATM   27  C   UNL     1      43.638 -10.407  11.078  1.00  0.00     0.231 C 
HETATM   28  C   UNL     1      43.732  -9.073  11.799  1.00  0.00     0.034 C 
ENDBRANCH  25  27
BRANCH  25  29
HETATM   29  C   UNL     1      43.902 -10.519   8.582  1.00  0.00     0.231 C 
HETATM   30  C   UNL     1      44.810  -9.322   8.353  1.00  0.00     0.034 C 
ENDBRANCH  25  29
ENDBRANCH  24  25
ENDBRANCH   1  24
BRANCH   2  31
HETATM   31  C   UNL     1      40.053  -8.213  11.769  1.00  0.00     0.225 A 
HETATM   32  N   UNL     1      40.104  -6.936  12.159  1.00  0.00    -0.081 NA
HETATM   33  O   UNL     1      40.338  -7.022  13.536  1.00  0.00    -0.103 OA
HETATM   34  N   UNL     1      40.452  -8.343  13.944  1.00  0.00    -0.083 NA
HETATM   35  C   UNL     1      40.279  -9.082  12.849  1.00  0.00     0.201 A 
BRANCH  35  36
HETATM   36  N   UNL     1      40.310 -10.423  12.823  1.00  0.00    -0.379 N 
HETATM   37  H   UNL     1      40.496 -10.949  13.674  1.00  0.00     0.158 HD
HETATM   38  H   UNL     1      40.324 -10.977  11.969  1.00  0.00     0.158 HD
ENDBRANCH  35  36
ENDBRANCH   2  31
TORSDOF 10
ENDMDL
MODEL 2
REMARK VINA RESULT:      -8.2      5.159     11.147
REMARK  10 active torsions:
REMARK  status: ('A' for Active; 'I' for Inactive)
REMARK    1  A    between atoms: C_2  and  N_3 
REMARK    2  A    between atoms: N_3  and  C_5 
REMARK    3  A    between atoms: N_3  and  C_34 
REMARK    4  A    between atoms: C_5  and  C_6 
REMARK    5  A    between atoms: N_7  and  C_8 
REMARK    6  A    between atoms: C_12  and  N_13 
REMARK    7  A    between atoms: C_16  and  C_17 
REMARK       I    between atoms: C_17  and  N_18 
REMARK    8  A    between atoms: N_18  and  N_19 
REMARK    9  A    between atoms: C_20  and  C_21 
REMARK   10  A    between atoms: C_23  and  C_24 
ROOT
HETATM    1  C   UNL     1      43.023 -16.733   4.501  1.00  0.00     0.096 A 
HETATM    2  N   UNL     1      43.887 -17.820   4.395  1.00  0.00    -0.215 N 
HETATM    3  N   UNL     1      44.897 -17.662   5.290  1.00  0.00     0.012 NA
HETATM    4  N   UNL     1      44.667 -16.587   6.025  1.00  0.00    -0.152 NA
HETATM    5  C   UNL     1      43.523 -16.000   5.569  1.00  0.00     0.170 A 
ENDROOT
BRANCH   5   6
HETATM    6  C   UNL     1      42.939 -14.798   6.150  1.00  0.00     0.293 C 
HETATM    7  N   UNL     1      43.863 -13.835   6.511  1.00  0.00    -0.242 N 
HETATM    8  H   UNL     1      44.858 -13.994   6.366  1.00  0.00     0.192 HD
HETATM    9  O   UNL     1      41.723 -14.721   6.310  1.00  0.00    -0.264 OA
BRANCH   7  10
HETATM   10  N   UNL     1      43.422 -12.668   7.062  1.00  0.00    -0.181 NA
HETATM   11  C   UNL     1      44.327 -11.851   7.497  1.00  0.00     0.175 C 
BRANCH  11  12
HETATM   12  C   UNL     1      43.944 -10.598   8.081  1.00  0.00     0.095 A 
HETATM   13  O   UNL     1      43.564 -10.585   9.391  1.00  0.00    -0.309 OA
HETATM   14  C   UNL     1      43.241  -9.294   9.718  1.00  0.00     0.086 A 
HETATM   15  C   UNL     1      43.425  -8.485   8.613  1.00  0.00     0.041 A 
HETATM   16  C   UNL     1      43.872  -9.322   7.563  1.00  0.00     0.041 A 
BRANCH  14  17
HETATM   17  C   UNL     1      42.792  -9.058  11.088  1.00  0.00    -0.002 A 
HETATM   18  C   UNL     1      41.603  -9.623  11.575  1.00  0.00     0.015 A 
HETATM   19  C   UNL     1      41.175  -9.383  12.886  1.00  0.00     0.020 A 
HETATM   20  C   UNL     1      41.935  -8.573  13.724  1.00  0.00     0.011 A 
HETATM   21 BR   UNL     1      41.358  -8.245  15.493  1.00  0.00    -0.051 Br
HETATM   22  C   UNL     1      43.118  -8.002  13.264  1.00  0.00     0.020 A 
HETATM   23  C   UNL     1      43.542  -8.244  11.953  1.00  0.00     0.015 A 
ENDBRANCH  14  17
ENDBRANCH  11  12
ENDBRANCH   7  10
ENDBRANCH   5   6
BRANCH   1  24
HETATM   24  C   UNL     1      41.899 -16.427   3.581  1.00  0.00     0.296 C 
BRANCH  24  25
HETATM   25  N   UNL     1      42.282 -16.030   2.164  1.00  0.00    -0.066 N 
HETATM   26  H   UNL     1      42.655 -16.880   1.714  1.00  0.00     0.280 HD
BRANCH  25  27
HETATM   27  C   UNL     1      43.397 -14.993   2.172  1.00  0.00     0.231 C 
HETATM   28  C   UNL     1      42.870 -13.617   2.539  1.00  0.00     0.034 C 
ENDBRANCH  25  27
BRANCH  25  29
HETATM   29  C   UNL     1      41.087 -15.545   1.355  1.00  0.00     0.231 C 
HETATM   30  C   UNL     1      39.800 -15.668   2.154  1.00  0.00     0.034 C 
ENDBRANCH  25  29
ENDBRANCH  24  25
ENDBRANCH   1  24
BRANCH   2  31
HETATM   31  C   UNL     1      43.772 -18.961   3.568  1.00  0.00     0.225 A 
HETATM   32  N   UNL     1      43.363 -18.827   2.302  1.00  0.00    -0.081 NA
HETATM   33  O   UNL     1      43.354 -20.139   1.818  1.00  0.00    -0.103 OA
HETATM   34  N   UNL     1      43.728 -21.040   2.805  1.00  0.00    -0.083 NA
HETATM   35  C   UNL     1      43.984 -20.312   3.890  1.00  0.00     0.201 A 
BRANCH  35  36
HETATM   36  N   UNL     1      44.384 -20.814   5.068  1.00  0.00    -0.379 N 
HETATM   37  H   UNL     1      45.110 -21.526   5.103  1.00  0.00     0.158 HD
HETATM   38  H   UNL     1      43.898 -20.659   5.950  1.00  0.00     0.158 HD
ENDBRANCH  35  36
ENDBRANCH   2  31
TORSDOF 10
ENDMDL
MODEL 3
REMARK VINA RESULT:      -8.0      4.738     10.464
REMARK  10 active torsions:
REMARK  status: ('A' for Active; 'I' for Inactive)
REMARK    1  A    between atoms: C_2  and  N_3 
REMARK    2  A    between atoms: N_3  and  C_5 
REMARK    3  A    between atoms: N_3  and  C_34 
REMARK    4  A    between atoms: C_5  and  C_6 
REMARK    5  A    between atoms: N_7  and  C_8 
REMARK    6  A    between atoms: C_12  and  N_13 
REMARK    7  A    between atoms: C_16  and  C_17 
REMARK       I    between atoms: C_17  and  N_18 
REMARK    8  A    between atoms: N_18  and  N_19 
REMARK    9  A    between atoms: C_20  and  C_21 
REMARK   10  A    between atoms: C_23  and  C_24 
ROOT
HETATM    1  C   UNL     1      41.067 -13.232   3.018  1.00  0.00     0.096 A 
HETATM    2  N   UNL     1      40.151 -12.976   2.001  1.00  0.00    -0.215 N 
HETATM    3  N   UNL     1      39.046 -12.402   2.545  1.00  0.00     0.012 NA
HETATM    4  N   UNL     1      39.252 -12.188   3.834  1.00  0.00    -0.152 NA
HETATM    5  C   UNL     1      40.484 -12.680   4.151  1.00  0.00     0.170 A 
ENDROOT
BRANCH   5   6
HETATM    6  C   UNL     1      41.069 -12.606   5.484  1.00  0.00     0.293 C 
HETATM    7  N   UNL     1      42.240 -11.874   5.550  1.00  0.00    -0.242 N 
HETATM    8  H   UNL     1      42.625 -11.439   4.714  1.00  0.00     0.192 HD
HETATM    9  O   UNL     1      40.538 -13.197   6.422  1.00  0.00    -0.264 OA
BRANCH   7  10
HETATM   10  N   UNL     1      42.869 -11.740   6.753  1.00  0.00    -0.181 NA
HETATM   11  C   UNL     1      43.193 -10.537   7.110  1.00  0.00     0.175 C 
BRANCH  11  12
HETATM   12  C   UNL     1      43.848 -10.312   8.365  1.00  0.00     0.095 A 
HETATM   13  O   UNL     1      43.092  -9.900   9.424  1.00  0.00    -0.309 OA
HETATM   14  C   UNL     1      43.928  -9.746  10.498  1.00  0.00     0.086 A 
HETATM   15  C   UNL     1      45.218 -10.070  10.120  1.00  0.00     0.041 A 
HETATM   16  C   UNL     1      45.167 -10.428   8.753  1.00  0.00     0.041 A 
BRANCH  14  17
HETATM   17  C   UNL     1      43.317  -9.294  11.745  1.00  0.00    -0.002 A 
HETATM   18  C   UNL     1      43.654  -8.058  12.320  1.00  0.00     0.015 A 
HETATM   19  C   UNL     1      43.071  -7.638  13.520  1.00  0.00     0.020 A 
HETATM   20  C   UNL     1      42.142  -8.453  14.159  1.00  0.00     0.011 A 
HETATM   21 BR   UNL     1      41.355  -7.889  15.782  1.00  0.00    -0.051 Br
HETATM   22  C   UNL     1      41.790  -9.682  13.610  1.00  0.00     0.020 A 
HETATM   23  C   UNL     1      42.376 -10.099  12.409  1.00  0.00     0.015 A 
ENDBRANCH  14  17
ENDBRANCH  11  12
ENDBRANCH   7  10
ENDBRANCH   5   6
BRANCH   1  24
HETATM   24  C   UNL     1      42.320 -14.014   2.878  1.00  0.00     0.296 C 
BRANCH  24  25
HETATM   25  N   UNL     1      42.199 -15.515   3.088  1.00  0.00    -0.066 N 
HETATM   26  H   UNL     1      41.258 -15.781   2.762  1.00  0.00     0.280 HD
BRANCH  25  27
HETATM   27  C   UNL     1      42.282 -15.866   4.569  1.00  0.00     0.231 C 
HETATM   28  C   UNL     1      40.946 -16.361   5.095  1.00  0.00     0.034 C 
ENDBRANCH  25  27
BRANCH  25  29
HETATM   29  C   UNL     1      43.226 -16.299   2.281  1.00  0.00     0.231 C 
HETATM   30  C   UNL     1      42.888 -17.781   2.261  1.00  0.00     0.034 C 
ENDBRANCH  25  29
ENDBRANCH  24  25
ENDBRANCH   1  24
BRANCH   2  31
HETATM   31  C   UNL     1      40.292 -13.192   0.610  1.00  0.00     0.225 A 
HETATM   32  N   UNL     1      40.664 -12.183  -0.184  1.00  0.00    -0.081 NA
HETATM   33  O   UNL     1      40.675 -12.757  -1.460  1.00  0.00    -0.103 OA
HETATM   34  N   UNL     1      40.283 -14.087  -1.415  1.00  0.00    -0.083 NA
HETATM   35  C   UNL     1      40.043 -14.357  -0.133  1.00  0.00     0.201 A 
BRANCH  35  36
HETATM   36  N   UNL     1      39.643 -15.550   0.331  1.00  0.00    -0.379 N 
HETATM   37  H   UNL     1      39.325 -15.647   1.293  1.00  0.00     0.158 HD
HETATM   38  H   UNL     1      39.785 -16.431  -0.160  1.00  0.00     0.158 HD
ENDBRANCH  35  36
ENDBRANCH   2  31
TORSDOF 10
ENDMDL
MODEL 4
REMARK VINA RESULT:      -7.9      2.218      3.424
REMARK  10 active torsions:
REMARK  status: ('A' for Active; 'I' for Inactive)
REMARK    1  A    between atoms: C_2  and  N_3 
REMARK    2  A    between atoms: N_3  and  C_5 
REMARK    3  A    between atoms: N_3  and  C_34 
REMARK    4  A    between atoms: C_5  and  C_6 
REMARK    5  A    between atoms: N_7  and  C_8 
REMARK    6  A    between atoms: C_12  and  N_13 
REMARK    7  A    between atoms: C_16  and  C_17 
REMARK       I    between atoms: C_17  and  N_18 
REMARK    8  A    between atoms: N_18  and  N_19 
REMARK    9  A    between atoms: C_20  and  C_21 
REMARK   10  A    between atoms: C_23  and  C_24 
ROOT
HETATM    1  C   UNL     1      42.922  -8.645   8.888  1.00  0.00     0.096 A 
HETATM    2  N   UNL     1      43.344  -7.363   9.233  1.00  0.00    -0.215 N 
HETATM    3  N   UNL     1      44.637  -7.210   8.842  1.00  0.00     0.012 NA
HETATM    4  N   UNL     1      45.024  -8.288   8.180  1.00  0.00    -0.152 NA
HETATM    5  C   UNL     1      43.994  -9.181   8.187  1.00  0.00     0.170 A 
ENDROOT
BRANCH   5   6
HETATM    6  C   UNL     1      44.043 -10.483   7.535  1.00  0.00     0.293 C 
HETATM    7  N   UNL     1      43.657 -10.469   6.208  1.00  0.00    -0.242 N 
HETATM    8  H   UNL     1      43.370  -9.599   5.763  1.00  0.00     0.192 HD
HETATM    9  O   UNL     1      44.375 -11.479   8.174  1.00  0.00    -0.264 OA
BRANCH   7  10
HETATM   10  N   UNL     1      43.669 -11.636   5.502  1.00  0.00    -0.181 NA
HETATM   11  C   UNL     1      42.920 -11.686   4.446  1.00  0.00     0.175 C 
BRANCH  11  12
HETATM   12  C   UNL     1      42.885 -12.875   3.645  1.00  0.00     0.095 A 
HETATM   13  O   UNL     1      43.181 -14.066   4.242  1.00  0.00    -0.309 OA
HETATM   14  C   UNL     1      43.090 -15.044   3.288  1.00  0.00     0.086 A 
HETATM   15  C   UNL     1      42.728 -14.472   2.083  1.00  0.00     0.041 A 
HETATM   16  C   UNL     1      42.600 -13.081   2.311  1.00  0.00     0.041 A 
BRANCH  14  17
HETATM   17  C   UNL     1      43.383 -16.409   3.718  1.00  0.00    -0.002 A 
HETATM   18  C   UNL     1      43.485 -17.461   2.794  1.00  0.00     0.015 A 
HETATM   19  C   UNL     1      43.756 -18.768   3.216  1.00  0.00     0.020 A 
HETATM   20  C   UNL     1      43.927 -19.035   4.571  1.00  0.00     0.011 A 
HETATM   21 BR   UNL     1      44.289 -20.798   5.143  1.00  0.00    -0.051 Br
HETATM   22  C   UNL     1      43.831 -18.009   5.506  1.00  0.00     0.020 A 
HETATM   23  C   UNL     1      43.560 -16.704   5.080  1.00  0.00     0.015 A 
ENDBRANCH  14  17
ENDBRANCH  11  12
ENDBRANCH   7  10
ENDBRANCH   5   6
BRANCH   1  24
HETATM   24  C   UNL     1      41.643  -9.274   9.299  1.00  0.00     0.296 C 
BRANCH  24  25
HETATM   25  N   UNL     1      41.662 -10.037  10.614  1.00  0.00    -0.066 N 
HETATM   26  H   UNL     1      41.547 -11.033  10.375  1.00  0.00     0.280 HD
BRANCH  25  27
HETATM   27  C   UNL     1      40.480  -9.641  11.490  1.00  0.00     0.231 C 
HETATM   28  C   UNL     1      39.695  -8.495  10.874  1.00  0.00     0.034 C 
ENDBRANCH  25  27
BRANCH  25  29
HETATM   29  C   UNL     1      42.978  -9.871  11.362  1.00  0.00     0.231 C 
HETATM   30  C   UNL     1      42.738  -9.408  12.790  1.00  0.00     0.034 C 
ENDBRANCH  25  29
ENDBRANCH  24  25
ENDBRANCH   1  24
BRANCH   2  31
HETATM   31  C   UNL     1      42.601  -6.320   9.833  1.00  0.00     0.225 A 
HETATM   32  N   UNL     1      42.570  -6.206  11.164  1.00  0.00    -0.081 NA
HETATM   33  O   UNL     1      41.740  -5.101  11.381  1.00  0.00    -0.103 OA
HETATM   34  N   UNL     1      41.263  -4.590  10.182  1.00  0.00    -0.083 NA
HETATM   35  C   UNL     1      41.793  -5.346   9.223  1.00  0.00     0.201 A 
BRANCH  35  36
HETATM   36  N   UNL     1      41.579  -5.172   7.910  1.00  0.00    -0.379 N 
HETATM   37  H   UNL     1      41.021  -5.842   7.387  1.00  0.00     0.158 HD
HETATM   38  H   UNL     1      42.074  -4.492   7.336  1.00  0.00     0.158 HD
ENDBRANCH  35  36
ENDBRANCH   2  31
TORSDOF 10
ENDMDL
MODEL 5
REMARK VINA RESULT:      -7.6      5.111     10.602
REMARK  10 active torsions:
REMARK  status: ('A' for Active; 'I' for Inactive)
REMARK    1  A    between atoms: C_2  and  N_3 
REMARK    2  A    between atoms: N_3  and  C_5 
REMARK    3  A    between atoms: N_3  and  C_34 
REMARK    4  A    between atoms: C_5  and  C_6 
REMARK    5  A    between atoms: N_7  and  C_8 
REMARK    6  A    between atoms: C_12  and  N_13 
REMARK    7  A    between atoms: C_16  and  C_17 
REMARK       I    between atoms: C_17  and  N_18 
REMARK    8  A    between atoms: N_18  and  N_19 
REMARK    9  A    between atoms: C_20  and  C_21 
REMARK   10  A    between atoms: C_23  and  C_24 
ROOT
HETATM    1  C   UNL     1      40.671 -12.743   1.452  1.00  0.00     0.096 A 
HETATM    2  N   UNL     1      39.797 -12.617   0.374  1.00  0.00    -0.215 N 
HETATM    3  N   UNL     1      38.762 -11.818   0.744  1.00  0.00     0.012 NA
HETATM    4  N   UNL     1      38.983 -11.351   1.961  1.00  0.00    -0.152 NA
HETATM    5  C   UNL     1      40.147 -11.894   2.418  1.00  0.00     0.170 A 
ENDROOT
BRANCH   5   6
HETATM    6  C   UNL     1      40.727 -11.595   3.721  1.00  0.00     0.293 C 
HETATM    7  N   UNL     1      41.878 -10.831   3.669  1.00  0.00    -0.242 N 
HETATM    8  H   UNL     1      42.254 -10.525   2.773  1.00  0.00     0.192 HD
HETATM    9  O   UNL     1      40.209 -12.043   4.742  1.00  0.00    -0.264 OA
BRANCH   7  10
HETATM   10  N   UNL     1      42.500 -10.492   4.834  1.00  0.00    -0.181 NA
HETATM   11  C   UNL     1      43.505 -11.227   5.192  1.00  0.00     0.175 C 
BRANCH  11  12
HETATM   12  C   UNL     1      44.219 -10.928   6.400  1.00  0.00     0.095 A 
HETATM   13  O   UNL     1      43.588 -10.190   7.358  1.00  0.00    -0.309 OA
HETATM   14  C   UNL     1      44.460 -10.030   8.402  1.00  0.00     0.086 A 
HETATM   15  C   UNL     1      45.646 -10.677   8.107  1.00  0.00     0.041 A 
HETATM   16  C   UNL     1      45.493 -11.249   6.822  1.00  0.00     0.041 A 
BRANCH  14  17
HETATM   17  C   UNL     1      43.983  -9.251   9.542  1.00  0.00    -0.002 A 
HETATM   18  C   UNL     1      44.141  -9.711  10.859  1.00  0.00     0.015 A 
HETATM   19  C   UNL     1      43.672  -8.962  11.945  1.00  0.00     0.020 A 
HETATM   20  C   UNL     1      43.038  -7.744  11.722  1.00  0.00     0.011 A 
HETATM   21 BR   UNL     1      42.401  -6.733  13.185  1.00  0.00    -0.051 Br
HETATM   22  C   UNL     1      42.870  -7.266  10.425  1.00  0.00     0.020 A 
HETATM   23  C   UNL     1      43.341  -8.018   9.343  1.00  0.00     0.015 A 
ENDBRANCH  14  17
ENDBRANCH  11  12
ENDBRANCH   7  10
ENDBRANCH   5   6
BRANCH   1  24
HETATM   24  C   UNL     1      41.826 -13.671   1.526  1.00  0.00     0.296 C 
BRANCH  24  25
HETATM   25  N   UNL     1      41.881 -14.576   2.747  1.00  0.00    -0.066 N 
HETATM   26  H   UNL     1      41.854 -13.956   3.571  1.00  0.00     0.280 HD
BRANCH  25  27
HETATM   27  C   UNL     1      43.198 -15.341   2.798  1.00  0.00     0.231 C 
HETATM   28  C   UNL     1      43.369 -16.230   1.578  1.00  0.00     0.034 C 
ENDBRANCH  25  27
BRANCH  25  29
HETATM   29  C   UNL     1      40.693 -15.525   2.820  1.00  0.00     0.231 C 
HETATM   30  C   UNL     1      40.588 -16.162   4.197  1.00  0.00     0.034 C 
ENDBRANCH  25  29
ENDBRANCH  24  25
ENDBRANCH   1  24
BRANCH   2  31
HETATM   31  C   UNL     1      39.924 -13.147  -0.931  1.00  0.00     0.225 A 
HETATM   32  N   UNL     1      39.312 -14.294  -1.245  1.00  0.00    -0.081 NA
HETATM   33  O   UNL     1      39.675 -14.505  -2.579  1.00  0.00    -0.103 OA
HETATM   34  N   UNL     1      40.519 -13.503  -3.034  1.00  0.00    -0.083 NA
HETATM   35  C   UNL     1      40.676 -12.662  -2.013  1.00  0.00     0.201 A 
BRANCH  35  36
HETATM   36  N   UNL     1      41.423 -11.549  -2.051  1.00  0.00    -0.379 N 
HETATM   37  H   UNL     1      41.312 -10.831  -1.340  1.00  0.00     0.158 HD
HETATM   38  H   UNL     1      41.999 -11.275  -2.846  1.00  0.00     0.158 HD
ENDBRANCH  35  36
ENDBRANCH   2  31
TORSDOF 10
ENDMDL
MODEL 6
REMARK VINA RESULT:      -7.4      5.872     10.938
REMARK  10 active torsions:
REMARK  status: ('A' for Active; 'I' for Inactive)
REMARK    1  A    between atoms: C_2  and  N_3 
REMARK    2  A    between atoms: N_3  and  C_5 
REMARK    3  A    between atoms: N_3  and  C_34 
REMARK    4  A    between atoms: C_5  and  C_6 
REMARK    5  A    between atoms: N_7  and  C_8 
REMARK    6  A    between atoms: C_12  and  N_13 
REMARK    7  A    between atoms: C_16  and  C_17 
REMARK       I    between atoms: C_17  and  N_18 
REMARK    8  A    between atoms: N_18  and  N_19 
REMARK    9  A    between atoms: C_20  and  C_21 
REMARK   10  A    between atoms: C_23  and  C_24 
ROOT
HETATM    1  C   UNL     1      41.084 -12.098   0.563  1.00  0.00     0.096 A 
HETATM    2  N   UNL     1      40.756 -13.249  -0.149  1.00  0.00    -0.215 N 
HETATM    3  N   UNL     1      41.243 -14.328   0.518  1.00  0.00     0.012 NA
HETATM    4  N   UNL     1      41.774 -13.932   1.663  1.00  0.00    -0.152 NA
HETATM    5  C   UNL     1      41.686 -12.572   1.722  1.00  0.00     0.170 A 
ENDROOT
BRANCH   5   6
HETATM    6  C   UNL     1      42.150 -11.776   2.850  1.00  0.00     0.293 C 
HETATM    7  N   UNL     1      43.454 -12.032   3.228  1.00  0.00    -0.242 N 
HETATM    8  H   UNL     1      44.009 -12.727   2.732  1.00  0.00     0.192 HD
HETATM    9  O   UNL     1      41.386 -10.984   3.399  1.00  0.00    -0.264 OA
BRANCH   7  10
HETATM   10  N   UNL     1      43.989 -11.338   4.273  1.00  0.00    -0.181 NA
HETATM   11  C   UNL     1      44.000 -11.934   5.423  1.00  0.00     0.175 C 
BRANCH  11  12
HETATM   12  C   UNL     1      44.555 -11.275   6.570  1.00  0.00     0.095 A 
HETATM   13  O   UNL     1      43.698 -10.787   7.512  1.00  0.00    -0.309 OA
HETATM   14  C   UNL     1      44.450 -10.202   8.496  1.00  0.00     0.086 A 
HETATM   15  C   UNL     1      45.790 -10.327   8.180  1.00  0.00     0.041 A 
HETATM   16  C   UNL     1      45.857 -11.011   6.943  1.00  0.00     0.041 A 
BRANCH  14  17
HETATM   17  C   UNL     1      43.720  -9.599   9.609  1.00  0.00    -0.002 A 
HETATM   18  C   UNL     1      42.350  -9.307   9.512  1.00  0.00     0.015 A 
HETATM   19  C   UNL     1      41.660  -8.721  10.579  1.00  0.00     0.020 A 
HETATM   20  C   UNL     1      42.337  -8.420  11.757  1.00  0.00     0.011 A 
HETATM   21 BR   UNL     1      41.409  -7.626  13.199  1.00  0.00    -0.051 Br
HETATM   22  C   UNL     1      43.694  -8.702  11.879  1.00  0.00     0.020 A 
HETATM   23  C   UNL     1      44.380  -9.288  10.808  1.00  0.00     0.015 A 
ENDBRANCH  14  17
ENDBRANCH  11  12
ENDBRANCH   7  10
ENDBRANCH   5   6
BRANCH   1  24
HETATM   24  C   UNL     1      40.900 -10.704   0.089  1.00  0.00     0.296 C 
BRANCH  24  25
HETATM   25  N   UNL     1      39.823  -9.893   0.794  1.00  0.00    -0.066 N 
HETATM   26  H   UNL     1      39.790 -10.235   1.766  1.00  0.00     0.280 HD
BRANCH  25  27
HETATM   27  C   UNL     1      38.455 -10.152   0.175  1.00  0.00     0.231 C 
HETATM   28  C   UNL     1      37.585 -10.996   1.090  1.00  0.00     0.034 C 
ENDBRANCH  25  27
BRANCH  25  29
HETATM   29  C   UNL     1      40.141  -8.405   0.818  1.00  0.00     0.231 C 
HETATM   30  C   UNL     1      40.035  -7.801  -0.573  1.00  0.00     0.034 C 
ENDBRANCH  25  29
ENDBRANCH  24  25
ENDBRANCH   1  24
BRANCH   2  31
HETATM   31  C   UNL     1      39.998 -13.365  -1.338  1.00  0.00     0.225 A 
HETATM   32  N   UNL     1      38.702 -13.684  -1.271  1.00  0.00    -0.081 NA
HETATM   33  O   UNL     1      38.304 -13.726  -2.611  1.00  0.00    -0.103 OA
HETATM   34  N   UNL     1      39.369 -13.462  -3.459  1.00  0.00    -0.083 NA
HETATM   35  C   UNL     1      40.421 -13.241  -2.671  1.00  0.00     0.201 A 
BRANCH  35  36
HETATM   36  N   UNL     1      41.652 -12.944  -3.111  1.00  0.00    -0.379 N 
HETATM   37  H   UNL     1      42.394 -12.722  -2.451  1.00  0.00     0.158 HD
HETATM   38  H   UNL     1      41.881 -12.757  -4.086  1.00  0.00     0.158 HD
ENDBRANCH  35  36
ENDBRANCH   2  31
TORSDOF 10
ENDMDL
MODEL 7
REMARK VINA RESULT:      -7.3      1.793      3.080
REMARK  10 active torsions:
REMARK  status: ('A' for Active; 'I' for Inactive)
REMARK    1  A    between atoms: C_2  and  N_3 
REMARK    2  A    between atoms: N_3  and  C_5 
REMARK    3  A    between atoms: N_3  and  C_34 
REMARK    4  A    between atoms: C_5  and  C_6 
REMARK    5  A    between atoms: N_7  and  C_8 
REMARK    6  A    between atoms: C_12  and  N_13 
REMARK    7  A    between atoms: C_16  and  C_17 
REMARK       I    between atoms: C_17  and  N_18 
REMARK    8  A    between atoms: N_18  and  N_19 
REMARK    9  A    between atoms: C_20  and  C_21 
REMARK   10  A    between atoms: C_23  and  C_24 
ROOT
HETATM    1  C   UNL     1      42.193  -8.827  10.286  1.00  0.00     0.096 A 
HETATM    2  N   UNL     1      42.308  -8.336  11.585  1.00  0.00    -0.215 N 
HETATM    3  N   UNL     1      43.574  -8.560  12.025  1.00  0.00     0.012 NA
HETATM    4  N   UNL     1      44.294  -9.076  11.042  1.00  0.00    -0.152 NA
HETATM    5  C   UNL     1      43.477  -9.245   9.964  1.00  0.00     0.170 A 
ENDROOT
BRANCH   5   6
HETATM    6  C   UNL     1      43.924  -9.773   8.681  1.00  0.00     0.293 C 
HETATM    7  N   UNL     1      43.158 -10.818   8.199  1.00  0.00    -0.242 N 
HETATM    8  H   UNL     1      42.357 -11.158   8.728  1.00  0.00     0.192 HD
HETATM    9  O   UNL     1      44.925  -9.309   8.140  1.00  0.00    -0.264 OA
BRANCH   7  10
HETATM   10  N   UNL     1      43.488 -11.384   7.003  1.00  0.00    -0.181 NA
HETATM   11  C   UNL     1      42.509 -11.811   6.270  1.00  0.00     0.175 C 
BRANCH  11  12
HETATM   12  C   UNL     1      42.773 -12.409   4.994  1.00  0.00     0.095 A 
HETATM   13  O   UNL     1      42.806 -13.770   4.913  1.00  0.00    -0.309 OA
HETATM   14  C   UNL     1      43.079 -14.104   3.613  1.00  0.00     0.086 A 
HETATM   15  C   UNL     1      43.212 -12.949   2.865  1.00  0.00     0.041 A 
HETATM   16  C   UNL     1      43.020 -11.863   3.751  1.00  0.00     0.041 A 
BRANCH  14  17
HETATM   17  C   UNL     1      43.170 -15.530   3.307  1.00  0.00    -0.002 A 
HETATM   18  C   UNL     1      43.478 -16.472   4.301  1.00  0.00     0.015 A 
HETATM   19  C   UNL     1      43.574 -17.835   3.997  1.00  0.00     0.020 A 
HETATM   20  C   UNL     1      43.362 -18.268   2.692  1.00  0.00     0.011 A 
HETATM   21 BR   UNL     1      43.494 -20.107   2.278  1.00  0.00    -0.051 Br
HETATM   22  C   UNL     1      43.054 -17.354   1.689  1.00  0.00     0.020 A 
HETATM   23  C   UNL     1      42.960 -15.992   1.998  1.00  0.00     0.015 A 
ENDBRANCH  14  17
ENDBRANCH  11  12
ENDBRANCH   7  10
ENDBRANCH   5   6
BRANCH   1  24
HETATM   24  C   UNL     1      40.932  -8.946   9.515  1.00  0.00     0.296 C 
BRANCH  24  25
HETATM   25  N   UNL     1      40.501  -7.711   8.740  1.00  0.00    -0.066 N 
HETATM   26  H   UNL     1      40.905  -6.901   9.234  1.00  0.00     0.280 HD
BRANCH  25  27
HETATM   27  C   UNL     1      38.986  -7.551   8.770  1.00  0.00     0.231 C 
HETATM   28  C   UNL     1      38.575  -6.120   8.466  1.00  0.00     0.034 C 
ENDBRANCH  25  27
BRANCH  25  29
HETATM   29  C   UNL     1      41.024  -7.710   7.310  1.00  0.00     0.231 C 
HETATM   30  C   UNL     1      42.021  -6.583   7.094  1.00  0.00     0.034 C 
ENDBRANCH  25  29
ENDBRANCH  24  25
ENDBRANCH   1  24
BRANCH   2  31
HETATM   31  C   UNL     1      41.341  -7.654  12.360  1.00  0.00     0.225 A 
HETATM   32  N   UNL     1      40.694  -6.605  11.842  1.00  0.00    -0.081 NA
HETATM   33  O   UNL     1      39.856  -6.190  12.883  1.00  0.00    -0.103 OA
HETATM   34  N   UNL     1      40.033  -6.975  14.013  1.00  0.00    -0.083 NA
HETATM   35  C   UNL     1      40.955  -7.880  13.691  1.00  0.00     0.201 A 
BRANCH  35  36
HETATM   36  N   UNL     1      41.406  -8.835  14.518  1.00  0.00    -0.379 N 
HETATM   37  H   UNL     1      40.790  -9.588  14.818  1.00  0.00     0.158 HD
HETATM   38  H   UNL     1      42.292  -8.786  15.018  1.00  0.00     0.158 HD
ENDBRANCH  35  36
ENDBRANCH   2  31
TORSDOF 10
ENDMDL
MODEL 8
REMARK VINA RESULT:      -7.2      2.190      3.460
REMARK  10 active torsions:
REMARK  status: ('A' for Active; 'I' for Inactive)
REMARK    1  A    between atoms: C_2  and  N_3 
REMARK    2  A    between atoms: N_3  and  C_5 
REMARK    3  A    between atoms: N_3  and  C_34 
REMARK    4  A    between atoms: C_5  and  C_6 
REMARK    5  A    between atoms: N_7  and  C_8 
REMARK    6  A    between atoms: C_12  and  N_13 
REMARK    7  A    between atoms: C_16  and  C_17 
REMARK       I    between atoms: C_17  and  N_18 
REMARK    8  A    between atoms: N_18  and  N_19 
REMARK    9  A    between atoms: C_20  and  C_21 
REMARK   10  A    between atoms: C_23  and  C_24 
ROOT
HETATM    1  C   UNL     1      42.679  -8.560   9.004  1.00  0.00     0.096 A 
HETATM    2  N   UNL     1      43.170  -7.297   9.326  1.00  0.00    -0.215 N 
HETATM    3  N   UNL     1      44.456  -7.206   8.895  1.00  0.00     0.012 NA
HETATM    4  N   UNL     1      44.773  -8.304   8.229  1.00  0.00    -0.152 NA
HETATM    5  C   UNL     1      43.704  -9.149   8.274  1.00  0.00     0.170 A 
ENDROOT
BRANCH   5   6
HETATM    6  C   UNL     1      43.673 -10.456   7.629  1.00  0.00     0.293 C 
HETATM    7  N   UNL     1      43.019 -10.474   6.412  1.00  0.00    -0.242 N 
HETATM    8  H   UNL     1      42.607  -9.622   6.034  1.00  0.00     0.192 HD
HETATM    9  O   UNL     1      44.175 -11.429   8.188  1.00  0.00    -0.264 OA
BRANCH   7  10
HETATM   10  N   UNL     1      42.936 -11.648   5.723  1.00  0.00    -0.181 NA
HETATM   11  C   UNL     1      42.931 -11.565   4.430  1.00  0.00     0.175 C 
BRANCH  11  12
HETATM   12  C   UNL     1      42.856 -12.755   3.633  1.00  0.00     0.095 A 
HETATM   13  O   UNL     1      43.172 -13.946   4.220  1.00  0.00    -0.309 OA
HETATM   14  C   UNL     1      43.036 -14.926   3.273  1.00  0.00     0.086 A 
HETATM   15  C   UNL     1      42.624 -14.355   2.083  1.00  0.00     0.041 A 
HETATM   16  C   UNL     1      42.513 -12.963   2.314  1.00  0.00     0.041 A 
BRANCH  14  17
HETATM   17  C   UNL     1      43.340 -16.292   3.693  1.00  0.00    -0.002 A 
HETATM   18  C   UNL     1      43.359 -17.353   2.774  1.00  0.00     0.015 A 
HETATM   19  C   UNL     1      43.641 -18.660   3.188  1.00  0.00     0.020 A 
HETATM   20  C   UNL     1      43.908 -18.918   4.528  1.00  0.00     0.011 A 
HETATM   21 BR   UNL     1      44.287 -20.682   5.090  1.00  0.00    -0.051 Br
HETATM   22  C   UNL     1      43.897 -17.883   5.458  1.00  0.00     0.020 A 
HETATM   23  C   UNL     1      43.613 -16.577   5.041  1.00  0.00     0.015 A 
ENDBRANCH  14  17
ENDBRANCH  11  12
ENDBRANCH   7  10
ENDBRANCH   5   6
BRANCH   1  24
HETATM   24  C   UNL     1      41.386  -9.129   9.457  1.00  0.00     0.296 C 
BRANCH  24  25
HETATM   25  N   UNL     1      40.182  -8.841   8.575  1.00  0.00    -0.066 N 
HETATM   26  H   UNL     1      39.534  -8.273   9.142  1.00  0.00     0.280 HD
BRANCH  25  27
HETATM   27  C   UNL     1      39.455 -10.129   8.210  1.00  0.00     0.231 C 
HETATM   28  C   UNL     1      39.377 -10.312   6.704  1.00  0.00     0.034 C 
ENDBRANCH  25  27
BRANCH  25  29
HETATM   29  C   UNL     1      40.550  -8.048   7.329  1.00  0.00     0.231 C 
HETATM   30  C   UNL     1      39.737  -6.767   7.237  1.00  0.00     0.034 C 
ENDBRANCH  25  29
ENDBRANCH  24  25
ENDBRANCH   1  24
BRANCH   2  31
HETATM   31  C   UNL     1      42.493  -6.218   9.941  1.00  0.00     0.225 A 
HETATM   32  N   UNL     1      42.096  -5.176   9.205  1.00  0.00    -0.081 NA
HETATM   33  O   UNL     1      41.499  -4.322  10.138  1.00  0.00    -0.103 OA
HETATM   34  N   UNL     1      41.573  -4.849  11.419  1.00  0.00    -0.083 NA
HETATM   35  C   UNL     1      42.192  -6.022  11.299  1.00  0.00     0.201 A 
BRANCH  35  36
HETATM   36  N   UNL     1      42.455  -6.852  12.319  1.00  0.00    -0.379 N 
HETATM   37  H   UNL     1      42.170  -7.827  12.276  1.00  0.00     0.158 HD
HETATM   38  H   UNL     1      42.785  -6.546  13.234  1.00  0.00     0.158 HD
ENDBRANCH  35  36
ENDBRANCH   2  31
TORSDOF 10
ENDMDL
MODEL 9
REMARK VINA RESULT:      -7.0      1.472      2.033
REMARK  10 active torsions:
REMARK  status: ('A' for Active; 'I' for Inactive)
REMARK    1  A    between atoms: C_2  and  N_3 
REMARK    2  A    between atoms: N_3  and  C_5 
REMARK    3  A    between atoms: N_3  and  C_34 
REMARK    4  A    between atoms: C_5  and  C_6 
REMARK    5  A    between atoms: N_7  and  C_8 
REMARK    6  A    between atoms: C_12  and  N_13 
REMARK    7  A    between atoms: C_16  and  C_17 
REMARK       I    between atoms: C_17  and  N_18 
REMARK    8  A    between atoms: N_18  and  N_19 
REMARK    9  A    between atoms: C_20  and  C_21 
REMARK   10  A    between atoms: C_23  and  C_24 
ROOT
HETATM    1  C   UNL     1      40.440  -8.318   9.903  1.00  0.00     0.096 A 
HETATM    2  N   UNL     1      39.791  -7.681  10.957  1.00  0.00    -0.215 N 
HETATM    3  N   UNL     1      38.470  -7.570  10.653  1.00  0.00     0.012 NA
HETATM    4  N   UNL     1      38.231  -8.191   9.510  1.00  0.00    -0.152 NA
HETATM    5  C   UNL     1      39.416  -8.664   9.030  1.00  0.00     0.170 A 
ENDROOT
BRANCH   5   6
HETATM    6  C   UNL     1      39.547  -9.425   7.794  1.00  0.00     0.293 C 
HETATM    7  N   UNL     1      40.501  -8.934   6.923  1.00  0.00    -0.242 N 
HETATM    8  H   UNL     1      41.045  -8.107   7.165  1.00  0.00     0.192 HD
HETATM    9  O   UNL     1      38.817 -10.392   7.586  1.00  0.00    -0.264 OA
BRANCH   7  10
HETATM   10  N   UNL     1      40.706  -9.574   5.736  1.00  0.00    -0.181 NA
HETATM   11  C   UNL     1      41.742 -10.349   5.664  1.00  0.00     0.175 C 
BRANCH  11  12
HETATM   12  C   UNL     1      42.020 -11.066   4.453  1.00  0.00     0.095 A 
HETATM   13  O   UNL     1      42.247 -12.409   4.535  1.00  0.00    -0.309 OA
HETATM   14  C   UNL     1      42.494 -12.868   3.269  1.00  0.00     0.086 A 
HETATM   15  C   UNL     1      42.416 -11.812   2.379  1.00  0.00     0.041 A 
HETATM   16  C   UNL     1      42.117 -10.657   3.139  1.00  0.00     0.041 A 
BRANCH  14  17
HETATM   17  C   UNL     1      42.777 -14.295   3.132  1.00  0.00    -0.002 A 
HETATM   18  C   UNL     1      43.049 -14.869   1.879  1.00  0.00     0.015 A 
HETATM   19  C   UNL     1      43.308 -16.239   1.756  1.00  0.00     0.020 A 
HETATM   20  C   UNL     1      43.297 -17.049   2.887  1.00  0.00     0.011 A 
HETATM   21 BR   UNL     1      43.644 -18.899   2.722  1.00  0.00    -0.051 Br
HETATM   22  C   UNL     1      43.031 -16.503   4.139  1.00  0.00     0.020 A 
HETATM   23  C   UNL     1      42.772 -15.133   4.258  1.00  0.00     0.015 A 
ENDBRANCH  14  17
ENDBRANCH  11  12
ENDBRANCH   7  10
ENDBRANCH   5   6
BRANCH   1  24
HETATM   24  C   UNL     1      41.908  -8.469   9.754  1.00  0.00     0.296 C 
BRANCH  24  25
HETATM   25  N   UNL     1      42.465  -9.865   9.982  1.00  0.00    -0.066 N 
HETATM   26  H   UNL     1      41.733 -10.524   9.676  1.00  0.00     0.280 HD
BRANCH  25  27
HETATM   27  C   UNL     1      42.712 -10.118  11.464  1.00  0.00     0.231 C 
HETATM   28  C   UNL     1      43.879 -11.066  11.677  1.00  0.00     0.034 C 
ENDBRANCH  25  27
BRANCH  25  29
HETATM   29  C   UNL     1      43.721 -10.130   9.164  1.00  0.00     0.231 C 
HETATM   30  C   UNL     1      44.195  -8.864   8.468  1.00  0.00     0.034 C 
ENDBRANCH  25  29
ENDBRANCH  24  25
ENDBRANCH   1  24
BRANCH   2  31
HETATM   31  C   UNL     1      40.328  -7.246  12.192  1.00  0.00     0.225 A 
HETATM   32  N   UNL     1      40.113  -7.963  13.299  1.00  0.00    -0.081 NA
HETATM   33  O   UNL     1      40.763  -7.229  14.297  1.00  0.00    -0.103 OA
HETATM   34  N   UNL     1      41.330  -6.073  13.780  1.00  0.00    -0.083 NA
HETATM   35  C   UNL     1      41.058  -6.081  12.476  1.00  0.00     0.201 A 
BRANCH  35  36
HETATM   36  N   UNL     1      41.442  -5.129  11.613  1.00  0.00    -0.379 N 
HETATM   37  H   UNL     1      41.096  -5.133  10.656  1.00  0.00     0.158 HD
HETATM   38  H   UNL     1      42.199  -4.470  11.788  1.00  0.00     0.158 HD
ENDBRANCH  35  36
ENDBRANCH   2  31
TORSDOF 10
ENDMDL
MODEL 10
REMARK VINA RESULT:      -7.0      4.547     10.196
REMARK  10 active torsions:
REMARK  status: ('A' for Active; 'I' for Inactive)
REMARK    1  A    between atoms: C_2  and  N_3 
REMARK    2  A    between atoms: N_3  and  C_5 
REMARK    3  A    between atoms: N_3  and  C_34 
REMARK    4  A    between atoms: C_5  and  C_6 
REMARK    5  A    between atoms: N_7  and  C_8 
REMARK    6  A    between atoms: C_12  and  N_13 
REMARK    7  A    between atoms: C_16  and  C_17 
REMARK       I    between atoms: C_17  and  N_18 
REMARK    8  A    between atoms: N_18  and  N_19 
REMARK    9  A    between atoms: C_20  and  C_21 
REMARK   10  A    between atoms: C_23  and  C_24 
ROOT
HETATM    1  C   UNL     1      40.341 -11.541   3.422  1.00  0.00     0.096 A 
HETATM    2  N   UNL     1      39.594 -11.183   2.302  1.00  0.00    -0.215 N 
HETATM    3  N   UNL     1      38.612 -10.327   2.689  1.00  0.00     0.012 NA
HETATM    4  N   UNL     1      38.758 -10.045   3.973  1.00  0.00    -0.152 NA
HETATM    5  C   UNL     1      39.811 -10.769   4.448  1.00  0.00     0.170 A 
ENDROOT
BRANCH   5   6
HETATM    6  C   UNL     1      40.287 -10.705   5.824  1.00  0.00     0.293 C 
HETATM    7  N   UNL     1      41.379  -9.878   6.009  1.00  0.00    -0.242 N 
HETATM    8  H   UNL     1      41.785  -9.374   5.222  1.00  0.00     0.192 HD
HETATM    9  O   UNL     1      39.743 -11.380   6.695  1.00  0.00    -0.264 OA
BRANCH   7  10
HETATM   10  N   UNL     1      41.903  -9.744   7.261  1.00  0.00    -0.181 NA
HETATM   11  C   UNL     1      43.142 -10.091   7.414  1.00  0.00     0.175 C 
BRANCH  11  12
HETATM   12  C   UNL     1      43.769  -9.970   8.698  1.00  0.00     0.095 A 
HETATM   13  O   UNL     1      43.009  -9.552   9.752  1.00  0.00    -0.309 OA
HETATM   14  C   UNL     1      43.817  -9.507  10.856  1.00  0.00     0.086 A 
HETATM   15  C   UNL     1      45.093  -9.906  10.503  1.00  0.00     0.041 A 
HETATM   16  C   UNL     1      45.063 -10.198   9.119  1.00  0.00     0.041 A 
BRANCH  14  17
HETATM   17  C   UNL     1      43.198  -9.069  12.105  1.00  0.00    -0.002 A 
HETATM   18  C   UNL     1      43.611  -7.894  12.753  1.00  0.00     0.015 A 
HETATM   19  C   UNL     1      43.019  -7.488  13.954  1.00  0.00     0.020 A 
HETATM   20  C   UNL     1      42.005  -8.255  14.519  1.00  0.00     0.011 A 
HETATM   21 BR   UNL     1      41.206  -7.709  16.143  1.00  0.00    -0.051 Br
HETATM   22  C   UNL     1      41.577  -9.423  13.895  1.00  0.00     0.020 A 
HETATM   23  C   UNL     1      42.173  -9.826  12.695  1.00  0.00     0.015 A 
ENDBRANCH  14  17
ENDBRANCH  11  12
ENDBRANCH   7  10
ENDBRANCH   5   6
BRANCH   1  24
HETATM   24  C   UNL     1      41.385 -12.594   3.466  1.00  0.00     0.296 C 
BRANCH  24  25
HETATM   25  N   UNL     1      40.892 -14.019   3.666  1.00  0.00    -0.066 N 
HETATM   26  H   UNL     1      39.867 -13.962   3.767  1.00  0.00     0.280 HD
BRANCH  25  27
HETATM   27  C   UNL     1      41.442 -14.608   4.960  1.00  0.00     0.231 C 
HETATM   28  C   UNL     1      42.726 -15.381   4.712  1.00  0.00     0.034 C 
ENDBRANCH  25  27
BRANCH  25  29
HETATM   29  C   UNL     1      41.209 -14.915   2.478  1.00  0.00     0.231 C 
HETATM   30  C   UNL     1      39.972 -15.673   2.021  1.00  0.00     0.034 C 
ENDBRANCH  25  29
ENDBRANCH  24  25
ENDBRANCH   1  24
BRANCH   2  31
HETATM   31  C   UNL     1      39.795 -11.554   0.952  1.00  0.00     0.225 A 
HETATM   32  N   UNL     1      39.083 -12.555   0.425  1.00  0.00    -0.081 NA
HETATM   33  O   UNL     1      39.560 -12.642  -0.887  1.00  0.00    -0.103 OA
HETATM   34  N   UNL     1      40.566 -11.715  -1.117  1.00  0.00    -0.083 NA
HETATM   35  C   UNL     1      40.715 -11.042   0.022  1.00  0.00     0.201 A 
BRANCH  35  36
HETATM   36  N   UNL     1      41.594 -10.047   0.210  1.00  0.00    -0.379 N 
HETATM   37  H   UNL     1      42.366 -10.159   0.862  1.00  0.00     0.158 HD
HETATM   38  H   UNL     1      41.463  -9.097  -0.133  1.00  0.00     0.158 HD
ENDBRANCH  35  36
ENDBRANCH   2  31
TORSDOF 10
ENDMDL
