MODEL 1
REMARK VINA RESULT:      -9.5      0.000      0.000
REMARK  6 active torsions:
REMARK  status: ('A' for Active; 'I' for Inactive)
REMARK    1  A    between atoms: C_4  and  C_5 
REMARK    2  A    between atoms: C_5  and  N_6 
REMARK    3  A    between atoms: C_10  and  C_11 
REMARK    4  A    between atoms: C_11  and  C_12 
REMARK    5  A    between atoms: N_21  and  C_22 
REMARK    6  A    between atoms: C_22  and  C_23 
ROOT
HETATM    1  C   UNL     1      40.049 -12.430   2.762  1.00  0.00     0.164 C 
HETATM    2  N   UNL     1      39.492 -13.074   3.948  1.00  0.00    -0.319 N 
HETATM    3  C   UNL     1      39.975 -12.535   5.117  1.00  0.00     0.326 C 
HETATM    4  O   UNL     1      39.511 -12.757   6.220  1.00  0.00    -0.247 OA
HETATM    5  N   UNL     1      41.034 -11.744   4.816  1.00  0.00    -0.265 N 
HETATM    6  C   UNL     1      41.157 -11.619   3.462  1.00  0.00     0.263 C 
HETATM    7  O   UNL     1      42.038 -10.995   2.881  1.00  0.00    -0.270 OA
HETATM    8  H   UNL     1      38.560 -13.479   3.948  1.00  0.00     0.166 HD
ENDROOT
BRANCH   1   9
HETATM    9  C   UNL     1      40.571 -13.525   1.762  1.00  0.00     0.033 C 
HETATM   10  C   UNL     1      40.045 -14.951   1.996  1.00  0.00     0.036 C 
HETATM   11  C   UNL     1      40.722 -15.708   3.127  1.00  0.00     0.235 C 
HETATM   12  N   UNL     1      42.227 -15.650   3.050  1.00  0.00    -0.067 N 
HETATM   13  H   UNL     1      42.496 -16.323   2.323  1.00  0.00     0.280 HD
HETATM   14  C   UNL     1      42.845 -14.322   2.682  1.00  0.00     0.235 C 
HETATM   15  C   UNL     1      42.094 -13.621   1.567  1.00  0.00     0.036 C 
BRANCH  12  16
HETATM   16  C   UNL     1      42.876 -16.146   4.347  1.00  0.00     0.274 C 
BRANCH  16  17
HETATM   17  C   UNL     1      43.257 -17.606   4.343  1.00  0.00    -0.026 A 
HETATM   18  C   UNL     1      43.313 -18.278   3.102  1.00  0.00     0.016 A 
HETATM   19  C   UNL     1      43.715 -19.613   3.010  1.00  0.00    -0.061 A 
HETATM   20  C   UNL     1      43.786 -20.316   1.686  1.00  0.00     0.048 C 
HETATM   21  C   UNL     1      44.039 -20.296   4.181  1.00  0.00     0.007 A 
HETATM   22  C   UNL     1      43.966 -19.655   5.420  1.00  0.00     0.008 A 
HETATM   23  C   UNL     1      43.586 -18.308   5.519  1.00  0.00    -0.054 A 
HETATM   24  C   UNL     1      43.469 -17.694   6.887  1.00  0.00     0.049 C 
ENDBRANCH  16  17
ENDBRANCH  12  16
ENDBRANCH   1   9
BRANCH   1  25
HETATM   25  C   UNL     1      38.953 -11.562   2.141  1.00  0.00     0.072 A 
HETATM   26  N   UNL     1      38.769 -10.354   2.744  1.00  0.00    -0.262 NA
HETATM   27  C   UNL     1      37.849  -9.513   2.219  1.00  0.00     0.117 A 
HETATM   28  C   UNL     1      37.077  -9.817   1.115  1.00  0.00     0.019 A 
HETATM   29  C   UNL     1      37.263 -11.052   0.509  1.00  0.00     0.003 A 
HETATM   30  C   UNL     1      38.211 -11.937   1.021  1.00  0.00     0.030 A 
ENDBRANCH   1  25
BRANCH   5  31
HETATM   31  C   UNL     1      41.840 -11.030   5.790  1.00  0.00     0.168 C 
BRANCH  31  32
HETATM   32  C   UNL     1      43.086 -11.819   6.211  1.00  0.00     0.140 C 
HETATM   33  O   UNL     1      43.430 -11.512   7.580  1.00  0.00    -0.384 OA
HETATM   34  C   UNL     1      44.794 -11.074   7.623  1.00  0.00     0.168 C 
HETATM   35  C   UNL     1      45.437 -11.575   6.352  1.00  0.00     0.029 C 
HETATM   36  C   UNL     1      44.302 -11.456   5.366  1.00  0.00     0.036 C 
ENDBRANCH  31  32
ENDBRANCH   5  31
TORSDOF 6
ENDMDL
MODEL 2
REMARK VINA RESULT:      -9.3      2.336      7.646
REMARK  6 active torsions:
REMARK  status: ('A' for Active; 'I' for Inactive)
REMARK    1  A    between atoms: C_4  and  C_5 
REMARK    2  A    between atoms: C_5  and  N_6 
REMARK    3  A    between atoms: C_10  and  C_11 
REMARK    4  A    between atoms: C_11  and  C_12 
REMARK    5  A    between atoms: N_21  and  C_22 
REMARK    6  A    between atoms: C_22  and  C_23 
ROOT
HETATM    1  C   UNL     1      41.839 -15.819   4.667  1.00  0.00     0.164 C 
HETATM    2  N   UNL     1      40.638 -16.173   3.917  1.00  0.00    -0.319 N 
HETATM    3  C   UNL     1      40.603 -15.590   2.673  1.00  0.00     0.326 C 
HETATM    4  O   UNL     1      39.819 -15.893   1.792  1.00  0.00    -0.247 OA
HETATM    5  N   UNL     1      41.568 -14.639   2.620  1.00  0.00    -0.265 N 
HETATM    6  C   UNL     1      42.345 -14.697   3.740  1.00  0.00     0.263 C 
HETATM    7  O   UNL     1      43.278 -13.945   4.001  1.00  0.00    -0.270 OA
HETATM    8  H   UNL     1      40.169 -17.064   4.049  1.00  0.00     0.166 HD
ENDROOT
BRANCH   1   9
HETATM    9  C   UNL     1      41.439 -15.345   6.112  1.00  0.00     0.033 C 
HETATM   10  C   UNL     1      40.440 -14.178   6.182  1.00  0.00     0.036 C 
HETATM   11  C   UNL     1      41.039 -12.804   5.933  1.00  0.00     0.235 C 
HETATM   12  N   UNL     1      42.283 -12.553   6.748  1.00  0.00    -0.067 N 
HETATM   13  H   UNL     1      41.956 -12.333   7.696  1.00  0.00     0.280 HD
HETATM   14  C   UNL     1      43.268 -13.690   6.866  1.00  0.00     0.235 C 
HETATM   15  C   UNL     1      42.588 -15.028   7.085  1.00  0.00     0.036 C 
BRANCH  12  16
HETATM   16  C   UNL     1      43.033 -11.308   6.261  1.00  0.00     0.274 C 
BRANCH  16  17
HETATM   17  C   UNL     1      43.927 -10.667   7.293  1.00  0.00    -0.026 A 
HETATM   18  C   UNL     1      43.321 -10.011   8.387  1.00  0.00     0.016 A 
HETATM   19  C   UNL     1      44.081  -9.446   9.414  1.00  0.00    -0.061 A 
HETATM   20  C   UNL     1      43.430  -8.763  10.581  1.00  0.00     0.048 C 
HETATM   21  C   UNL     1      45.472  -9.512   9.332  1.00  0.00     0.007 A 
HETATM   22  C   UNL     1      46.089 -10.135   8.245  1.00  0.00     0.008 A 
HETATM   23  C   UNL     1      45.333 -10.726   7.221  1.00  0.00    -0.054 A 
HETATM   24  C   UNL     1      46.059 -11.328   6.050  1.00  0.00     0.049 C 
ENDBRANCH  16  17
ENDBRANCH  12  16
ENDBRANCH   1   9
BRANCH   1  25
HETATM   25  C   UNL     1      42.752 -17.046   4.699  1.00  0.00     0.072 A 
HETATM   26  N   UNL     1      42.780 -17.708   5.890  1.00  0.00    -0.262 NA
HETATM   27  C   UNL     1      43.528 -18.831   5.978  1.00  0.00     0.117 A 
HETATM   28  C   UNL     1      44.275 -19.336   4.932  1.00  0.00     0.019 A 
HETATM   29  C   UNL     1      44.249 -18.654   3.723  1.00  0.00     0.003 A 
HETATM   30  C   UNL     1      43.479 -17.498   3.598  1.00  0.00     0.030 A 
ENDBRANCH   1  25
BRANCH   5  31
HETATM   31  C   UNL     1      41.819 -13.773   1.481  1.00  0.00     0.168 C 
BRANCH  31  32
HETATM   32  C   UNL     1      41.062 -12.444   1.578  1.00  0.00     0.140 C 
HETATM   33  O   UNL     1      40.609 -12.032   0.270  1.00  0.00    -0.384 OA
HETATM   34  C   UNL     1      41.091 -10.707   0.013  1.00  0.00     0.168 C 
HETATM   35  C   UNL     1      41.431 -10.115   1.359  1.00  0.00     0.029 C 
HETATM   36  C   UNL     1      41.948 -11.320   2.104  1.00  0.00     0.036 C 
ENDBRANCH  31  32
ENDBRANCH   5  31
TORSDOF 6
ENDMDL
MODEL 3
REMARK VINA RESULT:      -9.2      2.095      7.110
REMARK  6 active torsions:
REMARK  status: ('A' for Active; 'I' for Inactive)
REMARK    1  A    between atoms: C_4  and  C_5 
REMARK    2  A    between atoms: C_5  and  N_6 
REMARK    3  A    between atoms: C_10  and  C_11 
REMARK    4  A    between atoms: C_11  and  C_12 
REMARK    5  A    between atoms: N_21  and  C_22 
REMARK    6  A    between atoms: C_22  and  C_23 
ROOT
HETATM    1  C   UNL     1      41.912 -14.810   4.056  1.00  0.00     0.164 C 
HETATM    2  N   UNL     1      42.497 -13.920   3.058  1.00  0.00    -0.319 N 
HETATM    3  C   UNL     1      43.101 -12.821   3.621  1.00  0.00     0.326 C 
HETATM    4  O   UNL     1      43.831 -12.053   3.021  1.00  0.00    -0.247 OA
HETATM    5  N   UNL     1      42.735 -12.755   4.925  1.00  0.00    -0.265 N 
HETATM    6  C   UNL     1      42.038 -13.875   5.274  1.00  0.00     0.263 C 
HETATM    7  O   UNL     1      41.543 -14.093   6.374  1.00  0.00    -0.270 OA
HETATM    8  H   UNL     1      42.854 -14.270   2.173  1.00  0.00     0.166 HD
ENDROOT
BRANCH   1   9
HETATM    9  C   UNL     1      40.434 -15.161   3.648  1.00  0.00     0.033 C 
HETATM   10  C   UNL     1      40.275 -16.042   2.398  1.00  0.00     0.036 C 
HETATM   11  C   UNL     1      40.432 -15.313   1.074  1.00  0.00     0.235 C 
HETATM   12  N   UNL     1      39.612 -14.050   1.002  1.00  0.00    -0.067 N 
HETATM   13  H   UNL     1      38.648 -14.352   0.819  1.00  0.00     0.280 HD
HETATM   14  C   UNL     1      39.582 -13.179   2.234  1.00  0.00     0.235 C 
HETATM   15  C   UNL     1      39.451 -13.986   3.512  1.00  0.00     0.036 C 
BRANCH  12  16
HETATM   16  C   UNL     1      40.017 -13.183  -0.196  1.00  0.00     0.274 C 
BRANCH  16  17
HETATM   17  C   UNL     1      38.876 -12.777  -1.095  1.00  0.00    -0.026 A 
HETATM   18  C   UNL     1      38.253 -11.531  -0.862  1.00  0.00     0.016 A 
HETATM   19  C   UNL     1      37.230 -11.059  -1.688  1.00  0.00    -0.061 A 
HETATM   20  C   UNL     1      36.582  -9.727  -1.442  1.00  0.00     0.048 C 
HETATM   21  C   UNL     1      36.802 -11.857  -2.748  1.00  0.00     0.007 A 
HETATM   22  C   UNL     1      37.389 -13.103  -2.979  1.00  0.00     0.008 A 
HETATM   23  C   UNL     1      38.434 -13.575  -2.169  1.00  0.00    -0.054 A 
HETATM   24  C   UNL     1      38.982 -14.950  -2.435  1.00  0.00     0.049 C 
ENDBRANCH  16  17
ENDBRANCH  12  16
ENDBRANCH   1   9
BRANCH   1  25
HETATM   25  C   UNL     1      42.793 -16.057   4.146  1.00  0.00     0.072 A 
HETATM   26  N   UNL     1      43.140 -16.422   5.412  1.00  0.00    -0.262 NA
HETATM   27  C   UNL     1      43.879 -17.543   5.573  1.00  0.00     0.117 A 
HETATM   28  C   UNL     1      44.312 -18.331   4.525  1.00  0.00     0.019 A 
HETATM   29  C   UNL     1      43.962 -17.951   3.236  1.00  0.00     0.003 A 
HETATM   30  C   UNL     1      43.192 -16.805   3.038  1.00  0.00     0.030 A 
ENDBRANCH   1  25
BRANCH   5  31
HETATM   31  C   UNL     1      43.135 -11.707   5.848  1.00  0.00     0.168 C 
BRANCH  31  32
HETATM   32  C   UNL     1      44.451 -12.030   6.565  1.00  0.00     0.140 C 
HETATM   33  O   UNL     1      44.344 -11.713   7.970  1.00  0.00    -0.384 OA
HETATM   34  C   UNL     1      45.411 -10.825   8.324  1.00  0.00     0.168 C 
HETATM   35  C   UNL     1      46.460 -10.980   7.249  1.00  0.00     0.029 C 
HETATM   36  C   UNL     1      45.613 -11.206   6.022  1.00  0.00     0.036 C 
ENDBRANCH  31  32
ENDBRANCH   5  31
TORSDOF 6
ENDMDL
MODEL 4
REMARK VINA RESULT:      -9.2      1.828      2.081
REMARK  6 active torsions:
REMARK  status: ('A' for Active; 'I' for Inactive)
REMARK    1  A    between atoms: C_4  and  C_5 
REMARK    2  A    between atoms: C_5  and  N_6 
REMARK    3  A    between atoms: C_10  and  C_11 
REMARK    4  A    between atoms: C_11  and  C_12 
REMARK    5  A    between atoms: N_21  and  C_22 
REMARK    6  A    between atoms: C_22  and  C_23 
ROOT
HETATM    1  C   UNL     1      40.310 -12.043   1.684  1.00  0.00     0.164 C 
HETATM    2  N   UNL     1      39.397 -11.328   2.572  1.00  0.00    -0.319 N 
HETATM    3  C   UNL     1      40.058 -10.623   3.550  1.00  0.00     0.326 C 
HETATM    4  O   UNL     1      39.536  -9.792   4.272  1.00  0.00    -0.247 OA
HETATM    5  N   UNL     1      41.353 -11.023   3.563  1.00  0.00    -0.265 N 
HETATM    6  C   UNL     1      41.598 -11.853   2.507  1.00  0.00     0.263 C 
HETATM    7  O   UNL     1      42.666 -12.405   2.267  1.00  0.00    -0.270 OA
HETATM    8  H   UNL     1      38.498 -10.984   2.249  1.00  0.00     0.166 HD
ENDROOT
BRANCH   1   9
HETATM    9  C   UNL     1      39.840 -13.536   1.536  1.00  0.00     0.033 C 
HETATM   10  C   UNL     1      39.587 -14.293   2.850  1.00  0.00     0.036 C 
HETATM   11  C   UNL     1      40.838 -14.790   3.556  1.00  0.00     0.235 C 
HETATM   12  N   UNL     1      41.776 -15.528   2.633  1.00  0.00    -0.067 N 
HETATM   13  H   UNL     1      41.369 -16.462   2.510  1.00  0.00     0.280 HD
HETATM   14  C   UNL     1      41.983 -14.945   1.256  1.00  0.00     0.235 C 
HETATM   15  C   UNL     1      40.691 -14.447   0.635  1.00  0.00     0.036 C 
BRANCH  12  16
HETATM   16  C   UNL     1      43.148 -15.745   3.281  1.00  0.00     0.274 C 
BRANCH  16  17
HETATM   17  C   UNL     1      43.462 -17.180   3.624  1.00  0.00    -0.026 A 
HETATM   18  C   UNL     1      43.369 -18.148   2.599  1.00  0.00     0.016 A 
HETATM   19  C   UNL     1      43.702 -19.486   2.824  1.00  0.00    -0.061 A 
HETATM   20  C   UNL     1      43.614 -20.506   1.726  1.00  0.00     0.048 C 
HETATM   21  C   UNL     1      44.107 -19.870   4.101  1.00  0.00     0.007 A 
HETATM   22  C   UNL     1      44.181 -18.932   5.133  1.00  0.00     0.008 A 
HETATM   23  C   UNL     1      43.872 -17.581   4.911  1.00  0.00    -0.054 A 
HETATM   24  C   UNL     1      43.914 -16.634   6.078  1.00  0.00     0.049 C 
ENDBRANCH  16  17
ENDBRANCH  12  16
ENDBRANCH   1   9
BRANCH   1  25
HETATM   25  C   UNL     1      40.326 -11.311   0.341  1.00  0.00     0.072 A 
HETATM   26  N   UNL     1      39.180 -11.425  -0.387  1.00  0.00    -0.262 NA
HETATM   27  C   UNL     1      39.104 -10.765  -1.565  1.00  0.00     0.117 A 
HETATM   28  C   UNL     1      40.129  -9.993  -2.076  1.00  0.00     0.019 A 
HETATM   29  C   UNL     1      41.298  -9.886  -1.334  1.00  0.00     0.003 A 
HETATM   30  C   UNL     1      41.403 -10.547  -0.111  1.00  0.00     0.030 A 
ENDBRANCH   1  25
BRANCH   5  31
HETATM   31  C   UNL     1      42.363 -10.538   4.487  1.00  0.00     0.168 C 
BRANCH  31  32
HETATM   32  C   UNL     1      42.400 -11.344   5.790  1.00  0.00     0.140 C 
HETATM   33  O   UNL     1      42.941 -10.538   6.860  1.00  0.00    -0.384 OA
HETATM   34  C   UNL     1      44.045 -11.235   7.449  1.00  0.00     0.168 C 
HETATM   35  C   UNL     1      43.879 -12.686   7.062  1.00  0.00     0.029 C 
HETATM   36  C   UNL     1      43.298 -12.571   5.676  1.00  0.00     0.036 C 
ENDBRANCH  31  32
ENDBRANCH   5  31
TORSDOF 6
ENDMDL
MODEL 5
REMARK VINA RESULT:      -9.0      2.584      6.860
REMARK  6 active torsions:
REMARK  status: ('A' for Active; 'I' for Inactive)
REMARK    1  A    between atoms: C_4  and  C_5 
REMARK    2  A    between atoms: C_5  and  N_6 
REMARK    3  A    between atoms: C_10  and  C_11 
REMARK    4  A    between atoms: C_11  and  C_12 
REMARK    5  A    between atoms: N_21  and  C_22 
REMARK    6  A    between atoms: C_22  and  C_23 
ROOT
HETATM    1  C   UNL     1      42.512 -12.703   5.946  1.00  0.00     0.164 C 
HETATM    2  N   UNL     1      42.039 -13.648   6.953  1.00  0.00    -0.319 N 
HETATM    3  C   UNL     1      42.616 -14.888   6.823  1.00  0.00     0.326 C 
HETATM    4  O   UNL     1      42.544 -15.773   7.657  1.00  0.00    -0.247 OA
HETATM    5  N   UNL     1      43.252 -14.940   5.626  1.00  0.00    -0.265 N 
HETATM    6  C   UNL     1      43.247 -13.709   5.039  1.00  0.00     0.263 C 
HETATM    7  O   UNL     1      43.712 -13.443   3.937  1.00  0.00    -0.270 OA
HETATM    8  H   UNL     1      41.746 -13.343   7.876  1.00  0.00     0.166 HD
ENDROOT
BRANCH   1   9
HETATM    9  C   UNL     1      41.283 -11.989   5.273  1.00  0.00     0.033 C 
HETATM   10  C   UNL     1      40.190 -12.917   4.719  1.00  0.00     0.036 C 
HETATM   11  C   UNL     1      40.510 -13.558   3.378  1.00  0.00     0.235 C 
HETATM   12  N   UNL     1      40.998 -12.562   2.357  1.00  0.00    -0.067 N 
HETATM   13  H   UNL     1      40.160 -12.074   2.020  1.00  0.00     0.280 HD
HETATM   14  C   UNL     1      41.970 -11.510   2.833  1.00  0.00     0.235 C 
HETATM   15  C   UNL     1      41.593 -10.943   4.189  1.00  0.00     0.036 C 
BRANCH  12  16
HETATM   16  C   UNL     1      41.600 -13.261   1.132  1.00  0.00     0.274 C 
BRANCH  16  17
HETATM   17  C   UNL     1      40.691 -13.320  -0.070  1.00  0.00    -0.026 A 
HETATM   18  C   UNL     1      40.650 -12.201  -0.931  1.00  0.00     0.016 A 
HETATM   19  C   UNL     1      39.879 -12.203  -2.097  1.00  0.00    -0.061 A 
HETATM   20  C   UNL     1      39.851 -11.016  -3.015  1.00  0.00     0.048 C 
HETATM   21  C   UNL     1      39.113 -13.331  -2.392  1.00  0.00     0.007 A 
HETATM   22  C   UNL     1      39.122 -14.436  -1.539  1.00  0.00     0.008 A 
HETATM   23  C   UNL     1      39.912 -14.453  -0.379  1.00  0.00    -0.054 A 
HETATM   24  C   UNL     1      39.830 -15.650   0.528  1.00  0.00     0.049 C 
ENDBRANCH  16  17
ENDBRANCH  12  16
ENDBRANCH   1   9
BRANCH   1  25
HETATM   25  C   UNL     1      43.445 -11.707   6.638  1.00  0.00     0.072 A 
HETATM   26  N   UNL     1      42.813 -10.723   7.337  1.00  0.00    -0.262 NA
HETATM   27  C   UNL     1      43.574  -9.833   8.016  1.00  0.00     0.117 A 
HETATM   28  C   UNL     1      44.954  -9.860   8.027  1.00  0.00     0.019 A 
HETATM   29  C   UNL     1      45.593 -10.861   7.307  1.00  0.00     0.003 A 
HETATM   30  C   UNL     1      44.836 -11.799   6.605  1.00  0.00     0.030 A 
ENDBRANCH   1  25
BRANCH   5  31
HETATM   31  C   UNL     1      43.948 -16.104   5.106  1.00  0.00     0.168 C 
BRANCH  31  32
HETATM   32  C   UNL     1      43.023 -17.034   4.312  1.00  0.00     0.140 C 
HETATM   33  O   UNL     1      43.508 -18.393   4.377  1.00  0.00    -0.384 OA
HETATM   34  C   UNL     1      43.668 -18.887   3.042  1.00  0.00     0.168 C 
HETATM   35  C   UNL     1      42.820 -18.002   2.161  1.00  0.00     0.029 C 
HETATM   36  C   UNL     1      42.971 -16.661   2.835  1.00  0.00     0.036 C 
ENDBRANCH  31  32
ENDBRANCH   5  31
TORSDOF 6
ENDMDL
MODEL 6
REMARK VINA RESULT:      -9.0      2.445      7.269
REMARK  6 active torsions:
REMARK  status: ('A' for Active; 'I' for Inactive)
REMARK    1  A    between atoms: C_4  and  C_5 
REMARK    2  A    between atoms: C_5  and  N_6 
REMARK    3  A    between atoms: C_10  and  C_11 
REMARK    4  A    between atoms: C_11  and  C_12 
REMARK    5  A    between atoms: N_21  and  C_22 
REMARK    6  A    between atoms: C_22  and  C_23 
ROOT
HETATM    1  C   UNL     1      40.788 -13.667   3.668  1.00  0.00     0.164 C 
HETATM    2  N   UNL     1      39.459 -13.618   3.065  1.00  0.00    -0.319 N 
HETATM    3  C   UNL     1      39.315 -12.564   2.193  1.00  0.00     0.326 C 
HETATM    4  O   UNL     1      38.385 -12.432   1.420  1.00  0.00    -0.247 OA
HETATM    5  N   UNL     1      40.367 -11.725   2.362  1.00  0.00    -0.265 N 
HETATM    6  C   UNL     1      41.283 -12.284   3.204  1.00  0.00     0.263 C 
HETATM    7  O   UNL     1      42.324 -11.755   3.578  1.00  0.00    -0.270 OA
HETATM    8  H   UNL     1      38.914 -14.459   2.903  1.00  0.00     0.166 HD
ENDROOT
BRANCH   1   9
HETATM    9  C   UNL     1      40.654 -13.828   5.226  1.00  0.00     0.033 C 
HETATM   10  C   UNL     1      39.870 -12.720   5.949  1.00  0.00     0.036 C 
HETATM   11  C   UNL     1      40.643 -11.432   6.181  1.00  0.00     0.235 C 
HETATM   12  N   UNL     1      42.004 -11.669   6.785  1.00  0.00    -0.067 N 
HETATM   13  H   UNL     1      41.840 -11.850   7.782  1.00  0.00     0.280 HD
HETATM   14  C   UNL     1      42.804 -12.829   6.245  1.00  0.00     0.235 C 
HETATM   15  C   UNL     1      41.953 -14.064   6.016  1.00  0.00     0.036 C 
BRANCH  12  16
HETATM   16  C   UNL     1      42.874 -10.408   6.724  1.00  0.00     0.274 C 
BRANCH  16  17
HETATM   17  C   UNL     1      43.720 -10.166   7.949  1.00  0.00    -0.026 A 
HETATM   18  C   UNL     1      43.100  -9.609   9.089  1.00  0.00     0.016 A 
HETATM   19  C   UNL     1      43.803  -9.411  10.281  1.00  0.00    -0.061 A 
HETATM   20  C   UNL     1      43.134  -8.832  11.493  1.00  0.00     0.048 C 
HETATM   21  C   UNL     1      45.155  -9.749  10.324  1.00  0.00     0.007 A 
HETATM   22  C   UNL     1      45.791 -10.277   9.199  1.00  0.00     0.008 A 
HETATM   23  C   UNL     1      45.088 -10.502   8.006  1.00  0.00    -0.054 A 
HETATM   24  C   UNL     1      45.845 -11.017   6.813  1.00  0.00     0.049 C 
ENDBRANCH  16  17
ENDBRANCH  12  16
ENDBRANCH   1   9
BRANCH   1  25
HETATM   25  C   UNL     1      41.547 -14.834   3.034  1.00  0.00     0.072 A 
HETATM   26  N   UNL     1      42.661 -14.480   2.334  1.00  0.00    -0.262 NA
HETATM   27  C   UNL     1      43.411 -15.463   1.786  1.00  0.00     0.117 A 
HETATM   28  C   UNL     1      43.101 -16.805   1.886  1.00  0.00     0.019 A 
HETATM   29  C   UNL     1      41.961 -17.161   2.594  1.00  0.00     0.003 A 
HETATM   30  C   UNL     1      41.173 -16.170   3.179  1.00  0.00     0.030 A 
ENDBRANCH   1  25
BRANCH   5  31
HETATM   31  C   UNL     1      40.552 -10.472   1.649  1.00  0.00     0.168 C 
BRANCH  31  32
HETATM   32  C   UNL     1      41.369 -10.645   0.364  1.00  0.00     0.140 C 
HETATM   33  O   UNL     1      42.235  -9.505   0.167  1.00  0.00    -0.384 OA
HETATM   34  C   UNL     1      41.984  -8.956  -1.132  1.00  0.00     0.168 C 
HETATM   35  C   UNL     1      41.310 -10.049  -1.927  1.00  0.00     0.029 C 
HETATM   36  C   UNL     1      40.477 -10.731  -0.870  1.00  0.00     0.036 C 
ENDBRANCH  31  32
ENDBRANCH   5  31
TORSDOF 6
ENDMDL
MODEL 7
REMARK VINA RESULT:      -8.9      2.208      6.968
REMARK  6 active torsions:
REMARK  status: ('A' for Active; 'I' for Inactive)
REMARK    1  A    between atoms: C_4  and  C_5 
REMARK    2  A    between atoms: C_5  and  N_6 
REMARK    3  A    between atoms: C_10  and  C_11 
REMARK    4  A    between atoms: C_11  and  C_12 
REMARK    5  A    between atoms: N_21  and  C_22 
REMARK    6  A    between atoms: C_22  and  C_23 
ROOT
HETATM    1  C   UNL     1      41.659 -14.446   4.018  1.00  0.00     0.164 C 
HETATM    2  N   UNL     1      42.422 -13.663   3.052  1.00  0.00    -0.319 N 
HETATM    3  C   UNL     1      43.056 -12.588   3.628  1.00  0.00     0.326 C 
HETATM    4  O   UNL     1      43.909 -11.915   3.078  1.00  0.00    -0.247 OA
HETATM    5  N   UNL     1      42.559 -12.420   4.879  1.00  0.00    -0.265 N 
HETATM    6  C   UNL     1      41.734 -13.459   5.199  1.00  0.00     0.263 C 
HETATM    7  O   UNL     1      41.108 -13.575   6.246  1.00  0.00    -0.270 OA
HETATM    8  H   UNL     1      42.839 -14.089   2.229  1.00  0.00     0.166 HD
ENDROOT
BRANCH   1   9
HETATM    9  C   UNL     1      40.208 -14.698   3.466  1.00  0.00     0.033 C 
HETATM   10  C   UNL     1      40.087 -15.759   2.360  1.00  0.00     0.036 C 
HETATM   11  C   UNL     1      40.499 -15.292   0.973  1.00  0.00     0.235 C 
HETATM   12  N   UNL     1      39.867 -13.977   0.589  1.00  0.00    -0.067 N 
HETATM   13  H   UNL     1      38.901 -14.200   0.321  1.00  0.00     0.280 HD
HETATM   14  C   UNL     1      39.803 -12.909   1.653  1.00  0.00     0.235 C 
HETATM   15  C   UNL     1      39.413 -13.463   3.010  1.00  0.00     0.036 C 
BRANCH  12  16
HETATM   16  C   UNL     1      40.525 -13.381  -0.661  1.00  0.00     0.274 C 
BRANCH  16  17
HETATM   17  C   UNL     1      39.634 -12.471  -1.469  1.00  0.00    -0.026 A 
HETATM   18  C   UNL     1      38.386 -12.972  -1.903  1.00  0.00     0.016 A 
HETATM   19  C   UNL     1      37.481 -12.171  -2.604  1.00  0.00    -0.061 A 
HETATM   20  C   UNL     1      36.151 -12.705  -3.049  1.00  0.00     0.048 C 
HETATM   21  C   UNL     1      37.840 -10.857  -2.901  1.00  0.00     0.007 A 
HETATM   22  C   UNL     1      39.079 -10.353  -2.502  1.00  0.00     0.008 A 
HETATM   23  C   UNL     1      39.985 -11.142  -1.777  1.00  0.00    -0.054 A 
HETATM   24  C   UNL     1      41.327 -10.558  -1.430  1.00  0.00     0.049 C 
ENDBRANCH  16  17
ENDBRANCH  12  16
ENDBRANCH   1   9
BRANCH   1  25
HETATM   25  C   UNL     1      42.413 -15.754   4.263  1.00  0.00     0.072 A 
HETATM   26  N   UNL     1      42.249 -16.285   5.507  1.00  0.00    -0.262 NA
HETATM   27  C   UNL     1      42.848 -17.466   5.781  1.00  0.00     0.117 A 
HETATM   28  C   UNL     1      43.628 -18.157   4.874  1.00  0.00     0.019 A 
HETATM   29  C   UNL     1      43.798 -17.607   3.610  1.00  0.00     0.003 A 
HETATM   30  C   UNL     1      43.185 -16.395   3.294  1.00  0.00     0.030 A 
ENDBRANCH   1  25
BRANCH   5  31
HETATM   31  C   UNL     1      42.949 -11.359   5.791  1.00  0.00     0.168 C 
BRANCH  31  32
HETATM   32  C   UNL     1      44.127 -11.760   6.686  1.00  0.00     0.140 C 
HETATM   33  O   UNL     1      43.948 -11.223   8.016  1.00  0.00    -0.384 OA
HETATM   34  C   UNL     1      45.108 -10.458   8.362  1.00  0.00     0.168 C 
HETATM   35  C   UNL     1      46.210 -10.924   7.441  1.00  0.00     0.029 C 
HETATM   36  C   UNL     1      45.449 -11.205   6.169  1.00  0.00     0.036 C 
ENDBRANCH  31  32
ENDBRANCH   5  31
TORSDOF 6
ENDMDL
MODEL 8
REMARK VINA RESULT:      -8.7      2.078      6.723
REMARK  6 active torsions:
REMARK  status: ('A' for Active; 'I' for Inactive)
REMARK    1  A    between atoms: C_4  and  C_5 
REMARK    2  A    between atoms: C_5  and  N_6 
REMARK    3  A    between atoms: C_10  and  C_11 
REMARK    4  A    between atoms: C_11  and  C_12 
REMARK    5  A    between atoms: N_21  and  C_22 
REMARK    6  A    between atoms: C_22  and  C_23 
ROOT
HETATM    1  C   UNL     1      42.326 -13.695   4.464  1.00  0.00     0.164 C 
HETATM    2  N   UNL     1      42.848 -12.565   3.700  1.00  0.00    -0.319 N 
HETATM    3  C   UNL     1      43.921 -11.964   4.315  1.00  0.00     0.326 C 
HETATM    4  O   UNL     1      44.650 -11.147   3.784  1.00  0.00    -0.247 OA
HETATM    5  N   UNL     1      44.003 -12.433   5.585  1.00  0.00    -0.265 N 
HETATM    6  C   UNL     1      43.111 -13.450   5.767  1.00  0.00     0.263 C 
HETATM    7  O   UNL     1      42.924 -14.054   6.818  1.00  0.00    -0.270 OA
HETATM    8  H   UNL     1      42.788 -12.532   2.687  1.00  0.00     0.166 HD
ENDROOT
BRANCH   1   9
HETATM    9  C   UNL     1      40.766 -13.561   4.604  1.00  0.00     0.033 C 
HETATM   10  C   UNL     1      39.941 -14.051   3.402  1.00  0.00     0.036 C 
HETATM   11  C   UNL     1      39.885 -13.088   2.227  1.00  0.00     0.235 C 
HETATM   12  N   UNL     1      39.530 -11.682   2.640  1.00  0.00    -0.067 N 
HETATM   13  H   UNL     1      38.516 -11.684   2.797  1.00  0.00     0.280 HD
HETATM   14  C   UNL     1      40.178 -11.152   3.897  1.00  0.00     0.235 C 
HETATM   15  C   UNL     1      40.218 -12.182   5.009  1.00  0.00     0.036 C 
BRANCH  12  16
HETATM   16  C   UNL     1      39.780 -10.682   1.505  1.00  0.00     0.274 C 
BRANCH  16  17
HETATM   17  C   UNL     1      39.339 -11.154   0.142  1.00  0.00    -0.026 A 
HETATM   18  C   UNL     1      40.334 -11.476  -0.808  1.00  0.00     0.016 A 
HETATM   19  C   UNL     1      40.005 -11.976  -2.070  1.00  0.00    -0.061 A 
HETATM   20  C   UNL     1      41.068 -12.329  -3.069  1.00  0.00     0.048 C 
HETATM   21  C   UNL     1      38.659 -12.132  -2.400  1.00  0.00     0.007 A 
HETATM   22  C   UNL     1      37.661 -11.796  -1.483  1.00  0.00     0.008 A 
HETATM   23  C   UNL     1      37.982 -11.315  -0.204  1.00  0.00    -0.054 A 
HETATM   24  C   UNL     1      36.860 -10.915   0.715  1.00  0.00     0.049 C 
ENDBRANCH  16  17
ENDBRANCH  12  16
ENDBRANCH   1   9
BRANCH   1  25
HETATM   25  C   UNL     1      42.729 -14.979   3.737  1.00  0.00     0.072 A 
HETATM   26  N   UNL     1      42.686 -16.106   4.501  1.00  0.00    -0.262 NA
HETATM   27  C   UNL     1      42.983 -17.287   3.912  1.00  0.00     0.117 A 
HETATM   28  C   UNL     1      43.339 -17.411   2.584  1.00  0.00     0.019 A 
HETATM   29  C   UNL     1      43.389 -16.258   1.812  1.00  0.00     0.003 A 
HETATM   30  C   UNL     1      43.079 -15.026   2.387  1.00  0.00     0.030 A 
ENDBRANCH   1  25
BRANCH   5  31
HETATM   31  C   UNL     1      44.983 -12.005   6.567  1.00  0.00     0.168 C 
BRANCH  31  32
HETATM   32  C   UNL     1      44.617 -10.664   7.214  1.00  0.00     0.140 C 
HETATM   33  O   UNL     1      45.799  -9.848   7.372  1.00  0.00    -0.384 OA
HETATM   34  C   UNL     1      45.908  -9.460   8.747  1.00  0.00     0.168 C 
HETATM   35  C   UNL     1      44.531  -9.631   9.343  1.00  0.00     0.029 C 
HETATM   36  C   UNL     1      44.026 -10.847   8.607  1.00  0.00     0.036 C 
ENDBRANCH  31  32
ENDBRANCH   5  31
TORSDOF 6
ENDMDL
MODEL 9
REMARK VINA RESULT:      -8.7      1.575      2.707
REMARK  6 active torsions:
REMARK  status: ('A' for Active; 'I' for Inactive)
REMARK    1  A    between atoms: C_4  and  C_5 
REMARK    2  A    between atoms: C_5  and  N_6 
REMARK    3  A    between atoms: C_10  and  C_11 
REMARK    4  A    between atoms: C_11  and  C_12 
REMARK    5  A    between atoms: N_21  and  C_22 
REMARK    6  A    between atoms: C_22  and  C_23 
ROOT
HETATM    1  C   UNL     1      40.125 -12.149   1.498  1.00  0.00     0.164 C 
HETATM    2  N   UNL     1      39.425 -12.775   2.616  1.00  0.00    -0.319 N 
HETATM    3  C   UNL     1      39.558 -12.065   3.785  1.00  0.00     0.326 C 
HETATM    4  O   UNL     1      38.905 -12.267   4.792  1.00  0.00    -0.247 OA
HETATM    5  N   UNL     1      40.530 -11.135   3.611  1.00  0.00    -0.265 N 
HETATM    6  C   UNL     1      40.923 -11.106   2.304  1.00  0.00     0.263 C 
HETATM    7  O   UNL     1      41.807 -10.395   1.841  1.00  0.00    -0.270 OA
HETATM    8  H   UNL     1      38.585 -13.330   2.477  1.00  0.00     0.166 HD
ENDROOT
BRANCH   1   9
HETATM    9  C   UNL     1      41.006 -13.222   0.759  1.00  0.00     0.033 C 
HETATM   10  C   UNL     1      40.283 -14.514   0.347  1.00  0.00     0.036 C 
HETATM   11  C   UNL     1      40.065 -15.515   1.470  1.00  0.00     0.235 C 
HETATM   12  N   UNL     1      41.318 -15.779   2.268  1.00  0.00    -0.067 N 
HETATM   13  H   UNL     1      41.884 -16.415   1.695  1.00  0.00     0.280 HD
HETATM   14  C   UNL     1      42.182 -14.588   2.604  1.00  0.00     0.235 C 
HETATM   15  C   UNL     1      42.325 -13.627   1.439  1.00  0.00     0.036 C 
BRANCH  12  16
HETATM   16  C   UNL     1      41.010 -16.538   3.564  1.00  0.00     0.274 C 
BRANCH  16  17
HETATM   17  C   UNL     1      42.183 -16.688   4.500  1.00  0.00    -0.026 A 
HETATM   18  C   UNL     1      42.114 -16.061   5.764  1.00  0.00     0.016 A 
HETATM   19  C   UNL     1      43.134 -16.203   6.708  1.00  0.00    -0.061 A 
HETATM   20  C   UNL     1      43.047 -15.546   8.054  1.00  0.00     0.048 C 
HETATM   21  C   UNL     1      44.255 -16.962   6.374  1.00  0.00     0.007 A 
HETATM   22  C   UNL     1      44.352 -17.569   5.120  1.00  0.00     0.008 A 
HETATM   23  C   UNL     1      43.322 -17.451   4.174  1.00  0.00    -0.054 A 
HETATM   24  C   UNL     1      43.515 -18.079   2.821  1.00  0.00     0.049 C 
ENDBRANCH  16  17
ENDBRANCH  12  16
ENDBRANCH   1   9
BRANCH   1  25
HETATM   25  C   UNL     1      39.074 -11.535   0.572  1.00  0.00     0.072 A 
HETATM   26  N   UNL     1      39.530 -11.197  -0.667  1.00  0.00    -0.262 NA
HETATM   27  C   UNL     1      38.645 -10.692  -1.557  1.00  0.00     0.117 A 
HETATM   28  C   UNL     1      37.309 -10.488  -1.275  1.00  0.00     0.019 A 
HETATM   29  C   UNL     1      36.851 -10.827  -0.008  1.00  0.00     0.003 A 
HETATM   30  C   UNL     1      37.736 -11.359   0.928  1.00  0.00     0.030 A 
ENDBRANCH   1  25
BRANCH   5  31
HETATM   31  C   UNL     1      40.992 -10.215   4.636  1.00  0.00     0.168 C 
BRANCH  31  32
HETATM   32  C   UNL     1      42.244 -10.725   5.359  1.00  0.00     0.140 C 
HETATM   33  O   UNL     1      43.403 -10.583   4.508  1.00  0.00    -0.384 OA
HETATM   34  C   UNL     1      44.046 -11.858   4.391  1.00  0.00     0.168 C 
HETATM   35  C   UNL     1      43.562 -12.681   5.561  1.00  0.00     0.029 C 
HETATM   36  C   UNL     1      42.138 -12.206   5.705  1.00  0.00     0.036 C 
ENDBRANCH  31  32
ENDBRANCH   5  31
TORSDOF 6
ENDMDL
MODEL 10
REMARK VINA RESULT:      -8.5      2.378      6.736
REMARK  6 active torsions:
REMARK  status: ('A' for Active; 'I' for Inactive)
REMARK    1  A    between atoms: C_4  and  C_5 
REMARK    2  A    between atoms: C_5  and  N_6 
REMARK    3  A    between atoms: C_10  and  C_11 
REMARK    4  A    between atoms: C_11  and  C_12 
REMARK    5  A    between atoms: N_21  and  C_22 
REMARK    6  A    between atoms: C_22  and  C_23 
ROOT
HETATM    1  C   UNL     1      42.638 -12.478   5.538  1.00  0.00     0.164 C 
HETATM    2  N   UNL     1      41.215 -12.797   5.467  1.00  0.00    -0.319 N 
HETATM    3  C   UNL     1      40.890 -13.923   6.184  1.00  0.00     0.326 C 
HETATM    4  O   UNL     1      39.753 -14.269   6.448  1.00  0.00    -0.247 OA
HETATM    5  N   UNL     1      42.040 -14.559   6.523  1.00  0.00    -0.265 N 
HETATM    6  C   UNL     1      43.117 -13.791   6.189  1.00  0.00     0.263 C 
HETATM    7  O   UNL     1      44.292 -14.107   6.337  1.00  0.00    -0.270 OA
HETATM    8  H   UNL     1      40.511 -12.074   5.353  1.00  0.00     0.166 HD
ENDROOT
BRANCH   1   9
HETATM    9  C   UNL     1      43.195 -12.223   4.090  1.00  0.00     0.033 C 
HETATM   10  C   UNL     1      42.685 -10.953   3.390  1.00  0.00     0.036 C 
HETATM   11  C   UNL     1      41.289 -11.061   2.798  1.00  0.00     0.235 C 
HETATM   12  N   UNL     1      41.106 -12.300   1.958  1.00  0.00    -0.067 N 
HETATM   13  H   UNL     1      41.564 -12.100   1.062  1.00  0.00     0.280 HD
HETATM   14  C   UNL     1      41.700 -13.583   2.488  1.00  0.00     0.235 C 
HETATM   15  C   UNL     1      43.079 -13.382   3.085  1.00  0.00     0.036 C 
BRANCH  12  16
HETATM   16  C   UNL     1      39.628 -12.546   1.633  1.00  0.00     0.274 C 
BRANCH  16  17
HETATM   17  C   UNL     1      39.284 -12.464   0.166  1.00  0.00    -0.026 A 
HETATM   18  C   UNL     1      39.312 -13.653  -0.594  1.00  0.00     0.016 A 
HETATM   19  C   UNL     1      38.948 -13.668  -1.943  1.00  0.00    -0.061 A 
HETATM   20  C   UNL     1      38.967 -14.939  -2.741  1.00  0.00     0.048 C 
HETATM   21  C   UNL     1      38.576 -12.469  -2.550  1.00  0.00     0.007 A 
HETATM   22  C   UNL     1      38.567 -11.278  -1.820  1.00  0.00     0.008 A 
HETATM   23  C   UNL     1      38.908 -11.258  -0.459  1.00  0.00    -0.054 A 
HETATM   24  C   UNL     1      38.935  -9.934   0.254  1.00  0.00     0.049 C 
ENDBRANCH  16  17
ENDBRANCH  12  16
ENDBRANCH   1   9
BRANCH   1  25
HETATM   25  C   UNL     1      42.800 -11.253   6.439  1.00  0.00     0.072 A 
HETATM   26  N   UNL     1      41.645 -10.580   6.703  1.00  0.00    -0.262 NA
HETATM   27  C   UNL     1      41.703  -9.513   7.532  1.00  0.00     0.117 A 
HETATM   28  C   UNL     1      42.870  -9.060   8.113  1.00  0.00     0.019 A 
HETATM   29  C   UNL     1      44.046  -9.744   7.835  1.00  0.00     0.003 A 
HETATM   30  C   UNL     1      44.017 -10.854   6.992  1.00  0.00     0.030 A 
ENDBRANCH   1  25
BRANCH   5  31
HETATM   31  C   UNL     1      42.111 -15.813   7.252  1.00  0.00     0.168 C 
BRANCH  31  32
HETATM   32  C   UNL     1      42.418 -17.005   6.338  1.00  0.00     0.140 C 
HETATM   33  O   UNL     1      43.804 -17.389   6.470  1.00  0.00    -0.384 OA
HETATM   34  C   UNL     1      44.408 -17.387   5.171  1.00  0.00     0.168 C 
HETATM   35  C   UNL     1      43.271 -17.475   4.180  1.00  0.00     0.029 C 
HETATM   36  C   UNL     1      42.200 -16.666   4.868  1.00  0.00     0.036 C 
ENDBRANCH  31  32
ENDBRANCH   5  31
TORSDOF 6
ENDMDL
