MODEL 1
REMARK VINA RESULT:      -8.7      0.000      0.000
REMARK  9 active torsions:
REMARK  status: ('A' for Active; 'I' for Inactive)
REMARK    1  A    between atoms: C_6  and  N_7 
REMARK    2  A    between atoms: C_6  and  C_31 
REMARK       I    between atoms: N_7  and  C_8 
REMARK    3  A    between atoms: N_7  and  C_23 
REMARK    4  A    between atoms: C_8  and  C_9 
REMARK    5  A    between atoms: C_9  and  N_10 
REMARK    6  A    between atoms: C_14  and  C_15 
REMARK    7  A    between atoms: C_23  and  C_24 
REMARK       I    between atoms: C_31  and  N_32 
REMARK    8  A    between atoms: N_32  and  C_33 
REMARK    9  A    between atoms: C_36  and  O_37 
ROOT
HETATM    1  N   UNL     1      40.585 -11.978   4.289  1.00  0.00    -0.328 N 
HETATM    2  C   UNL     1      39.945 -10.748   4.529  1.00  0.00     0.239 C 
HETATM    3  O   UNL     1      40.439  -9.907   5.287  1.00  0.00    -0.271 OA
ENDROOT
BRANCH   1   4
HETATM    4  C   UNL     1      41.946 -12.251   4.918  1.00  0.00     0.120 C 
HETATM    5  C   UNL     1      43.093 -11.663   4.047  1.00  0.00     0.069 C 
HETATM    6  C   UNL     1      44.454 -11.792   4.716  1.00  0.00     0.237 C 
HETATM    7  N   UNL     1      44.419 -11.084   6.042  1.00  0.00    -0.075 N 
HETATM    8  C   UNL     1      45.785 -11.049   6.677  1.00  0.00     0.269 C 
HETATM    9  H   UNL     1      44.153 -10.102   5.869  1.00  0.00     0.279 HD
HETATM   10  C   UNL     1      43.392 -11.667   6.981  1.00  0.00     0.237 C 
HETATM   11  C   UNL     1      42.006 -11.619   6.341  1.00  0.00     0.069 C 
BRANCH   4  12
HETATM   12  C   UNL     1      42.234 -13.799   5.078  1.00  0.00     0.251 C 
HETATM   13  N   UNL     1      43.061 -14.349   4.119  1.00  0.00    -0.325 N 
HETATM   14  H   UNL     1      43.392 -13.753   3.369  1.00  0.00     0.169 HD
HETATM   15  O   UNL     1      41.796 -14.408   6.052  1.00  0.00    -0.270 OA
BRANCH  13  16
HETATM   16  C   UNL     1      43.369 -15.716   3.938  1.00  0.00     0.035 A 
HETATM   17  C   UNL     1      43.917 -16.534   4.928  1.00  0.00     0.032 A 
HETATM   18  C   UNL     1      44.085 -17.906   4.703  1.00  0.00     0.039 A 
HETATM   19  C   UNL     1      43.716 -18.468   3.482  1.00  0.00     0.068 A 
HETATM   20  C   UNL     1      43.223 -17.647   2.472  1.00  0.00     0.039 A 
HETATM   21  C   UNL     1      43.034 -16.283   2.702  1.00  0.00     0.032 A 
BRANCH  19  22
HETATM   22  O   UNL     1      43.823 -19.792   3.166  1.00  0.00    -0.356 OA
HETATM   23  C   UNL     1      43.248 -20.159   1.915  1.00  0.00     0.210 C 
ENDBRANCH  19  22
ENDBRANCH  13  16
ENDBRANCH   4  12
ENDBRANCH   1   4
BRANCH   1  24
HETATM   24  C   UNL     1      39.784 -13.132   3.818  1.00  0.00     0.169 C 
BRANCH  24  25
HETATM   25  C   UNL     1      40.121 -13.623   2.435  1.00  0.00    -0.002 A 
HETATM   26  C   UNL     1      39.748 -14.930   2.090  1.00  0.00     0.124 A 
HETATM   27  F   UNL     1      39.136 -15.702   2.999  1.00  0.00    -0.205 F 
HETATM   28  C   UNL     1      40.014 -15.459   0.832  1.00  0.00     0.043 A 
HETATM   29  C   UNL     1      40.650 -14.672  -0.123  1.00  0.00     0.003 A 
HETATM   30  C   UNL     1      41.011 -13.362   0.185  1.00  0.00     0.001 A 
HETATM   31  C   UNL     1      40.746 -12.837   1.454  1.00  0.00     0.012 A 
ENDBRANCH  24  25
ENDBRANCH   1  24
BRANCH   2  32
HETATM   32  C   UNL     1      38.616 -10.423   3.818  1.00  0.00     0.228 C 
BRANCH  32  33
HETATM   33  N   UNL     1      38.677 -10.269   2.368  1.00  0.00    -0.347 N 
HETATM   34  C   UNL     1      39.297  -9.222   1.685  1.00  0.00     0.171 A 
HETATM   35  S   UNL     1      40.323  -8.062   2.264  1.00  0.00    -0.041 SA
HETATM   36  N   UNL     1      38.918  -9.281   0.362  1.00  0.00    -0.357 N 
HETATM   37  C   UNL     1      37.920 -10.293   0.116  1.00  0.00     0.135 A 
HETATM   38  H   UNL     1      39.216  -8.591  -0.317  1.00  0.00     0.162 HD
HETATM   39  C   UNL     1      37.762 -10.985   1.483  1.00  0.00     0.155 A 
BRANCH  37  40
HETATM   40  C   UNL     1      38.323 -11.197  -1.024  1.00  0.00    -0.034 A 
HETATM   41  C   UNL     1      37.677 -12.423  -1.252  1.00  0.00     0.009 A 
HETATM   42  C   UNL     1      38.083 -13.259  -2.295  1.00  0.00     0.001 A 
HETATM   43  C   UNL     1      39.139 -12.882  -3.120  1.00  0.00     0.000 A 
HETATM   44  C   UNL     1      39.791 -11.670  -2.905  1.00  0.00     0.001 A 
HETATM   45  C   UNL     1      39.386 -10.832  -1.864  1.00  0.00     0.009 A 
ENDBRANCH  37  40
ENDBRANCH  32  33
ENDBRANCH   2  32
TORSDOF 9
ENDMDL
MODEL 2
REMARK VINA RESULT:      -8.6      2.817      7.286
REMARK  9 active torsions:
REMARK  status: ('A' for Active; 'I' for Inactive)
REMARK    1  A    between atoms: C_6  and  N_7 
REMARK    2  A    between atoms: C_6  and  C_31 
REMARK       I    between atoms: N_7  and  C_8 
REMARK    3  A    between atoms: N_7  and  C_23 
REMARK    4  A    between atoms: C_8  and  C_9 
REMARK    5  A    between atoms: C_9  and  N_10 
REMARK    6  A    between atoms: C_14  and  C_15 
REMARK    7  A    between atoms: C_23  and  C_24 
REMARK       I    between atoms: C_31  and  N_32 
REMARK    8  A    between atoms: N_32  and  C_33 
REMARK    9  A    between atoms: C_36  and  O_37 
ROOT
HETATM    1  N   UNL     1      42.380 -12.519   4.473  1.00  0.00    -0.328 N 
HETATM    2  C   UNL     1      42.786 -12.416   5.817  1.00  0.00     0.239 C 
HETATM    3  O   UNL     1      42.337 -11.532   6.554  1.00  0.00    -0.271 OA
ENDROOT
BRANCH   1   4
HETATM    4  C   UNL     1      41.317 -11.568   3.935  1.00  0.00     0.120 C 
HETATM    5  C   UNL     1      39.918 -11.898   4.533  1.00  0.00     0.069 C 
HETATM    6  C   UNL     1      38.862 -10.880   4.128  1.00  0.00     0.237 C 
HETATM    7  N   UNL     1      39.292  -9.515   4.586  1.00  0.00    -0.075 N 
HETATM    8  C   UNL     1      38.210  -8.493   4.349  1.00  0.00     0.269 C 
HETATM    9  H   UNL     1      39.435  -9.555   5.608  1.00  0.00     0.279 HD
HETATM   10  C   UNL     1      40.599  -9.083   3.968  1.00  0.00     0.237 C 
HETATM   11  C   UNL     1      41.694 -10.099   4.291  1.00  0.00     0.069 C 
BRANCH   4  12
HETATM   12  C   UNL     1      41.179 -11.650   2.361  1.00  0.00     0.251 C 
HETATM   13  N   UNL     1      40.058 -12.309   1.899  1.00  0.00    -0.325 N 
HETATM   14  H   UNL     1      39.430 -12.724   2.578  1.00  0.00     0.169 HD
HETATM   15  O   UNL     1      41.996 -11.079   1.642  1.00  0.00    -0.270 OA
BRANCH  13  16
HETATM   16  C   UNL     1      39.756 -12.651   0.561  1.00  0.00     0.035 A 
HETATM   17  C   UNL     1      39.293 -11.744  -0.393  1.00  0.00     0.032 A 
HETATM   18  C   UNL     1      39.127 -12.139  -1.727  1.00  0.00     0.039 A 
HETATM   19  C   UNL     1      39.415 -13.446  -2.113  1.00  0.00     0.068 A 
HETATM   20  C   UNL     1      39.823 -14.369  -1.154  1.00  0.00     0.039 A 
HETATM   21  C   UNL     1      40.009 -13.972   0.171  1.00  0.00     0.032 A 
BRANCH  19  22
HETATM   22  O   UNL     1      39.304 -13.928  -3.386  1.00  0.00    -0.356 OA
HETATM   23  C   UNL     1      38.254 -14.872  -3.580  1.00  0.00     0.210 C 
ENDBRANCH  19  22
ENDBRANCH  13  16
ENDBRANCH   4  12
ENDBRANCH   1   4
BRANCH   1  24
HETATM   24  C   UNL     1      43.259 -13.212   3.502  1.00  0.00     0.169 C 
BRANCH  24  25
HETATM   25  C   UNL     1      42.698 -14.489   2.932  1.00  0.00    -0.002 A 
HETATM   26  C   UNL     1      43.399 -15.107   1.887  1.00  0.00     0.124 A 
HETATM   27  F   UNL     1      44.516 -14.536   1.414  1.00  0.00    -0.205 F 
HETATM   28  C   UNL     1      42.956 -16.291   1.309  1.00  0.00     0.043 A 
HETATM   29  C   UNL     1      41.798 -16.897   1.786  1.00  0.00     0.003 A 
HETATM   30  C   UNL     1      41.094 -16.316   2.840  1.00  0.00     0.001 A 
HETATM   31  C   UNL     1      41.542 -15.122   3.413  1.00  0.00     0.012 A 
ENDBRANCH  24  25
ENDBRANCH   1  24
BRANCH   2  32
HETATM   32  C   UNL     1      43.786 -13.436   6.396  1.00  0.00     0.228 C 
BRANCH  32  33
HETATM   33  N   UNL     1      43.375 -14.836   6.368  1.00  0.00    -0.347 N 
HETATM   34  C   UNL     1      42.083 -15.310   6.592  1.00  0.00     0.171 A 
HETATM   35  S   UNL     1      40.662 -14.468   6.677  1.00  0.00    -0.041 SA
HETATM   36  N   UNL     1      42.142 -16.678   6.745  1.00  0.00    -0.357 N 
HETATM   37  C   UNL     1      43.495 -17.176   6.762  1.00  0.00     0.135 A 
HETATM   38  H   UNL     1      41.323 -17.234   6.959  1.00  0.00     0.162 HD
HETATM   39  C   UNL     1      44.346 -15.921   6.488  1.00  0.00     0.155 A 
BRANCH  37  40
HETATM   40  C   UNL     1      43.677 -18.308   5.781  1.00  0.00    -0.034 A 
HETATM   41  C   UNL     1      43.942 -18.067   4.423  1.00  0.00     0.009 A 
HETATM   42  C   UNL     1      44.078 -19.128   3.524  1.00  0.00     0.001 A 
HETATM   43  C   UNL     1      43.951 -20.440   3.971  1.00  0.00     0.000 A 
HETATM   44  C   UNL     1      43.687 -20.696   5.314  1.00  0.00     0.001 A 
HETATM   45  C   UNL     1      43.551 -19.637   6.214  1.00  0.00     0.009 A 
ENDBRANCH  37  40
ENDBRANCH  32  33
ENDBRANCH   2  32
TORSDOF 9
ENDMDL
MODEL 3
REMARK VINA RESULT:      -8.6      2.956      7.458
REMARK  9 active torsions:
REMARK  status: ('A' for Active; 'I' for Inactive)
REMARK    1  A    between atoms: C_6  and  N_7 
REMARK    2  A    between atoms: C_6  and  C_31 
REMARK       I    between atoms: N_7  and  C_8 
REMARK    3  A    between atoms: N_7  and  C_23 
REMARK    4  A    between atoms: C_8  and  C_9 
REMARK    5  A    between atoms: C_9  and  N_10 
REMARK    6  A    between atoms: C_14  and  C_15 
REMARK    7  A    between atoms: C_23  and  C_24 
REMARK       I    between atoms: C_31  and  N_32 
REMARK    8  A    between atoms: N_32  and  C_33 
REMARK    9  A    between atoms: C_36  and  O_37 
ROOT
HETATM    1  N   UNL     1      40.859 -12.010   5.023  1.00  0.00    -0.328 N 
HETATM    2  C   UNL     1      40.337 -13.310   4.882  1.00  0.00     0.239 C 
HETATM    3  O   UNL     1      39.611 -13.607   3.927  1.00  0.00    -0.271 OA
ENDROOT
BRANCH   1   4
HETATM    4  C   UNL     1      40.582 -10.970   3.944  1.00  0.00     0.120 C 
HETATM    5  C   UNL     1      39.086 -10.542   3.951  1.00  0.00     0.069 C 
HETATM    6  C   UNL     1      38.805  -9.402   2.983  1.00  0.00     0.237 C 
HETATM    7  N   UNL     1      39.664  -8.224   3.348  1.00  0.00    -0.075 N 
HETATM    8  C   UNL     1      39.314  -7.015   2.518  1.00  0.00     0.269 C 
HETATM    9  H   UNL     1      39.456  -7.973   4.328  1.00  0.00     0.279 HD
HETATM   10  C   UNL     1      41.138  -8.536   3.269  1.00  0.00     0.237 C 
HETATM   11  C   UNL     1      41.476  -9.715   4.179  1.00  0.00     0.069 C 
BRANCH   4  12
HETATM   12  C   UNL     1      40.902 -11.510   2.492  1.00  0.00     0.251 C 
HETATM   13  N   UNL     1      39.800 -11.796   1.711  1.00  0.00    -0.325 N 
HETATM   14  H   UNL     1      38.879 -11.682   2.118  1.00  0.00     0.169 HD
HETATM   15  O   UNL     1      42.066 -11.576   2.104  1.00  0.00    -0.270 OA
BRANCH  13  16
HETATM   16  C   UNL     1      39.789 -12.417   0.442  1.00  0.00     0.035 A 
HETATM   17  C   UNL     1      39.816 -13.799   0.247  1.00  0.00     0.032 A 
HETATM   18  C   UNL     1      39.686 -14.338  -1.040  1.00  0.00     0.039 A 
HETATM   19  C   UNL     1      39.538 -13.497  -2.141  1.00  0.00     0.068 A 
HETATM   20  C   UNL     1      39.569 -12.118  -1.958  1.00  0.00     0.039 A 
HETATM   21  C   UNL     1      39.676 -11.580  -0.675  1.00  0.00     0.032 A 
BRANCH  19  22
HETATM   22  O   UNL     1      39.389 -13.918  -3.432  1.00  0.00    -0.356 OA
HETATM   23  C   UNL     1      38.265 -14.764  -3.660  1.00  0.00     0.210 C 
ENDBRANCH  19  22
ENDBRANCH  13  16
ENDBRANCH   4  12
ENDBRANCH   1   4
BRANCH   1  24
HETATM   24  C   UNL     1      41.276 -11.539   6.364  1.00  0.00     0.169 C 
BRANCH  24  25
HETATM   25  C   UNL     1      42.761 -11.358   6.544  1.00  0.00    -0.002 A 
HETATM   26  C   UNL     1      43.201 -10.450   7.517  1.00  0.00     0.124 A 
HETATM   27  F   UNL     1      42.299  -9.759   8.229  1.00  0.00    -0.205 F 
HETATM   28  C   UNL     1      44.553 -10.229   7.754  1.00  0.00     0.043 A 
HETATM   29  C   UNL     1      45.503 -10.937   7.024  1.00  0.00     0.003 A 
HETATM   30  C   UNL     1      45.093 -11.863   6.067  1.00  0.00     0.001 A 
HETATM   31  C   UNL     1      43.732 -12.077   5.829  1.00  0.00     0.012 A 
ENDBRANCH  24  25
ENDBRANCH   1  24
BRANCH   2  32
HETATM   32  C   UNL     1      40.695 -14.397   5.916  1.00  0.00     0.228 C 
BRANCH  32  33
HETATM   33  N   UNL     1      41.783 -15.300   5.559  1.00  0.00    -0.347 N 
HETATM   34  C   UNL     1      42.908 -15.570   6.340  1.00  0.00     0.171 A 
HETATM   35  S   UNL     1      43.194 -15.189   7.923  1.00  0.00    -0.041 SA
HETATM   36  N   UNL     1      43.822 -16.249   5.565  1.00  0.00    -0.357 N 
HETATM   37  C   UNL     1      43.412 -16.354   4.187  1.00  0.00     0.135 A 
HETATM   38  H   UNL     1      44.736 -16.513   5.914  1.00  0.00     0.162 HD
HETATM   39  C   UNL     1      42.007 -15.720   4.178  1.00  0.00     0.155 A 
BRANCH  37  40
HETATM   40  C   UNL     1      43.480 -17.781   3.700  1.00  0.00    -0.034 A 
HETATM   41  C   UNL     1      44.052 -18.797   4.482  1.00  0.00     0.009 A 
HETATM   42  C   UNL     1      44.133 -20.106   4.001  1.00  0.00     0.001 A 
HETATM   43  C   UNL     1      43.645 -20.415   2.735  1.00  0.00     0.000 A 
HETATM   44  C   UNL     1      43.076 -19.418   1.946  1.00  0.00     0.001 A 
HETATM   45  C   UNL     1      42.994 -18.109   2.425  1.00  0.00     0.009 A 
ENDBRANCH  37  40
ENDBRANCH  32  33
ENDBRANCH   2  32
TORSDOF 9
ENDMDL
MODEL 4
REMARK VINA RESULT:      -8.4      1.973      2.707
REMARK  9 active torsions:
REMARK  status: ('A' for Active; 'I' for Inactive)
REMARK    1  A    between atoms: C_6  and  N_7 
REMARK    2  A    between atoms: C_6  and  C_31 
REMARK       I    between atoms: N_7  and  C_8 
REMARK    3  A    between atoms: N_7  and  C_23 
REMARK    4  A    between atoms: C_8  and  C_9 
REMARK    5  A    between atoms: C_9  and  N_10 
REMARK    6  A    between atoms: C_14  and  C_15 
REMARK    7  A    between atoms: C_23  and  C_24 
REMARK       I    between atoms: C_31  and  N_32 
REMARK    8  A    between atoms: N_32  and  C_33 
REMARK    9  A    between atoms: C_36  and  O_37 
ROOT
HETATM    1  N   UNL     1      40.259 -12.576   2.169  1.00  0.00    -0.328 N 
HETATM    2  C   UNL     1      39.210 -11.764   2.641  1.00  0.00     0.239 C 
HETATM    3  O   UNL     1      39.279 -11.207   3.742  1.00  0.00    -0.271 OA
ENDROOT
BRANCH   1   4
HETATM    4  C   UNL     1      41.530 -12.716   2.998  1.00  0.00     0.120 C 
HETATM    5  C   UNL     1      42.531 -11.566   2.685  1.00  0.00     0.069 C 
HETATM    6  C   UNL     1      43.749 -11.595   3.597  1.00  0.00     0.237 C 
HETATM    7  N   UNL     1      43.297 -11.489   5.026  1.00  0.00    -0.075 N 
HETATM    8  C   UNL     1      44.471 -11.356   5.962  1.00  0.00     0.269 C 
HETATM    9  H   UNL     1      42.750 -10.618   5.121  1.00  0.00     0.279 HD
HETATM   10  C   UNL     1      42.396 -12.629   5.434  1.00  0.00     0.237 C 
HETATM   11  C   UNL     1      41.177 -12.691   4.515  1.00  0.00     0.069 C 
BRANCH   4  12
HETATM   12  C   UNL     1      42.286 -14.077   2.713  1.00  0.00     0.251 C 
HETATM   13  N   UNL     1      41.848 -15.162   3.445  1.00  0.00    -0.325 N 
HETATM   14  H   UNL     1      41.116 -15.015   4.131  1.00  0.00     0.169 HD
HETATM   15  O   UNL     1      43.141 -14.132   1.832  1.00  0.00    -0.270 OA
BRANCH  13  16
HETATM   16  C   UNL     1      42.427 -16.450   3.498  1.00  0.00     0.035 A 
HETATM   17  C   UNL     1      42.430 -17.350   2.431  1.00  0.00     0.032 A 
HETATM   18  C   UNL     1      43.126 -18.562   2.527  1.00  0.00     0.039 A 
HETATM   19  C   UNL     1      43.817 -18.885   3.694  1.00  0.00     0.068 A 
HETATM   20  C   UNL     1      43.769 -18.016   4.780  1.00  0.00     0.039 A 
HETATM   21  C   UNL     1      43.094 -16.798   4.678  1.00  0.00     0.032 A 
BRANCH  19  22
HETATM   22  O   UNL     1      44.537 -20.029   3.885  1.00  0.00    -0.356 OA
HETATM   23  C   UNL     1      44.241 -20.731   5.089  1.00  0.00     0.210 C 
ENDBRANCH  19  22
ENDBRANCH  13  16
ENDBRANCH   4  12
ENDBRANCH   1   4
BRANCH   1  24
HETATM   24  C   UNL     1      39.973 -13.603   1.142  1.00  0.00     0.169 C 
BRANCH  24  25
HETATM   25  C   UNL     1      40.341 -13.218  -0.267  1.00  0.00    -0.002 A 
HETATM   26  C   UNL     1      39.907 -14.046  -1.311  1.00  0.00     0.124 A 
HETATM   27  F   UNL     1      39.210 -15.156  -1.027  1.00  0.00    -0.205 F 
HETATM   28  C   UNL     1      40.196 -13.761  -2.641  1.00  0.00     0.043 A 
HETATM   29  C   UNL     1      40.920 -12.614  -2.955  1.00  0.00     0.003 A 
HETATM   30  C   UNL     1      41.343 -11.761  -1.938  1.00  0.00     0.001 A 
HETATM   31  C   UNL     1      41.055 -12.057  -0.602  1.00  0.00     0.012 A 
ENDBRANCH  24  25
ENDBRANCH   1  24
BRANCH   2  32
HETATM   32  C   UNL     1      37.962 -11.536   1.765  1.00  0.00     0.228 C 
BRANCH  32  33
HETATM   33  N   UNL     1      38.062 -10.490   0.753  1.00  0.00    -0.347 N 
HETATM   34  C   UNL     1      37.905  -9.122   0.976  1.00  0.00     0.171 A 
HETATM   35  S   UNL     1      37.838  -8.300   2.410  1.00  0.00    -0.041 SA
HETATM   36  N   UNL     1      37.806  -8.490  -0.244  1.00  0.00    -0.357 N 
HETATM   37  C   UNL     1      37.760  -9.418  -1.346  1.00  0.00     0.135 A 
HETATM   38  H   UNL     1      37.645  -7.493  -0.325  1.00  0.00     0.162 HD
HETATM   39  C   UNL     1      37.952 -10.791  -0.672  1.00  0.00     0.155 A 
BRANCH  37  40
HETATM   40  C   UNL     1      38.779  -9.069  -2.403  1.00  0.00    -0.034 A 
HETATM   41  C   UNL     1      38.612  -9.458  -3.742  1.00  0.00     0.009 A 
HETATM   42  C   UNL     1      39.581  -9.151  -4.700  1.00  0.00     0.001 A 
HETATM   43  C   UNL     1      40.727  -8.451  -4.332  1.00  0.00     0.000 A 
HETATM   44  C   UNL     1      40.909  -8.059  -3.008  1.00  0.00     0.001 A 
HETATM   45  C   UNL     1      39.941  -8.365  -2.049  1.00  0.00     0.009 A 
ENDBRANCH  37  40
ENDBRANCH  32  33
ENDBRANCH   2  32
TORSDOF 9
ENDMDL
MODEL 5
REMARK VINA RESULT:      -8.4      2.450      7.227
REMARK  9 active torsions:
REMARK  status: ('A' for Active; 'I' for Inactive)
REMARK    1  A    between atoms: C_6  and  N_7 
REMARK    2  A    between atoms: C_6  and  C_31 
REMARK       I    between atoms: N_7  and  C_8 
REMARK    3  A    between atoms: N_7  and  C_23 
REMARK    4  A    between atoms: C_8  and  C_9 
REMARK    5  A    between atoms: C_9  and  N_10 
REMARK    6  A    between atoms: C_14  and  C_15 
REMARK    7  A    between atoms: C_23  and  C_24 
REMARK       I    between atoms: C_31  and  N_32 
REMARK    8  A    between atoms: N_32  and  C_33 
REMARK    9  A    between atoms: C_36  and  O_37 
ROOT
HETATM    1  N   UNL     1      40.458 -12.390   2.169  1.00  0.00    -0.328 N 
HETATM    2  C   UNL     1      41.733 -12.987   2.196  1.00  0.00     0.239 C 
HETATM    3  O   UNL     1      42.705 -12.398   2.680  1.00  0.00    -0.271 OA
ENDROOT
BRANCH   1   4
HETATM    4  C   UNL     1      40.257 -11.021   2.809  1.00  0.00     0.120 C 
HETATM    5  C   UNL     1      41.104  -9.935   2.084  1.00  0.00     0.069 C 
HETATM    6  C   UNL     1      40.819  -8.535   2.606  1.00  0.00     0.237 C 
HETATM    7  N   UNL     1      39.358  -8.231   2.427  1.00  0.00    -0.075 N 
HETATM    8  C   UNL     1      39.050  -6.799   2.784  1.00  0.00     0.269 C 
HETATM    9  H   UNL     1      39.134  -8.335   1.424  1.00  0.00     0.279 HD
HETATM   10  C   UNL     1      38.472  -9.189   3.185  1.00  0.00     0.237 C 
HETATM   11  C   UNL     1      38.752 -10.625   2.746  1.00  0.00     0.069 C 
BRANCH   4  12
HETATM   12  C   UNL     1      40.686 -11.002   4.332  1.00  0.00     0.251 C 
HETATM   13  N   UNL     1      41.942 -10.489   4.587  1.00  0.00    -0.325 N 
HETATM   14  H   UNL     1      42.513 -10.201   3.800  1.00  0.00     0.169 HD
HETATM   15  O   UNL     1      39.889 -11.353   5.199  1.00  0.00    -0.270 OA
BRANCH  13  16
HETATM   16  C   UNL     1      42.629 -10.481   5.822  1.00  0.00     0.035 A 
HETATM   17  C   UNL     1      42.372  -9.579   6.855  1.00  0.00     0.032 A 
HETATM   18  C   UNL     1      43.018  -9.712   8.091  1.00  0.00     0.039 A 
HETATM   19  C   UNL     1      43.933 -10.743   8.298  1.00  0.00     0.068 A 
HETATM   20  C   UNL     1      44.234 -11.610   7.252  1.00  0.00     0.039 A 
HETATM   21  C   UNL     1      43.576 -11.492   6.027  1.00  0.00     0.032 A 
BRANCH  19  22
HETATM   22  O   UNL     1      44.603 -10.970   9.466  1.00  0.00    -0.356 OA
HETATM   23  C   UNL     1      44.562  -9.895  10.400  1.00  0.00     0.210 C 
ENDBRANCH  19  22
ENDBRANCH  13  16
ENDBRANCH   4  12
ENDBRANCH   1   4
BRANCH   1  24
HETATM   24  C   UNL     1      39.462 -12.855   1.177  1.00  0.00     0.169 C 
BRANCH  24  25
HETATM   25  C   UNL     1      39.892 -12.744  -0.262  1.00  0.00    -0.002 A 
HETATM   26  C   UNL     1      39.798 -13.887  -1.069  1.00  0.00     0.124 A 
HETATM   27  F   UNL     1      39.360 -15.036  -0.535  1.00  0.00    -0.205 F 
HETATM   28  C   UNL     1      40.167 -13.869  -2.409  1.00  0.00     0.043 A 
HETATM   29  C   UNL     1      40.625 -12.686  -2.980  1.00  0.00     0.003 A 
HETATM   30  C   UNL     1      40.707 -11.529  -2.207  1.00  0.00     0.001 A 
HETATM   31  C   UNL     1      40.340 -11.554  -0.857  1.00  0.00     0.012 A 
ENDBRANCH  24  25
ENDBRANCH   1  24
BRANCH   2  32
HETATM   32  C   UNL     1      41.924 -14.413   1.641  1.00  0.00     0.228 C 
BRANCH  32  33
HETATM   33  N   UNL     1      42.293 -15.442   2.607  1.00  0.00    -0.347 N 
HETATM   34  C   UNL     1      41.774 -15.573   3.896  1.00  0.00     0.171 A 
HETATM   35  S   UNL     1      40.468 -14.823   4.576  1.00  0.00    -0.041 SA
HETATM   36  N   UNL     1      42.548 -16.481   4.586  1.00  0.00    -0.357 N 
HETATM   37  C   UNL     1      43.704 -16.906   3.836  1.00  0.00     0.135 A 
HETATM   38  H   UNL     1      42.381 -16.704   5.560  1.00  0.00     0.162 HD
HETATM   39  C   UNL     1      43.528 -16.210   2.472  1.00  0.00     0.155 A 
BRANCH  37  40
HETATM   40  C   UNL     1      43.805 -18.411   3.786  1.00  0.00    -0.034 A 
HETATM   41  C   UNL     1      43.578 -19.123   2.597  1.00  0.00     0.009 A 
HETATM   42  C   UNL     1      43.647 -20.518   2.578  1.00  0.00     0.001 A 
HETATM   43  C   UNL     1      43.943 -21.217   3.745  1.00  0.00     0.000 A 
HETATM   44  C   UNL     1      44.168 -20.526   4.932  1.00  0.00     0.001 A 
HETATM   45  C   UNL     1      44.101 -19.132   4.954  1.00  0.00     0.009 A 
ENDBRANCH  37  40
ENDBRANCH  32  33
ENDBRANCH   2  32
TORSDOF 9
ENDMDL
MODEL 6
REMARK VINA RESULT:      -8.4      2.541      3.884
REMARK  9 active torsions:
REMARK  status: ('A' for Active; 'I' for Inactive)
REMARK    1  A    between atoms: C_6  and  N_7 
REMARK    2  A    between atoms: C_6  and  C_31 
REMARK       I    between atoms: N_7  and  C_8 
REMARK    3  A    between atoms: N_7  and  C_23 
REMARK    4  A    between atoms: C_8  and  C_9 
REMARK    5  A    between atoms: C_9  and  N_10 
REMARK    6  A    between atoms: C_14  and  C_15 
REMARK    7  A    between atoms: C_23  and  C_24 
REMARK       I    between atoms: C_31  and  N_32 
REMARK    8  A    between atoms: N_32  and  C_33 
REMARK    9  A    between atoms: C_36  and  O_37 
ROOT
HETATM    1  N   UNL     1      40.095 -13.184   2.337  1.00  0.00    -0.328 N 
HETATM    2  C   UNL     1      40.623 -13.643   1.115  1.00  0.00     0.239 C 
HETATM    3  O   UNL     1      41.813 -13.958   1.010  1.00  0.00    -0.271 OA
ENDROOT
BRANCH   1   4
HETATM    4  C   UNL     1      40.989 -13.141   3.570  1.00  0.00     0.120 C 
HETATM    5  C   UNL     1      42.307 -12.367   3.279  1.00  0.00     0.069 C 
HETATM    6  C   UNL     1      43.158 -12.183   4.527  1.00  0.00     0.237 C 
HETATM    7  N   UNL     1      42.360 -11.439   5.561  1.00  0.00    -0.075 N 
HETATM    8  C   UNL     1      43.207 -11.093   6.759  1.00  0.00     0.269 C 
HETATM    9  H   UNL     1      42.063 -10.541   5.146  1.00  0.00     0.279 HD
HETATM   10  C   UNL     1      41.109 -12.179   5.968  1.00  0.00     0.237 C 
HETATM   11  C   UNL     1      40.235 -12.448   4.744  1.00  0.00     0.069 C 
BRANCH   4  12
HETATM   12  C   UNL     1      41.401 -14.587   4.064  1.00  0.00     0.251 C 
HETATM   13  N   UNL     1      42.607 -15.055   3.583  1.00  0.00    -0.325 N 
HETATM   14  H   UNL     1      43.122 -14.477   2.930  1.00  0.00     0.169 HD
HETATM   15  O   UNL     1      40.701 -15.178   4.884  1.00  0.00    -0.270 OA
BRANCH  13  16
HETATM   16  C   UNL     1      43.147 -16.351   3.744  1.00  0.00     0.035 A 
HETATM   17  C   UNL     1      43.735 -16.813   4.923  1.00  0.00     0.032 A 
HETATM   18  C   UNL     1      44.143 -18.149   5.037  1.00  0.00     0.039 A 
HETATM   19  C   UNL     1      43.973 -19.028   3.969  1.00  0.00     0.068 A 
HETATM   20  C   UNL     1      43.440 -18.557   2.773  1.00  0.00     0.039 A 
HETATM   21  C   UNL     1      43.013 -17.233   2.665  1.00  0.00     0.032 A 
BRANCH  19  22
HETATM   22  O   UNL     1      44.321 -20.349   3.981  1.00  0.00    -0.356 OA
HETATM   23  C   UNL     1      44.325 -20.956   5.270  1.00  0.00     0.210 C 
ENDBRANCH  19  22
ENDBRANCH  13  16
ENDBRANCH   4  12
ENDBRANCH   1   4
BRANCH   1  24
HETATM   24  C   UNL     1      38.865 -12.358   2.330  1.00  0.00     0.169 C 
BRANCH  24  25
HETATM   25  C   UNL     1      39.002 -11.013   1.665  1.00  0.00    -0.002 A 
HETATM   26  C   UNL     1      38.011 -10.625   0.754  1.00  0.00     0.124 A 
HETATM   27  F   UNL     1      37.000 -11.462   0.483  1.00  0.00    -0.205 F 
HETATM   28  C   UNL     1      38.056  -9.398   0.102  1.00  0.00     0.043 A 
HETATM   29  C   UNL     1      39.099  -8.516   0.369  1.00  0.00     0.003 A 
HETATM   30  C   UNL     1      40.086  -8.867   1.289  1.00  0.00     0.001 A 
HETATM   31  C   UNL     1      40.038 -10.106   1.937  1.00  0.00     0.012 A 
ENDBRANCH  24  25
ENDBRANCH   1  24
BRANCH   2  32
HETATM   32  C   UNL     1      39.701 -13.785  -0.114  1.00  0.00     0.228 C 
BRANCH  32  33
HETATM   33  N   UNL     1      39.811 -12.745  -1.131  1.00  0.00    -0.347 N 
HETATM   34  C   UNL     1      38.993 -12.615  -2.254  1.00  0.00     0.171 A 
HETATM   35  S   UNL     1      37.571 -13.382  -2.604  1.00  0.00    -0.041 SA
HETATM   36  N   UNL     1      39.563 -11.691  -3.103  1.00  0.00    -0.357 N 
HETATM   37  C   UNL     1      40.861 -11.253  -2.652  1.00  0.00     0.135 A 
HETATM   38  H   UNL     1      39.162 -11.466  -4.005  1.00  0.00     0.162 HD
HETATM   39  C   UNL     1      41.030 -11.958  -1.293  1.00  0.00     0.155 A 
BRANCH  37  40
HETATM   40  C   UNL     1      40.950  -9.746  -2.615  1.00  0.00    -0.034 A 
HETATM   41  C   UNL     1      41.965  -9.088  -1.902  1.00  0.00     0.009 A 
HETATM   42  C   UNL     1      42.014  -7.692  -1.855  1.00  0.00     0.001 A 
HETATM   43  C   UNL     1      41.048  -6.939  -2.518  1.00  0.00     0.000 A 
HETATM   44  C   UNL     1      40.034  -7.577  -3.227  1.00  0.00     0.001 A 
HETATM   45  C   UNL     1      39.984  -8.971  -3.276  1.00  0.00     0.009 A 
ENDBRANCH  37  40
ENDBRANCH  32  33
ENDBRANCH   2  32
TORSDOF 9
ENDMDL
MODEL 7
REMARK VINA RESULT:      -8.2      2.694      3.592
REMARK  9 active torsions:
REMARK  status: ('A' for Active; 'I' for Inactive)
REMARK    1  A    between atoms: C_6  and  N_7 
REMARK    2  A    between atoms: C_6  and  C_31 
REMARK       I    between atoms: N_7  and  C_8 
REMARK    3  A    between atoms: N_7  and  C_23 
REMARK    4  A    between atoms: C_8  and  C_9 
REMARK    5  A    between atoms: C_9  and  N_10 
REMARK    6  A    between atoms: C_14  and  C_15 
REMARK    7  A    between atoms: C_23  and  C_24 
REMARK       I    between atoms: C_31  and  N_32 
REMARK    8  A    between atoms: N_32  and  C_33 
REMARK    9  A    between atoms: C_36  and  O_37 
ROOT
HETATM    1  N   UNL     1      39.488 -11.747   3.626  1.00  0.00    -0.328 N 
HETATM    2  C   UNL     1      38.933 -10.664   2.918  1.00  0.00     0.239 C 
HETATM    3  O   UNL     1      38.787  -9.559   3.452  1.00  0.00    -0.271 OA
ENDROOT
BRANCH   1   4
HETATM    4  C   UNL     1      39.981 -11.537   5.053  1.00  0.00     0.120 C 
HETATM    5  C   UNL     1      41.270 -10.664   5.076  1.00  0.00     0.069 C 
HETATM    6  C   UNL     1      41.707 -10.317   6.492  1.00  0.00     0.237 C 
HETATM    7  N   UNL     1      40.594  -9.583   7.185  1.00  0.00    -0.075 N 
HETATM    8  C   UNL     1      41.031  -9.079   8.537  1.00  0.00     0.269 C 
HETATM    9  H   UNL     1      40.367  -8.747   6.623  1.00  0.00     0.279 HD
HETATM   10  C   UNL     1      39.334 -10.408   7.288  1.00  0.00     0.237 C 
HETATM   11  C   UNL     1      38.873 -10.840   5.897  1.00  0.00     0.069 C 
BRANCH   4  12
HETATM   12  C   UNL     1      40.334 -12.901   5.773  1.00  0.00     0.251 C 
HETATM   13  N   UNL     1      41.655 -13.290   5.690  1.00  0.00    -0.325 N 
HETATM   14  H   UNL     1      42.293 -12.714   5.153  1.00  0.00     0.169 HD
HETATM   15  O   UNL     1      39.473 -13.495   6.419  1.00  0.00    -0.270 OA
BRANCH  13  16
HETATM   16  C   UNL     1      42.214 -14.517   6.114  1.00  0.00     0.035 A 
HETATM   17  C   UNL     1      42.809 -14.717   7.361  1.00  0.00     0.032 A 
HETATM   18  C   UNL     1      43.236 -15.994   7.747  1.00  0.00     0.039 A 
HETATM   19  C   UNL     1      43.080 -17.078   6.884  1.00  0.00     0.068 A 
HETATM   20  C   UNL     1      42.540 -16.871   5.618  1.00  0.00     0.039 A 
HETATM   21  C   UNL     1      42.094 -15.604   5.240  1.00  0.00     0.032 A 
BRANCH  19  22
HETATM   22  O   UNL     1      43.447 -18.362   7.168  1.00  0.00    -0.356 OA
HETATM   23  C   UNL     1      43.620 -19.202   6.030  1.00  0.00     0.210 C 
ENDBRANCH  19  22
ENDBRANCH  13  16
ENDBRANCH   4  12
ENDBRANCH   1   4
BRANCH   1  24
HETATM   24  C   UNL     1      39.198 -13.129   3.178  1.00  0.00     0.169 C 
BRANCH  24  25
HETATM   25  C   UNL     1      40.369 -13.867   2.583  1.00  0.00    -0.002 A 
HETATM   26  C   UNL     1      40.194 -15.215   2.244  1.00  0.00     0.124 A 
HETATM   27  F   UNL     1      39.015 -15.807   2.481  1.00  0.00    -0.205 F 
HETATM   28  C   UNL     1      41.219 -15.968   1.682  1.00  0.00     0.043 A 
HETATM   29  C   UNL     1      42.451 -15.370   1.430  1.00  0.00     0.003 A 
HETATM   30  C   UNL     1      42.644 -14.025   1.736  1.00  0.00     0.001 A 
HETATM   31  C   UNL     1      41.611 -13.275   2.306  1.00  0.00     0.012 A 
ENDBRANCH  24  25
ENDBRANCH   1  24
BRANCH   2  32
HETATM   32  C   UNL     1      38.524 -10.841   1.442  1.00  0.00     0.228 C 
BRANCH  32  33
HETATM   33  N   UNL     1      39.585 -10.690   0.452  1.00  0.00    -0.347 N 
HETATM   34  C   UNL     1      39.981 -11.658  -0.472  1.00  0.00     0.171 A 
HETATM   35  S   UNL     1      39.234 -13.074  -0.884  1.00  0.00    -0.041 SA
HETATM   36  N   UNL     1      41.167 -11.253  -1.045  1.00  0.00    -0.357 N 
HETATM   37  C   UNL     1      41.694 -10.055  -0.439  1.00  0.00     0.135 A 
HETATM   38  H   UNL     1      41.664 -11.823  -1.718  1.00  0.00     0.162 HD
HETATM   39  C   UNL     1      40.607  -9.654   0.577  1.00  0.00     0.155 A 
BRANCH  37  40
HETATM   40  C   UNL     1      42.024  -9.012  -1.479  1.00  0.00    -0.034 A 
HETATM   41  C   UNL     1      42.948  -7.986  -1.223  1.00  0.00     0.009 A 
HETATM   42  C   UNL     1      43.219  -7.013  -2.188  1.00  0.00     0.001 A 
HETATM   43  C   UNL     1      42.569  -7.053  -3.418  1.00  0.00     0.000 A 
HETATM   44  C   UNL     1      41.648  -8.063  -3.687  1.00  0.00     0.001 A 
HETATM   45  C   UNL     1      41.378  -9.037  -2.725  1.00  0.00     0.009 A 
ENDBRANCH  37  40
ENDBRANCH  32  33
ENDBRANCH   2  32
TORSDOF 9
ENDMDL
MODEL 8
REMARK VINA RESULT:      -8.1      2.278      5.070
REMARK  9 active torsions:
REMARK  status: ('A' for Active; 'I' for Inactive)
REMARK    1  A    between atoms: C_6  and  N_7 
REMARK    2  A    between atoms: C_6  and  C_31 
REMARK       I    between atoms: N_7  and  C_8 
REMARK    3  A    between atoms: N_7  and  C_23 
REMARK    4  A    between atoms: C_8  and  C_9 
REMARK    5  A    between atoms: C_9  and  N_10 
REMARK    6  A    between atoms: C_14  and  C_15 
REMARK    7  A    between atoms: C_23  and  C_24 
REMARK       I    between atoms: C_31  and  N_32 
REMARK    8  A    between atoms: N_32  and  C_33 
REMARK    9  A    between atoms: C_36  and  O_37 
ROOT
HETATM    1  N   UNL     1      40.268 -13.905   1.986  1.00  0.00    -0.328 N 
HETATM    2  C   UNL     1      39.457 -13.062   2.770  1.00  0.00     0.239 C 
HETATM    3  O   UNL     1      39.641 -12.949   3.986  1.00  0.00    -0.271 OA
ENDROOT
BRANCH   1   4
HETATM    4  C   UNL     1      41.437 -14.637   2.636  1.00  0.00     0.120 C 
HETATM    5  C   UNL     1      40.936 -15.663   3.693  1.00  0.00     0.069 C 
HETATM    6  C   UNL     1      42.066 -16.511   4.258  1.00  0.00     0.237 C 
HETATM    7  N   UNL     1      42.741 -17.243   3.132  1.00  0.00    -0.075 N 
HETATM    8  C   UNL     1      43.768 -18.217   3.653  1.00  0.00     0.269 C 
HETATM    9  H   UNL     1      42.026 -17.807   2.647  1.00  0.00     0.279 HD
HETATM   10  C   UNL     1      43.341 -16.307   2.112  1.00  0.00     0.237 C 
HETATM   11  C   UNL     1      42.263 -15.385   1.546  1.00  0.00     0.069 C 
BRANCH   4  12
HETATM   12  C   UNL     1      42.424 -13.650   3.381  1.00  0.00     0.251 C 
HETATM   13  N   UNL     1      42.263 -13.573   4.749  1.00  0.00    -0.325 N 
HETATM   14  H   UNL     1      41.515 -14.107   5.176  1.00  0.00     0.169 HD
HETATM   15  O   UNL     1      43.311 -13.077   2.751  1.00  0.00    -0.270 OA
BRANCH  13  16
HETATM   16  C   UNL     1      42.903 -12.679   5.637  1.00  0.00     0.035 A 
HETATM   17  C   UNL     1      44.090 -12.964   6.314  1.00  0.00     0.032 A 
HETATM   18  C   UNL     1      44.720 -11.980   7.087  1.00  0.00     0.039 A 
HETATM   19  C   UNL     1      44.162 -10.708   7.196  1.00  0.00     0.068 A 
HETATM   20  C   UNL     1      42.949 -10.437   6.569  1.00  0.00     0.039 A 
HETATM   21  C   UNL     1      42.331 -11.409   5.781  1.00  0.00     0.032 A 
BRANCH  19  22
HETATM   22  O   UNL     1      44.701  -9.675   7.909  1.00  0.00    -0.356 OA
HETATM   23  C   UNL     1      45.243 -10.040   9.175  1.00  0.00     0.210 C 
ENDBRANCH  19  22
ENDBRANCH  13  16
ENDBRANCH   4  12
ENDBRANCH   1   4
BRANCH   1  24
HETATM   24  C   UNL     1      39.749 -14.414   0.696  1.00  0.00     0.169 C 
BRANCH  24  25
HETATM   25  C   UNL     1      40.208 -13.654  -0.522  1.00  0.00    -0.002 A 
HETATM   26  C   UNL     1      39.695 -14.037  -1.769  1.00  0.00     0.124 A 
HETATM   27  F   UNL     1      38.845 -15.071  -1.843  1.00  0.00    -0.205 F 
HETATM   28  C   UNL     1      40.059 -13.385  -2.942  1.00  0.00     0.043 A 
HETATM   29  C   UNL     1      40.942 -12.310  -2.884  1.00  0.00     0.003 A 
HETATM   30  C   UNL     1      41.449 -11.894  -1.654  1.00  0.00     0.001 A 
HETATM   31  C   UNL     1      41.083 -12.558  -0.479  1.00  0.00     0.012 A 
ENDBRANCH  24  25
ENDBRANCH   1  24
BRANCH   2  32
HETATM   32  C   UNL     1      38.336 -12.240   2.103  1.00  0.00     0.228 C 
BRANCH  32  33
HETATM   33  N   UNL     1      38.727 -10.961   1.520  1.00  0.00    -0.347 N 
HETATM   34  C   UNL     1      38.957  -9.780   2.227  1.00  0.00     0.171 A 
HETATM   35  S   UNL     1      39.118  -9.554   3.857  1.00  0.00    -0.041 SA
HETATM   36  N   UNL     1      39.043  -8.743   1.324  1.00  0.00    -0.357 N 
HETATM   37  C   UNL     1      38.742  -9.156  -0.024  1.00  0.00     0.135 A 
HETATM   38  H   UNL     1      39.166  -7.781   1.616  1.00  0.00     0.162 HD
HETATM   39  C   UNL     1      38.542 -10.679   0.099  1.00  0.00     0.155 A 
BRANCH  37  40
HETATM   40  C   UNL     1      39.822  -8.722  -0.985  1.00  0.00    -0.034 A 
HETATM   41  C   UNL     1      39.585  -8.636  -2.367  1.00  0.00     0.009 A 
HETATM   42  C   UNL     1      40.605  -8.261  -3.244  1.00  0.00     0.001 A 
HETATM   43  C   UNL     1      41.875  -7.969  -2.751  1.00  0.00     0.000 A 
HETATM   44  C   UNL     1      42.127  -8.051  -1.384  1.00  0.00     0.001 A 
HETATM   45  C   UNL     1      41.108  -8.425  -0.506  1.00  0.00     0.009 A 
ENDBRANCH  37  40
ENDBRANCH  32  33
ENDBRANCH   2  32
TORSDOF 9
ENDMDL
MODEL 9
REMARK VINA RESULT:      -8.0      3.113      6.586
REMARK  9 active torsions:
REMARK  status: ('A' for Active; 'I' for Inactive)
REMARK    1  A    between atoms: C_6  and  N_7 
REMARK    2  A    between atoms: C_6  and  C_31 
REMARK       I    between atoms: N_7  and  C_8 
REMARK    3  A    between atoms: N_7  and  C_23 
REMARK    4  A    between atoms: C_8  and  C_9 
REMARK    5  A    between atoms: C_9  and  N_10 
REMARK    6  A    between atoms: C_14  and  C_15 
REMARK    7  A    between atoms: C_23  and  C_24 
REMARK       I    between atoms: C_31  and  N_32 
REMARK    8  A    between atoms: N_32  and  C_33 
REMARK    9  A    between atoms: C_36  and  O_37 
ROOT
HETATM    1  N   UNL     1      40.805 -12.421   3.987  1.00  0.00    -0.328 N 
HETATM    2  C   UNL     1      39.756 -11.512   4.226  1.00  0.00     0.239 C 
HETATM    3  O   UNL     1      39.015 -11.137   3.312  1.00  0.00    -0.271 OA
ENDROOT
BRANCH   1   4
HETATM    4  C   UNL     1      40.986 -13.007   2.592  1.00  0.00     0.120 C 
HETATM    5  C   UNL     1      39.668 -13.661   2.084  1.00  0.00     0.069 C 
HETATM    6  C   UNL     1      39.773 -14.129   0.640  1.00  0.00     0.237 C 
HETATM    7  N   UNL     1      40.117 -12.955  -0.234  1.00  0.00    -0.075 N 
HETATM    8  C   UNL     1      40.081 -13.332  -1.693  1.00  0.00     0.269 C 
HETATM    9  H   UNL     1      39.387 -12.237  -0.100  1.00  0.00     0.279 HD
HETATM   10  C   UNL     1      41.437 -12.326   0.138  1.00  0.00     0.237 C 
HETATM   11  C   UNL     1      41.417 -11.885   1.600  1.00  0.00     0.069 C 
BRANCH   4  12
HETATM   12  C   UNL     1      42.104 -14.126   2.551  1.00  0.00     0.251 C 
HETATM   13  N   UNL     1      41.673 -15.404   2.845  1.00  0.00    -0.325 N 
HETATM   14  H   UNL     1      40.702 -15.537   3.102  1.00  0.00     0.169 HD
HETATM   15  O   UNL     1      43.245 -13.841   2.195  1.00  0.00    -0.270 OA
BRANCH  13  16
HETATM   16  C   UNL     1      42.471 -16.557   3.020  1.00  0.00     0.035 A 
HETATM   17  C   UNL     1      43.372 -16.734   4.071  1.00  0.00     0.032 A 
HETATM   18  C   UNL     1      44.041 -17.954   4.236  1.00  0.00     0.039 A 
HETATM   19  C   UNL     1      43.819 -19.002   3.345  1.00  0.00     0.068 A 
HETATM   20  C   UNL     1      42.965 -18.811   2.262  1.00  0.00     0.039 A 
HETATM   21  C   UNL     1      42.281 -17.604   2.109  1.00  0.00     0.032 A 
BRANCH  19  22
HETATM   22  O   UNL     1      44.405 -20.233   3.424  1.00  0.00    -0.356 OA
HETATM   23  C   UNL     1      44.029 -21.004   4.562  1.00  0.00     0.210 C 
ENDBRANCH  19  22
ENDBRANCH  13  16
ENDBRANCH   4  12
ENDBRANCH   1   4
BRANCH   1  24
HETATM   24  C   UNL     1      41.952 -12.466   4.923  1.00  0.00     0.169 C 
BRANCH  24  25
HETATM   25  C   UNL     1      42.016 -13.691   5.798  1.00  0.00    -0.002 A 
HETATM   26  C   UNL     1      43.204 -13.937   6.499  1.00  0.00     0.124 A 
HETATM   27  F   UNL     1      44.242 -13.103   6.352  1.00  0.00    -0.205 F 
HETATM   28  C   UNL     1      43.345 -15.040   7.334  1.00  0.00     0.043 A 
HETATM   29  C   UNL     1      42.278 -15.918   7.499  1.00  0.00     0.003 A 
HETATM   30  C   UNL     1      41.077 -15.684   6.831  1.00  0.00     0.001 A 
HETATM   31  C   UNL     1      40.944 -14.576   5.988  1.00  0.00     0.012 A 
ENDBRANCH  24  25
ENDBRANCH   1  24
BRANCH   2  32
HETATM   32  C   UNL     1      39.503 -10.992   5.655  1.00  0.00     0.228 C 
BRANCH  32  33
HETATM   33  N   UNL     1      39.995  -9.652   5.955  1.00  0.00    -0.347 N 
HETATM   34  C   UNL     1      39.374  -8.456   5.593  1.00  0.00     0.171 A 
HETATM   35  S   UNL     1      37.851  -8.210   4.998  1.00  0.00    -0.041 SA
HETATM   36  N   UNL     1      40.258  -7.422   5.814  1.00  0.00    -0.357 N 
HETATM   37  C   UNL     1      41.564  -7.886   6.211  1.00  0.00     0.135 A 
HETATM   38  H   UNL     1      40.035  -6.462   5.582  1.00  0.00     0.162 HD
HETATM   39  C   UNL     1      41.387  -9.413   6.326  1.00  0.00     0.155 A 
BRANCH  37  40
HETATM   40  C   UNL     1      42.036  -7.193   7.466  1.00  0.00    -0.034 A 
HETATM   41  C   UNL     1      43.102  -7.698   8.227  1.00  0.00     0.009 A 
HETATM   42  C   UNL     1      43.505  -7.059   9.402  1.00  0.00     0.001 A 
HETATM   43  C   UNL     1      42.847  -5.909   9.830  1.00  0.00     0.000 A 
HETATM   44  C   UNL     1      41.787  -5.396   9.087  1.00  0.00     0.001 A 
HETATM   45  C   UNL     1      41.383  -6.034   7.912  1.00  0.00     0.009 A 
ENDBRANCH  37  40
ENDBRANCH  32  33
ENDBRANCH   2  32
TORSDOF 9
ENDMDL
MODEL 10
REMARK VINA RESULT:      -8.0      3.551      8.820
REMARK  9 active torsions:
REMARK  status: ('A' for Active; 'I' for Inactive)
REMARK    1  A    between atoms: C_6  and  N_7 
REMARK    2  A    between atoms: C_6  and  C_31 
REMARK       I    between atoms: N_7  and  C_8 
REMARK    3  A    between atoms: N_7  and  C_23 
REMARK    4  A    between atoms: C_8  and  C_9 
REMARK    5  A    between atoms: C_9  and  N_10 
REMARK    6  A    between atoms: C_14  and  C_15 
REMARK    7  A    between atoms: C_23  and  C_24 
REMARK       I    between atoms: C_31  and  N_32 
REMARK    8  A    between atoms: N_32  and  C_33 
REMARK    9  A    between atoms: C_36  and  O_37 
ROOT
HETATM    1  N   UNL     1      41.117 -12.453   1.529  1.00  0.00    -0.328 N 
HETATM    2  C   UNL     1      40.726 -13.394   2.501  1.00  0.00     0.239 C 
HETATM    3  O   UNL     1      39.781 -14.163   2.302  1.00  0.00    -0.271 OA
ENDROOT
BRANCH   1   4
HETATM    4  C   UNL     1      40.407 -12.429   0.181  1.00  0.00     0.120 C 
HETATM    5  C   UNL     1      40.373 -13.848  -0.459  1.00  0.00     0.069 C 
HETATM    6  C   UNL     1      39.548 -13.887  -1.737  1.00  0.00     0.237 C 
HETATM    7  N   UNL     1      38.145 -13.442  -1.431  1.00  0.00    -0.075 N 
HETATM    8  C   UNL     1      37.245 -13.610  -2.628  1.00  0.00     0.269 C 
HETATM    9  H   UNL     1      37.769 -14.063  -0.696  1.00  0.00     0.279 HD
HETATM   10  C   UNL     1      38.089 -12.032  -0.896  1.00  0.00     0.237 C 
HETATM   11  C   UNL     1      38.949 -11.912   0.361  1.00  0.00     0.069 C 
BRANCH   4  12
HETATM   12  C   UNL     1      41.121 -11.472  -0.857  1.00  0.00     0.251 C 
HETATM   13  N   UNL     1      41.083 -10.127  -0.545  1.00  0.00    -0.325 N 
HETATM   14  H   UNL     1      40.578  -9.840   0.285  1.00  0.00     0.169 HD
HETATM   15  O   UNL     1      41.726 -11.947  -1.816  1.00  0.00    -0.270 OA
BRANCH  13  16
HETATM   16  C   UNL     1      41.510  -9.049  -1.353  1.00  0.00     0.035 A 
HETATM   17  C   UNL     1      42.665  -8.303  -1.115  1.00  0.00     0.032 A 
HETATM   18  C   UNL     1      43.079  -7.324  -2.029  1.00  0.00     0.039 A 
HETATM   19  C   UNL     1      42.335  -7.080  -3.181  1.00  0.00     0.068 A 
HETATM   20  C   UNL     1      41.152  -7.782  -3.393  1.00  0.00     0.039 A 
HETATM   21  C   UNL     1      40.749  -8.772  -2.496  1.00  0.00     0.032 A 
BRANCH  19  22
HETATM   22  O   UNL     1      42.657  -6.163  -4.141  1.00  0.00    -0.356 OA
HETATM   23  C   UNL     1      42.730  -6.682  -5.466  1.00  0.00     0.210 C 
ENDBRANCH  19  22
ENDBRANCH  13  16
ENDBRANCH   4  12
ENDBRANCH   1   4
BRANCH   1  24
HETATM   24  C   UNL     1      41.871 -11.249   1.949  1.00  0.00     0.169 C 
BRANCH  24  25
HETATM   25  C   UNL     1      41.188 -10.397   2.987  1.00  0.00    -0.002 A 
HETATM   26  C   UNL     1      41.913 -10.051   4.135  1.00  0.00     0.124 A 
HETATM   27  F   UNL     1      43.165 -10.505   4.286  1.00  0.00    -0.205 F 
HETATM   28  C   UNL     1      41.362  -9.262   5.138  1.00  0.00     0.043 A 
HETATM   29  C   UNL     1      40.062  -8.782   4.999  1.00  0.00     0.003 A 
HETATM   30  C   UNL     1      39.327  -9.092   3.856  1.00  0.00     0.001 A 
HETATM   31  C   UNL     1      39.886  -9.892   2.854  1.00  0.00     0.012 A 
ENDBRANCH  24  25
ENDBRANCH   1  24
BRANCH   2  32
HETATM   32  C   UNL     1      41.504 -13.493   3.829  1.00  0.00     0.228 C 
BRANCH  32  33
HETATM   33  N   UNL     1      41.942 -14.826   4.227  1.00  0.00    -0.347 N 
HETATM   34  C   UNL     1      41.530 -15.512   5.371  1.00  0.00     0.171 A 
HETATM   35  S   UNL     1      40.293 -15.160   6.409  1.00  0.00    -0.041 SA
HETATM   36  N   UNL     1      42.349 -16.607   5.540  1.00  0.00    -0.357 N 
HETATM   37  C   UNL     1      43.435 -16.638   4.592  1.00  0.00     0.135 A 
HETATM   38  H   UNL     1      42.261 -17.230   6.333  1.00  0.00     0.162 HD
HETATM   39  C   UNL     1      43.153 -15.430   3.677  1.00  0.00     0.155 A 
BRANCH  37  40
HETATM   40  C   UNL     1      43.515 -17.973   3.892  1.00  0.00    -0.034 A 
HETATM   41  C   UNL     1      43.092 -18.133   2.562  1.00  0.00     0.009 A 
HETATM   42  C   UNL     1      43.147 -19.383   1.942  1.00  0.00     0.001 A 
HETATM   43  C   UNL     1      43.624 -20.488   2.642  1.00  0.00     0.000 A 
HETATM   44  C   UNL     1      44.046 -20.347   3.961  1.00  0.00     0.001 A 
HETATM   45  C   UNL     1      43.993 -19.098   4.583  1.00  0.00     0.009 A 
ENDBRANCH  37  40
ENDBRANCH  32  33
ENDBRANCH   2  32
TORSDOF 9
ENDMDL
