MODEL 1
REMARK VINA RESULT:      -8.9      0.000      0.000
REMARK  7 active torsions:
REMARK  status: ('A' for Active; 'I' for Inactive)
REMARK    1  A    between atoms: O_2  and  C_3 
REMARK    2  A    between atoms: C_4  and  O_5 
REMARK    3  A    between atoms: C_7  and  C_8 
REMARK    4  A    between atoms: N_9  and  N_10 
REMARK    5  A    between atoms: C_21  and  C_22 
REMARK       I    between atoms: C_22  and  N_23 
REMARK    6  A    between atoms: N_23  and  C_24 
REMARK    7  A    between atoms: C_31  and  N_32 
ROOT
HETATM    1  N   UNL     1      40.680 -15.448   2.016  1.00  0.00    -0.197 N 
HETATM    2  C   UNL     1      41.463 -16.379   2.684  1.00  0.00     0.183 A 
HETATM    3  C   UNL     1      41.638 -15.919   3.982  1.00  0.00     0.125 A 
HETATM    4  N   UNL     1      42.474 -16.541   4.856  1.00  0.00    -0.242 NA
HETATM    5  C   UNL     1      43.042 -17.658   4.380  1.00  0.00     0.086 A 
HETATM    6  C   UNL     1      42.825 -18.134   3.059  1.00  0.00     0.088 A 
HETATM    7  N   UNL     1      42.047 -17.489   2.169  1.00  0.00    -0.225 NA
HETATM    8  C   UNL     1      43.874 -18.378   5.229  1.00  0.00     0.034 A 
HETATM    9  C   UNL     1      44.487 -19.563   4.820  1.00  0.00     0.002 A 
HETATM   10  C   UNL     1      44.265 -20.038   3.536  1.00  0.00     0.002 A 
HETATM   11  C   UNL     1      43.439 -19.318   2.667  1.00  0.00     0.034 A 
HETATM   12  C   UNL     1      40.874 -14.742   4.153  1.00  0.00     0.110 C 
HETATM   13  C   UNL     1      40.152 -14.568   2.980  1.00  0.00     0.143 C 
ENDROOT
BRANCH   1  14
HETATM   14  N   UNL     1      40.829 -15.146   0.681  1.00  0.00    -0.176 NA
HETATM   15  C   UNL     1      39.875 -14.436   0.176  1.00  0.00     0.153 C 
BRANCH  15  16
HETATM   16  C   UNL     1      40.146 -13.462  -0.902  1.00  0.00     0.019 A 
HETATM   17  C   UNL     1      40.610 -12.182  -0.586  1.00  0.00     0.113 A 
HETATM   18  C   UNL     1      41.211 -11.400  -1.584  1.00  0.00     0.102 A 
HETATM   19  C   UNL     1      41.231 -11.852  -2.906  1.00  0.00     0.040 A 
HETATM   20  C   UNL     1      40.707 -13.102  -3.231  1.00  0.00     0.004 A 
HETATM   21  C   UNL     1      40.178 -13.914  -2.229  1.00  0.00     0.016 A 
BRANCH  17  22
HETATM   22  O   UNL     1      40.512 -11.717   0.701  1.00  0.00    -0.352 OA
HETATM   23  C   UNL     1      39.462 -10.745   0.766  1.00  0.00     0.210 C 
ENDBRANCH  17  22
BRANCH  18  24
HETATM   24  O   UNL     1      41.781 -10.173  -1.366  1.00  0.00    -0.353 OA
HETATM   25  C   UNL     1      41.284  -9.162  -2.245  1.00  0.00     0.210 C 
ENDBRANCH  18  24
ENDBRANCH  15  16
ENDBRANCH   1  14
BRANCH  13  26
HETATM   26  N   UNL     1      39.246 -13.585   2.707  1.00  0.00    -0.383 N 
HETATM   27  H   UNL     1      38.282 -13.795   2.470  1.00  0.00     0.157 HD
HETATM   28  H   UNL     1      39.307 -12.735   3.279  1.00  0.00     0.157 HD
ENDBRANCH  13  26
BRANCH  12  29
HETATM   29  C   UNL     1      40.858 -13.811   5.271  1.00  0.00     0.258 C 
HETATM   30  N   UNL     1      42.108 -13.484   5.756  1.00  0.00    -0.352 N 
HETATM   31  H   UNL     1      42.897 -13.948   5.313  1.00  0.00     0.163 HD
HETATM   32  O   UNL     1      39.826 -13.281   5.675  1.00  0.00    -0.267 OA
BRANCH  30  33
HETATM   33  C   UNL     1      42.343 -12.202   6.406  1.00  0.00     0.084 C 
HETATM   34  C   UNL     1      43.515 -12.294   7.386  1.00  0.00     0.025 C 
HETATM   35  C   UNL     1      44.867 -12.421   6.686  1.00  0.00     0.002 C 
HETATM   36  C   UNL     1      45.081 -11.313   5.659  1.00  0.00     0.000 C 
HETATM   37  C   UNL     1      43.935 -11.243   4.656  1.00  0.00     0.002 C 
HETATM   38  C   UNL     1      42.583 -11.102   5.356  1.00  0.00     0.025 C 
ENDBRANCH  30  33
ENDBRANCH  12  29
TORSDOF 7
ENDMDL
MODEL 2
REMARK VINA RESULT:      -8.8      2.502      8.062
REMARK  7 active torsions:
REMARK  status: ('A' for Active; 'I' for Inactive)
REMARK    1  A    between atoms: O_2  and  C_3 
REMARK    2  A    between atoms: C_4  and  O_5 
REMARK    3  A    between atoms: C_7  and  C_8 
REMARK    4  A    between atoms: N_9  and  N_10 
REMARK    5  A    between atoms: C_21  and  C_22 
REMARK       I    between atoms: C_22  and  N_23 
REMARK    6  A    between atoms: N_23  and  C_24 
REMARK    7  A    between atoms: C_31  and  N_32 
ROOT
HETATM    1  N   UNL     1      41.248 -13.726   3.522  1.00  0.00    -0.197 N 
HETATM    2  C   UNL     1      41.241 -12.529   4.225  1.00  0.00     0.183 A 
HETATM    3  C   UNL     1      40.387 -11.661   3.559  1.00  0.00     0.125 A 
HETATM    4  N   UNL     1      40.266 -10.356   3.921  1.00  0.00    -0.242 NA
HETATM    5  C   UNL     1      40.976 -10.013   5.005  1.00  0.00     0.086 A 
HETATM    6  C   UNL     1      41.820 -10.924   5.696  1.00  0.00     0.088 A 
HETATM    7  N   UNL     1      41.992 -12.201   5.305  1.00  0.00    -0.225 NA
HETATM    8  C   UNL     1      40.869  -8.708   5.467  1.00  0.00     0.034 A 
HETATM    9  C   UNL     1      41.557  -8.275   6.602  1.00  0.00     0.002 A 
HETATM   10  C   UNL     1      42.371  -9.166   7.287  1.00  0.00     0.002 A 
HETATM   11  C   UNL     1      42.496 -10.479   6.827  1.00  0.00     0.034 A 
HETATM   12  C   UNL     1      39.779 -12.356   2.489  1.00  0.00     0.110 C 
HETATM   13  C   UNL     1      40.192 -13.678   2.593  1.00  0.00     0.143 C 
ENDROOT
BRANCH   1  14
HETATM   14  N   UNL     1      42.359 -14.531   3.402  1.00  0.00    -0.176 NA
HETATM   15  C   UNL     1      42.322 -15.614   4.107  1.00  0.00     0.153 C 
BRANCH  15  16
HETATM   16  C   UNL     1      42.969 -16.852   3.626  1.00  0.00     0.019 A 
HETATM   17  C   UNL     1      43.769 -17.604   4.491  1.00  0.00     0.113 A 
HETATM   18  C   UNL     1      44.071 -18.935   4.169  1.00  0.00     0.102 A 
HETATM   19  C   UNL     1      43.678 -19.461   2.935  1.00  0.00     0.040 A 
HETATM   20  C   UNL     1      42.937 -18.687   2.044  1.00  0.00     0.004 A 
HETATM   21  C   UNL     1      42.569 -17.388   2.394  1.00  0.00     0.016 A 
BRANCH  17  22
HETATM   22  O   UNL     1      44.216 -17.050   5.664  1.00  0.00    -0.352 OA
HETATM   23  C   UNL     1      43.369 -17.481   6.735  1.00  0.00     0.210 C 
ENDBRANCH  17  22
BRANCH  18  24
HETATM   24  O   UNL     1      44.767 -19.789   4.985  1.00  0.00    -0.353 OA
HETATM   25  C   UNL     1      44.005 -20.932   5.378  1.00  0.00     0.210 C 
ENDBRANCH  18  24
ENDBRANCH  15  16
ENDBRANCH   1  14
BRANCH  13  26
HETATM   26  N   UNL     1      39.821 -14.723   1.798  1.00  0.00    -0.383 N 
HETATM   27  H   UNL     1      38.915 -14.756   1.344  1.00  0.00     0.157 HD
HETATM   28  H   UNL     1      40.551 -15.119   1.194  1.00  0.00     0.157 HD
ENDBRANCH  13  26
BRANCH  12  29
HETATM   29  C   UNL     1      38.943 -11.840   1.415  1.00  0.00     0.258 C 
HETATM   30  N   UNL     1      39.604 -11.664   0.216  1.00  0.00    -0.352 N 
HETATM   31  H   UNL     1      40.599 -11.874   0.216  1.00  0.00     0.163 HD
HETATM   32  O   UNL     1      37.731 -11.681   1.539  1.00  0.00    -0.267 OA
BRANCH  30  33
HETATM   33  C   UNL     1      38.886 -11.744  -1.049  1.00  0.00     0.084 C 
HETATM   34  C   UNL     1      39.662 -11.036  -2.161  1.00  0.00     0.025 C 
HETATM   35  C   UNL     1      40.917 -11.795  -2.589  1.00  0.00     0.002 C 
HETATM   36  C   UNL     1      40.607 -13.244  -2.955  1.00  0.00     0.000 C 
HETATM   37  C   UNL     1      39.868 -13.965  -1.834  1.00  0.00     0.002 C 
HETATM   38  C   UNL     1      38.604 -13.212  -1.416  1.00  0.00     0.025 C 
ENDBRANCH  30  33
ENDBRANCH  12  29
TORSDOF 7
ENDMDL
MODEL 3
REMARK VINA RESULT:      -8.7      2.666      7.959
REMARK  7 active torsions:
REMARK  status: ('A' for Active; 'I' for Inactive)
REMARK    1  A    between atoms: O_2  and  C_3 
REMARK    2  A    between atoms: C_4  and  O_5 
REMARK    3  A    between atoms: C_7  and  C_8 
REMARK    4  A    between atoms: N_9  and  N_10 
REMARK    5  A    between atoms: C_21  and  C_22 
REMARK       I    between atoms: C_22  and  N_23 
REMARK    6  A    between atoms: N_23  and  C_24 
REMARK    7  A    between atoms: C_31  and  N_32 
ROOT
HETATM    1  N   UNL     1      41.501 -13.585   1.917  1.00  0.00    -0.197 N 
HETATM    2  C   UNL     1      40.848 -13.588   0.693  1.00  0.00     0.183 A 
HETATM    3  C   UNL     1      40.742 -12.267   0.276  1.00  0.00     0.125 A 
HETATM    4  N   UNL     1      40.030 -11.920  -0.829  1.00  0.00    -0.242 NA
HETATM    5  C   UNL     1      39.514 -12.956  -1.505  1.00  0.00     0.086 A 
HETATM    6  C   UNL     1      39.661 -14.305  -1.082  1.00  0.00     0.088 A 
HETATM    7  N   UNL     1      40.312 -14.651   0.044  1.00  0.00    -0.225 NA
HETATM    8  C   UNL     1      38.811 -12.687  -2.672  1.00  0.00     0.034 A 
HETATM    9  C   UNL     1      38.261 -13.709  -3.447  1.00  0.00     0.002 A 
HETATM   10  C   UNL     1      38.416 -15.028  -3.046  1.00  0.00     0.002 A 
HETATM   11  C   UNL     1      39.111 -15.313  -1.867  1.00  0.00     0.034 A 
HETATM   12  C   UNL     1      41.423 -11.444   1.201  1.00  0.00     0.110 C 
HETATM   13  C   UNL     1      42.033 -12.297   2.112  1.00  0.00     0.143 C 
ENDROOT
BRANCH   1  14
HETATM   14  N   UNL     1      41.222 -14.476   2.930  1.00  0.00    -0.176 NA
HETATM   15  C   UNL     1      41.641 -15.680   2.724  1.00  0.00     0.153 C 
BRANCH  15  16
HETATM   16  C   UNL     1      42.081 -16.531   3.848  1.00  0.00     0.019 A 
HETATM   17  C   UNL     1      43.073 -17.495   3.649  1.00  0.00     0.113 A 
HETATM   18  C   UNL     1      43.746 -18.033   4.756  1.00  0.00     0.102 A 
HETATM   19  C   UNL     1      43.340 -17.696   6.050  1.00  0.00     0.040 A 
HETATM   20  C   UNL     1      42.305 -16.784   6.248  1.00  0.00     0.004 A 
HETATM   21  C   UNL     1      41.685 -16.190   5.149  1.00  0.00     0.016 A 
BRANCH  17  22
HETATM   22  O   UNL     1      43.409 -17.877   2.374  1.00  0.00    -0.352 OA
HETATM   23  C   UNL     1      42.814 -19.149   2.098  1.00  0.00     0.210 C 
ENDBRANCH  17  22
BRANCH  18  24
HETATM   24  O   UNL     1      44.794 -18.912   4.671  1.00  0.00    -0.353 OA
HETATM   25  C   UNL     1      44.443 -20.239   5.067  1.00  0.00     0.210 C 
ENDBRANCH  18  24
ENDBRANCH  15  16
ENDBRANCH   1  14
BRANCH  13  26
HETATM   26  N   UNL     1      42.836 -11.948   3.159  1.00  0.00    -0.383 N 
HETATM   27  H   UNL     1      42.700 -12.331   4.089  1.00  0.00     0.157 HD
HETATM   28  H   UNL     1      43.834 -11.832   2.951  1.00  0.00     0.157 HD
ENDBRANCH  13  26
BRANCH  12  29
HETATM   29  C   UNL     1      41.456  -9.992   1.289  1.00  0.00     0.258 C 
HETATM   30  N   UNL     1      41.895  -9.363   0.141  1.00  0.00    -0.352 N 
HETATM   31  H   UNL     1      42.181  -9.971  -0.623  1.00  0.00     0.163 HD
HETATM   32  O   UNL     1      41.026  -9.379   2.263  1.00  0.00    -0.267 OA
BRANCH  30  33
HETATM   33  C   UNL     1      41.454  -8.014  -0.184  1.00  0.00     0.084 C 
HETATM   34  C   UNL     1      42.582  -7.215  -0.841  1.00  0.00     0.025 C 
HETATM   35  C   UNL     1      42.891  -7.680  -2.263  1.00  0.00     0.002 C 
HETATM   36  C   UNL     1      41.640  -7.704  -3.136  1.00  0.00     0.000 C 
HETATM   37  C   UNL     1      40.526  -8.532  -2.505  1.00  0.00     0.002 C 
HETATM   38  C   UNL     1      40.207  -8.058  -1.086  1.00  0.00     0.025 C 
ENDBRANCH  30  33
ENDBRANCH  12  29
TORSDOF 7
ENDMDL
MODEL 4
REMARK VINA RESULT:      -8.7      3.029      7.944
REMARK  7 active torsions:
REMARK  status: ('A' for Active; 'I' for Inactive)
REMARK    1  A    between atoms: O_2  and  C_3 
REMARK    2  A    between atoms: C_4  and  O_5 
REMARK    3  A    between atoms: C_7  and  C_8 
REMARK    4  A    between atoms: N_9  and  N_10 
REMARK    5  A    between atoms: C_21  and  C_22 
REMARK       I    between atoms: C_22  and  N_23 
REMARK    6  A    between atoms: N_23  and  C_24 
REMARK    7  A    between atoms: C_31  and  N_32 
ROOT
HETATM    1  N   UNL     1      42.452 -11.735   4.439  1.00  0.00    -0.197 N 
HETATM    2  C   UNL     1      42.671 -12.998   3.909  1.00  0.00     0.183 A 
HETATM    3  C   UNL     1      42.335 -12.948   2.563  1.00  0.00     0.125 A 
HETATM    4  N   UNL     1      42.311 -14.065   1.789  1.00  0.00    -0.242 NA
HETATM    5  C   UNL     1      42.705 -15.183   2.414  1.00  0.00     0.086 A 
HETATM    6  C   UNL     1      43.079 -15.210   3.785  1.00  0.00     0.088 A 
HETATM    7  N   UNL     1      43.046 -14.119   4.573  1.00  0.00    -0.225 NA
HETATM    8  C   UNL     1      42.754 -16.360   1.678  1.00  0.00     0.034 A 
HETATM    9  C   UNL     1      43.175 -17.562   2.248  1.00  0.00     0.002 A 
HETATM   10  C   UNL     1      43.554 -17.589   3.582  1.00  0.00     0.002 A 
HETATM   11  C   UNL     1      43.500 -16.415   4.338  1.00  0.00     0.034 A 
HETATM   12  C   UNL     1      42.000 -11.616   2.229  1.00  0.00     0.110 C 
HETATM   13  C   UNL     1      42.249 -10.852   3.361  1.00  0.00     0.143 C 
ENDROOT
BRANCH   1  14
HETATM   14  N   UNL     1      42.006 -11.514   5.723  1.00  0.00    -0.176 NA
HETATM   15  C   UNL     1      42.906 -11.080   6.543  1.00  0.00     0.153 C 
BRANCH  15  16
HETATM   16  C   UNL     1      42.548 -10.160   7.642  1.00  0.00     0.019 A 
HETATM   17  C   UNL     1      43.376 -10.055   8.763  1.00  0.00     0.113 A 
HETATM   18  C   UNL     1      43.249  -8.945   9.612  1.00  0.00     0.102 A 
HETATM   19  C   UNL     1      42.222  -8.021   9.404  1.00  0.00     0.040 A 
HETATM   20  C   UNL     1      41.355  -8.164   8.322  1.00  0.00     0.004 A 
HETATM   21  C   UNL     1      41.525  -9.224   7.433  1.00  0.00     0.016 A 
BRANCH  17  22
HETATM   22  O   UNL     1      44.330 -11.012   9.001  1.00  0.00    -0.352 OA
HETATM   23  C   UNL     1      45.586 -10.553   8.492  1.00  0.00     0.210 C 
ENDBRANCH  17  22
BRANCH  18  24
HETATM   24  O   UNL     1      44.067  -8.695  10.683  1.00  0.00    -0.353 OA
HETATM   25  C   UNL     1      43.426  -8.920  11.940  1.00  0.00     0.210 C 
ENDBRANCH  18  24
ENDBRANCH  15  16
ENDBRANCH   1  14
BRANCH  13  26
HETATM   26  N   UNL     1      42.110  -9.501   3.492  1.00  0.00    -0.383 N 
HETATM   27  H   UNL     1      42.046  -8.889   2.685  1.00  0.00     0.157 HD
HETATM   28  H   UNL     1      41.502  -9.175   4.251  1.00  0.00     0.157 HD
ENDBRANCH  13  26
BRANCH  12  29
HETATM   29  C   UNL     1      41.429 -11.094   0.996  1.00  0.00     0.258 C 
HETATM   30  N   UNL     1      40.995 -12.064   0.115  1.00  0.00    -0.352 N 
HETATM   31  H   UNL     1      41.150 -13.028   0.397  1.00  0.00     0.163 HD
HETATM   32  O   UNL     1      41.251  -9.893   0.808  1.00  0.00    -0.267 OA
BRANCH  30  33
HETATM   33  C   UNL     1      39.917 -11.788  -0.824  1.00  0.00     0.084 C 
HETATM   34  C   UNL     1      40.460 -11.621  -2.244  1.00  0.00     0.025 C 
HETATM   35  C   UNL     1      40.936 -12.937  -2.858  1.00  0.00     0.002 C 
HETATM   36  C   UNL     1      39.860 -14.016  -2.793  1.00  0.00     0.000 C 
HETATM   37  C   UNL     1      39.343 -14.214  -1.372  1.00  0.00     0.002 C 
HETATM   38  C   UNL     1      38.853 -12.900  -0.763  1.00  0.00     0.025 C 
ENDBRANCH  30  33
ENDBRANCH  12  29
TORSDOF 7
ENDMDL
MODEL 5
REMARK VINA RESULT:      -8.7      2.672      4.013
REMARK  7 active torsions:
REMARK  status: ('A' for Active; 'I' for Inactive)
REMARK    1  A    between atoms: O_2  and  C_3 
REMARK    2  A    between atoms: C_4  and  O_5 
REMARK    3  A    between atoms: C_7  and  C_8 
REMARK    4  A    between atoms: N_9  and  N_10 
REMARK    5  A    between atoms: C_21  and  C_22 
REMARK       I    between atoms: C_22  and  N_23 
REMARK    6  A    between atoms: N_23  and  C_24 
REMARK    7  A    between atoms: C_31  and  N_32 
ROOT
HETATM    1  N   UNL     1      39.914 -12.476   5.022  1.00  0.00    -0.197 N 
HETATM    2  C   UNL     1      40.911 -13.365   5.397  1.00  0.00     0.183 A 
HETATM    3  C   UNL     1      41.877 -12.640   6.083  1.00  0.00     0.125 A 
HETATM    4  N   UNL     1      43.054 -13.200   6.468  1.00  0.00    -0.242 NA
HETATM    5  C   UNL     1      43.162 -14.508   6.194  1.00  0.00     0.086 A 
HETATM    6  C   UNL     1      42.149 -15.243   5.521  1.00  0.00     0.088 A 
HETATM    7  N   UNL     1      41.007 -14.680   5.083  1.00  0.00    -0.225 NA
HETATM    8  C   UNL     1      44.317 -15.165   6.597  1.00  0.00     0.034 A 
HETATM    9  C   UNL     1      44.500 -16.530   6.372  1.00  0.00     0.002 A 
HETATM   10  C   UNL     1      43.506 -17.253   5.728  1.00  0.00     0.002 A 
HETATM   11  C   UNL     1      42.343 -16.603   5.307  1.00  0.00     0.034 A 
HETATM   12  C   UNL     1      41.427 -11.308   6.224  1.00  0.00     0.110 C 
HETATM   13  C   UNL     1      40.136 -11.272   5.716  1.00  0.00     0.143 C 
ENDROOT
BRANCH   1  14
HETATM   14  N   UNL     1      39.203 -12.581   3.847  1.00  0.00    -0.176 NA
HETATM   15  C   UNL     1      39.886 -12.337   2.777  1.00  0.00     0.153 C 
BRANCH  15  16
HETATM   16  C   UNL     1      39.585 -13.038   1.512  1.00  0.00     0.019 A 
HETATM   17  C   UNL     1      39.071 -12.328   0.424  1.00  0.00     0.113 A 
HETATM   18  C   UNL     1      39.135 -12.890  -0.859  1.00  0.00     0.102 A 
HETATM   19  C   UNL     1      39.596 -14.198  -1.026  1.00  0.00     0.040 A 
HETATM   20  C   UNL     1      40.047 -14.931   0.070  1.00  0.00     0.004 A 
HETATM   21  C   UNL     1      40.056 -14.348   1.337  1.00  0.00     0.016 A 
BRANCH  17  22
HETATM   22  O   UNL     1      38.546 -11.074   0.613  1.00  0.00    -0.352 OA
HETATM   23  C   UNL     1      37.151 -11.193   0.912  1.00  0.00     0.210 C 
ENDBRANCH  17  22
BRANCH  18  24
HETATM   24  O   UNL     1      38.745 -12.246  -2.005  1.00  0.00    -0.353 OA
HETATM   25  C   UNL     1      37.500 -12.722  -2.518  1.00  0.00     0.210 C 
ENDBRANCH  18  24
ENDBRANCH  15  16
ENDBRANCH   1  14
BRANCH  13  26
HETATM   26  N   UNL     1      39.291 -10.200   5.683  1.00  0.00    -0.383 N 
HETATM   27  H   UNL     1      39.541  -9.335   5.215  1.00  0.00     0.157 HD
HETATM   28  H   UNL     1      38.293 -10.408   5.563  1.00  0.00     0.157 HD
ENDBRANCH  13  26
BRANCH  12  29
HETATM   29  C   UNL     1      42.147 -10.143   6.718  1.00  0.00     0.258 C 
HETATM   30  N   UNL     1      42.909 -10.381   7.843  1.00  0.00    -0.352 N 
HETATM   31  H   UNL     1      42.862 -11.322   8.227  1.00  0.00     0.163 HD
HETATM   32  O   UNL     1      42.157  -9.070   6.120  1.00  0.00    -0.267 OA
BRANCH  30  33
HETATM   33  C   UNL     1      44.098  -9.587   8.120  1.00  0.00     0.084 C 
HETATM   34  C   UNL     1      43.720  -8.222   8.698  1.00  0.00     0.025 C 
HETATM   35  C   UNL     1      43.193  -8.307  10.129  1.00  0.00     0.002 C 
HETATM   36  C   UNL     1      44.156  -9.057  11.045  1.00  0.00     0.000 C 
HETATM   37  C   UNL     1      44.505 -10.434  10.493  1.00  0.00     0.002 C 
HETATM   38  C   UNL     1      45.046 -10.347   9.065  1.00  0.00     0.025 C 
ENDBRANCH  30  33
ENDBRANCH  12  29
TORSDOF 7
ENDMDL
MODEL 6
REMARK VINA RESULT:      -8.6      3.827      7.601
REMARK  7 active torsions:
REMARK  status: ('A' for Active; 'I' for Inactive)
REMARK    1  A    between atoms: O_2  and  C_3 
REMARK    2  A    between atoms: C_4  and  O_5 
REMARK    3  A    between atoms: C_7  and  C_8 
REMARK    4  A    between atoms: N_9  and  N_10 
REMARK    5  A    between atoms: C_21  and  C_22 
REMARK       I    between atoms: C_22  and  N_23 
REMARK    6  A    between atoms: N_23  and  C_24 
REMARK    7  A    between atoms: C_31  and  N_32 
ROOT
HETATM    1  N   UNL     1      41.949 -12.826   5.545  1.00  0.00    -0.197 N 
HETATM    2  C   UNL     1      42.610 -11.868   6.299  1.00  0.00     0.183 A 
HETATM    3  C   UNL     1      41.673 -10.915   6.675  1.00  0.00     0.125 A 
HETATM    4  N   UNL     1      42.031  -9.769   7.312  1.00  0.00    -0.242 NA
HETATM    5  C   UNL     1      43.337  -9.682   7.604  1.00  0.00     0.086 A 
HETATM    6  C   UNL     1      44.278 -10.683   7.242  1.00  0.00     0.088 A 
HETATM    7  N   UNL     1      43.939 -11.791   6.557  1.00  0.00    -0.225 NA
HETATM    8  C   UNL     1      43.776  -8.562   8.298  1.00  0.00     0.034 A 
HETATM    9  C   UNL     1      45.114  -8.404   8.661  1.00  0.00     0.002 A 
HETATM   10  C   UNL     1      46.033  -9.386   8.322  1.00  0.00     0.002 A 
HETATM   11  C   UNL     1      45.607 -10.514   7.614  1.00  0.00     0.034 A 
HETATM   12  C   UNL     1      40.397 -11.336   6.235  1.00  0.00     0.110 C 
HETATM   13  C   UNL     1      40.567 -12.604   5.693  1.00  0.00     0.143 C 
ENDROOT
BRANCH   1  14
HETATM   14  N   UNL     1      42.523 -13.488   4.482  1.00  0.00    -0.176 NA
HETATM   15  C   UNL     1      43.206 -14.537   4.802  1.00  0.00     0.153 C 
BRANCH  15  16
HETATM   16  C   UNL     1      43.275 -15.701   3.895  1.00  0.00     0.019 A 
HETATM   17  C   UNL     1      43.770 -16.922   4.361  1.00  0.00     0.113 A 
HETATM   18  C   UNL     1      43.497 -18.096   3.643  1.00  0.00     0.102 A 
HETATM   19  C   UNL     1      42.843 -18.024   2.411  1.00  0.00     0.040 A 
HETATM   20  C   UNL     1      42.408 -16.797   1.915  1.00  0.00     0.004 A 
HETATM   21  C   UNL     1      42.610 -15.637   2.662  1.00  0.00     0.016 A 
BRANCH  17  22
HETATM   22  O   UNL     1      44.481 -16.969   5.534  1.00  0.00    -0.352 OA
HETATM   23  C   UNL     1      43.614 -17.406   6.586  1.00  0.00     0.210 C 
ENDBRANCH  17  22
BRANCH  18  24
HETATM   24  O   UNL     1      43.854 -19.354   4.055  1.00  0.00    -0.353 OA
HETATM   25  C   UNL     1      43.749 -20.332   3.018  1.00  0.00     0.210 C 
ENDBRANCH  18  24
ENDBRANCH  15  16
ENDBRANCH   1  14
BRANCH  13  26
HETATM   26  N   UNL     1      39.599 -13.419   5.182  1.00  0.00    -0.383 N 
HETATM   27  H   UNL     1      38.996 -13.974   5.780  1.00  0.00     0.157 HD
HETATM   28  H   UNL     1      39.085 -13.064   4.368  1.00  0.00     0.157 HD
ENDBRANCH  13  26
BRANCH  12  29
HETATM   29  C   UNL     1      39.136 -10.610   6.243  1.00  0.00     0.258 C 
HETATM   30  N   UNL     1      39.218  -9.324   5.750  1.00  0.00    -0.352 N 
HETATM   31  H   UNL     1      40.143  -9.008   5.471  1.00  0.00     0.163 HD
HETATM   32  O   UNL     1      38.073 -11.137   6.560  1.00  0.00    -0.267 OA
BRANCH  30  33
HETATM   33  C   UNL     1      38.062  -8.686   5.137  1.00  0.00     0.084 C 
HETATM   34  C   UNL     1      37.947  -7.225   5.577  1.00  0.00     0.025 C 
HETATM   35  C   UNL     1      39.024  -6.332   4.963  1.00  0.00     0.002 C 
HETATM   36  C   UNL     1      39.067  -6.458   3.443  1.00  0.00     0.000 C 
HETATM   37  C   UNL     1      39.221  -7.909   3.000  1.00  0.00     0.002 C 
HETATM   38  C   UNL     1      38.134  -8.800   3.603  1.00  0.00     0.025 C 
ENDBRANCH  30  33
ENDBRANCH  12  29
TORSDOF 7
ENDMDL
MODEL 7
REMARK VINA RESULT:      -8.5      3.087      6.423
REMARK  7 active torsions:
REMARK  status: ('A' for Active; 'I' for Inactive)
REMARK    1  A    between atoms: O_2  and  C_3 
REMARK    2  A    between atoms: C_4  and  O_5 
REMARK    3  A    between atoms: C_7  and  C_8 
REMARK    4  A    between atoms: N_9  and  N_10 
REMARK    5  A    between atoms: C_21  and  C_22 
REMARK       I    between atoms: C_22  and  N_23 
REMARK    6  A    between atoms: N_23  and  C_24 
REMARK    7  A    between atoms: C_31  and  N_32 
ROOT
HETATM    1  N   UNL     1      40.183  -9.766   0.074  1.00  0.00    -0.197 N 
HETATM    2  C   UNL     1      39.815 -11.011  -0.417  1.00  0.00     0.183 A 
HETATM    3  C   UNL     1      40.468 -11.969   0.348  1.00  0.00     0.125 A 
HETATM    4  N   UNL     1      40.422 -13.290   0.033  1.00  0.00    -0.242 NA
HETATM    5  C   UNL     1      39.644 -13.584  -1.018  1.00  0.00     0.086 A 
HETATM    6  C   UNL     1      38.955 -12.594  -1.770  1.00  0.00     0.088 A 
HETATM    7  N   UNL     1      39.046 -11.278  -1.501  1.00  0.00    -0.225 NA
HETATM    8  C   UNL     1      39.507 -14.919  -1.375  1.00  0.00     0.034 A 
HETATM    9  C   UNL     1      38.698 -15.312  -2.442  1.00  0.00     0.002 A 
HETATM   10  C   UNL     1      38.012 -14.349  -3.169  1.00  0.00     0.002 A 
HETATM   11  C   UNL     1      38.150 -13.001  -2.828  1.00  0.00     0.034 A 
HETATM   12  C   UNL     1      41.169 -11.316   1.388  1.00  0.00     0.110 C 
HETATM   13  C   UNL     1      40.836  -9.971   1.304  1.00  0.00     0.143 C 
ENDROOT
BRANCH   1  14
HETATM   14  N   UNL     1      40.345  -8.652  -0.720  1.00  0.00    -0.176 NA
HETATM   15  C   UNL     1      41.308  -8.733  -1.578  1.00  0.00     0.153 C 
BRANCH  15  16
HETATM   16  C   UNL     1      41.210  -8.062  -2.891  1.00  0.00     0.019 A 
HETATM   17  C   UNL     1      42.311  -7.375  -3.408  1.00  0.00     0.113 A 
HETATM   18  C   UNL     1      42.351  -7.065  -4.776  1.00  0.00     0.102 A 
HETATM   19  C   UNL     1      41.243  -7.332  -5.584  1.00  0.00     0.040 A 
HETATM   20  C   UNL     1      40.117  -7.958  -5.051  1.00  0.00     0.004 A 
HETATM   21  C   UNL     1      40.105  -8.337  -3.709  1.00  0.00     0.016 A 
BRANCH  17  22
HETATM   22  O   UNL     1      43.360  -7.047  -2.587  1.00  0.00    -0.352 OA
HETATM   23  C   UNL     1      43.185  -5.703  -2.124  1.00  0.00     0.210 C 
ENDBRANCH  17  22
BRANCH  18  24
HETATM   24  O   UNL     1      43.418  -6.478  -5.405  1.00  0.00    -0.353 OA
HETATM   25  C   UNL     1      43.029  -5.594  -6.457  1.00  0.00     0.210 C 
ENDBRANCH  18  24
ENDBRANCH  15  16
ENDBRANCH   1  14
BRANCH  13  26
HETATM   26  N   UNL     1      41.244  -8.967   2.133  1.00  0.00    -0.383 N 
HETATM   27  H   UNL     1      42.212  -8.667   2.175  1.00  0.00     0.157 HD
HETATM   28  H   UNL     1      40.606  -8.168   2.232  1.00  0.00     0.157 HD
ENDBRANCH  13  26
BRANCH  12  29
HETATM   29  C   UNL     1      42.123 -11.867   2.339  1.00  0.00     0.258 C 
HETATM   30  N   UNL     1      41.946 -13.209   2.609  1.00  0.00    -0.352 N 
HETATM   31  H   UNL     1      41.157 -13.659   2.152  1.00  0.00     0.163 HD
HETATM   32  O   UNL     1      43.069 -11.217   2.777  1.00  0.00    -0.267 OA
BRANCH  30  33
HETATM   33  C   UNL     1      43.070 -14.042   3.015  1.00  0.00     0.084 C 
HETATM   34  C   UNL     1      42.690 -14.929   4.202  1.00  0.00     0.025 C 
HETATM   35  C   UNL     1      41.728 -16.053   3.822  1.00  0.00     0.002 C 
HETATM   36  C   UNL     1      42.253 -16.878   2.651  1.00  0.00     0.000 C 
HETATM   37  C   UNL     1      42.596 -16.003   1.451  1.00  0.00     0.002 C 
HETATM   38  C   UNL     1      43.570 -14.886   1.829  1.00  0.00     0.025 C 
ENDBRANCH  30  33
ENDBRANCH  12  29
TORSDOF 7
ENDMDL
MODEL 8
REMARK VINA RESULT:      -8.4      3.804      7.960
REMARK  7 active torsions:
REMARK  status: ('A' for Active; 'I' for Inactive)
REMARK    1  A    between atoms: O_2  and  C_3 
REMARK    2  A    between atoms: C_4  and  O_5 
REMARK    3  A    between atoms: C_7  and  C_8 
REMARK    4  A    between atoms: N_9  and  N_10 
REMARK    5  A    between atoms: C_21  and  C_22 
REMARK       I    between atoms: C_22  and  N_23 
REMARK    6  A    between atoms: N_23  and  C_24 
REMARK    7  A    between atoms: C_31  and  N_32 
ROOT
HETATM    1  N   UNL     1      42.477 -12.401   5.874  1.00  0.00    -0.197 N 
HETATM    2  C   UNL     1      41.604 -11.323   5.838  1.00  0.00     0.183 A 
HETATM    3  C   UNL     1      42.076 -10.376   6.736  1.00  0.00     0.125 A 
HETATM    4  N   UNL     1      41.367  -9.255   7.035  1.00  0.00    -0.242 NA
HETATM    5  C   UNL     1      40.229  -9.117   6.339  1.00  0.00     0.086 A 
HETATM    6  C   UNL     1      39.777 -10.081   5.398  1.00  0.00     0.088 A 
HETATM    7  N   UNL     1      40.444 -11.222   5.144  1.00  0.00    -0.225 NA
HETATM    8  C   UNL     1      39.470  -7.974   6.553  1.00  0.00     0.034 A 
HETATM    9  C   UNL     1      38.284  -7.742   5.854  1.00  0.00     0.002 A 
HETATM   10  C   UNL     1      37.848  -8.673   4.924  1.00  0.00     0.002 A 
HETATM   11  C   UNL     1      38.596  -9.834   4.707  1.00  0.00     0.034 A 
HETATM   12  C   UNL     1      43.309 -10.825   7.262  1.00  0.00     0.110 C 
HETATM   13  C   UNL     1      43.623 -11.995   6.583  1.00  0.00     0.143 C 
ENDROOT
BRANCH   1  14
HETATM   14  N   UNL     1      42.077 -13.710   5.719  1.00  0.00    -0.176 NA
HETATM   15  C   UNL     1      42.440 -14.260   4.608  1.00  0.00     0.153 C 
BRANCH  15  16
HETATM   16  C   UNL     1      42.752 -15.702   4.544  1.00  0.00     0.019 A 
HETATM   17  C   UNL     1      42.568 -16.405   3.350  1.00  0.00     0.113 A 
HETATM   18  C   UNL     1      43.196 -17.647   3.177  1.00  0.00     0.102 A 
HETATM   19  C   UNL     1      43.896 -18.229   4.236  1.00  0.00     0.040 A 
HETATM   20  C   UNL     1      44.023 -17.556   5.450  1.00  0.00     0.004 A 
HETATM   21  C   UNL     1      43.464 -16.287   5.601  1.00  0.00     0.016 A 
BRANCH  17  22
HETATM   22  O   UNL     1      41.811 -15.858   2.344  1.00  0.00    -0.352 OA
HETATM   23  C   UNL     1      40.426 -16.087   2.628  1.00  0.00     0.210 C 
ENDBRANCH  17  22
BRANCH  18  24
HETATM   24  O   UNL     1      43.158 -18.377   2.016  1.00  0.00    -0.353 OA
HETATM   25  C   UNL     1      43.310 -19.781   2.234  1.00  0.00     0.210 C 
ENDBRANCH  18  24
ENDBRANCH  15  16
ENDBRANCH   1  14
BRANCH  13  26
HETATM   26  N   UNL     1      44.746 -12.757   6.729  1.00  0.00    -0.383 N 
HETATM   27  H   UNL     1      44.736 -13.760   6.573  1.00  0.00     0.157 HD
HETATM   28  H   UNL     1      45.625 -12.342   6.402  1.00  0.00     0.157 HD
ENDBRANCH  13  26
BRANCH  12  29
HETATM   29  C   UNL     1      44.103 -10.268   8.347  1.00  0.00     0.258 C 
HETATM   30  N   UNL     1      43.452 -10.228   9.564  1.00  0.00    -0.352 N 
HETATM   31  H   UNL     1      42.489 -10.552   9.569  1.00  0.00     0.163 HD
HETATM   32  O   UNL     1      45.285  -9.963   8.212  1.00  0.00    -0.267 OA
BRANCH  30  33
HETATM   33  C   UNL     1      44.201 -10.285  10.811  1.00  0.00     0.084 C 
HETATM   34  C   UNL     1      44.521  -8.878  11.321  1.00  0.00     0.025 C 
HETATM   35  C   UNL     1      43.291  -8.145  11.854  1.00  0.00     0.002 C 
HETATM   36  C   UNL     1      42.550  -8.967  12.904  1.00  0.00     0.000 C 
HETATM   37  C   UNL     1      42.195 -10.356  12.387  1.00  0.00     0.002 C 
HETATM   38  C   UNL     1      43.428 -11.096  11.867  1.00  0.00     0.025 C 
ENDBRANCH  30  33
ENDBRANCH  12  29
TORSDOF 7
ENDMDL
MODEL 9
REMARK VINA RESULT:      -8.3      2.051      2.635
REMARK  7 active torsions:
REMARK  status: ('A' for Active; 'I' for Inactive)
REMARK    1  A    between atoms: O_2  and  C_3 
REMARK    2  A    between atoms: C_4  and  O_5 
REMARK    3  A    between atoms: C_7  and  C_8 
REMARK    4  A    between atoms: N_9  and  N_10 
REMARK    5  A    between atoms: C_21  and  C_22 
REMARK       I    between atoms: C_22  and  N_23 
REMARK    6  A    between atoms: N_23  and  C_24 
REMARK    7  A    between atoms: C_31  and  N_32 
ROOT
HETATM    1  N   UNL     1      40.729 -14.443   2.081  1.00  0.00    -0.197 N 
HETATM    2  C   UNL     1      41.416 -15.462   2.725  1.00  0.00     0.183 A 
HETATM    3  C   UNL     1      41.350 -15.209   4.089  1.00  0.00     0.125 A 
HETATM    4  N   UNL     1      42.043 -15.954   4.990  1.00  0.00    -0.242 NA
HETATM    5  C   UNL     1      42.722 -16.981   4.457  1.00  0.00     0.086 A 
HETATM    6  C   UNL     1      42.751 -17.245   3.061  1.00  0.00     0.088 A 
HETATM    7  N   UNL     1      42.117 -16.474   2.158  1.00  0.00    -0.225 NA
HETATM    8  C   UNL     1      43.418 -17.818   5.317  1.00  0.00     0.034 A 
HETATM    9  C   UNL     1      44.132 -18.922   4.847  1.00  0.00     0.002 A 
HETATM   10  C   UNL     1      44.150 -19.192   3.486  1.00  0.00     0.002 A 
HETATM   11  C   UNL     1      43.462 -18.350   2.607  1.00  0.00     0.034 A 
HETATM   12  C   UNL     1      40.530 -14.078   4.301  1.00  0.00     0.110 C 
HETATM   13  C   UNL     1      40.015 -13.727   3.060  1.00  0.00     0.143 C 
ENDROOT
BRANCH   1  14
HETATM   14  N   UNL     1      41.096 -13.935   0.854  1.00  0.00    -0.176 NA
HETATM   15  C   UNL     1      40.146 -13.891  -0.021  1.00  0.00     0.153 C 
BRANCH  15  16
HETATM   16  C   UNL     1      40.102 -12.819  -1.036  1.00  0.00     0.019 A 
HETATM   17  C   UNL     1      38.952 -12.636  -1.809  1.00  0.00     0.113 A 
HETATM   18  C   UNL     1      38.764 -11.424  -2.490  1.00  0.00     0.102 A 
HETATM   19  C   UNL     1      39.777 -10.460  -2.492  1.00  0.00     0.040 A 
HETATM   20  C   UNL     1      40.952 -10.673  -1.774  1.00  0.00     0.004 A 
HETATM   21  C   UNL     1      41.110 -11.844  -1.034  1.00  0.00     0.016 A 
BRANCH  17  22
HETATM   22  O   UNL     1      38.000 -13.623  -1.864  1.00  0.00    -0.352 OA
HETATM   23  C   UNL     1      38.245 -14.441  -3.013  1.00  0.00     0.210 C 
ENDBRANCH  17  22
BRANCH  18  24
HETATM   24  O   UNL     1      37.636 -11.103  -3.200  1.00  0.00    -0.353 OA
HETATM   25  C   UNL     1      37.290  -9.720  -3.104  1.00  0.00     0.210 C 
ENDBRANCH  18  24
ENDBRANCH  15  16
ENDBRANCH   1  14
BRANCH  13  26
HETATM   26  N   UNL     1      39.137 -12.719   2.785  1.00  0.00    -0.383 N 
HETATM   27  H   UNL     1      38.926 -12.436   1.834  1.00  0.00     0.157 HD
HETATM   28  H   UNL     1      38.302 -12.666   3.379  1.00  0.00     0.157 HD
ENDBRANCH  13  26
BRANCH  12  29
HETATM   29  C   UNL     1      40.291 -13.333   5.528  1.00  0.00     0.258 C 
HETATM   30  N   UNL     1      40.830 -12.062   5.535  1.00  0.00    -0.352 N 
HETATM   31  H   UNL     1      41.361 -11.795   4.710  1.00  0.00     0.163 HD
HETATM   32  O   UNL     1      39.579 -13.761   6.433  1.00  0.00    -0.267 OA
BRANCH  30  33
HETATM   33  C   UNL     1      40.233 -11.005   6.338  1.00  0.00     0.084 C 
HETATM   34  C   UNL     1      41.246  -9.891   6.614  1.00  0.00     0.025 C 
HETATM   35  C   UNL     1      41.562  -9.055   5.375  1.00  0.00     0.002 C 
HETATM   36  C   UNL     1      40.297  -8.511   4.719  1.00  0.00     0.000 C 
HETATM   37  C   UNL     1      39.300  -9.622   4.406  1.00  0.00     0.002 C 
HETATM   38  C   UNL     1      38.973 -10.450   5.649  1.00  0.00     0.025 C 
ENDBRANCH  30  33
ENDBRANCH  12  29
TORSDOF 7
ENDMDL
MODEL 10
REMARK VINA RESULT:      -8.2      4.066      8.153
REMARK  7 active torsions:
REMARK  status: ('A' for Active; 'I' for Inactive)
REMARK    1  A    between atoms: O_2  and  C_3 
REMARK    2  A    between atoms: C_4  and  O_5 
REMARK    3  A    between atoms: C_7  and  C_8 
REMARK    4  A    between atoms: N_9  and  N_10 
REMARK    5  A    between atoms: C_21  and  C_22 
REMARK       I    between atoms: C_22  and  N_23 
REMARK    6  A    between atoms: N_23  and  C_24 
REMARK    7  A    between atoms: C_31  and  N_32 
ROOT
HETATM    1  N   UNL     1      44.022 -11.444   6.444  1.00  0.00    -0.197 N 
HETATM    2  C   UNL     1      42.778 -10.878   6.205  1.00  0.00     0.183 A 
HETATM    3  C   UNL     1      42.493 -10.037   7.272  1.00  0.00     0.125 A 
HETATM    4  N   UNL     1      41.283  -9.433   7.405  1.00  0.00    -0.242 NA
HETATM    5  C   UNL     1      40.434  -9.662   6.393  1.00  0.00     0.086 A 
HETATM    6  C   UNL     1      40.755 -10.500   5.290  1.00  0.00     0.088 A 
HETATM    7  N   UNL     1      41.929 -11.150   5.184  1.00  0.00    -0.225 NA
HETATM    8  C   UNL     1      39.192  -9.043   6.431  1.00  0.00     0.034 A 
HETATM    9  C   UNL     1      38.259  -9.211   5.407  1.00  0.00     0.002 A 
HETATM   10  C   UNL     1      38.574 -10.016   4.322  1.00  0.00     0.002 A 
HETATM   11  C   UNL     1      39.816 -10.654   4.276  1.00  0.00     0.034 A 
HETATM   12  C   UNL     1      43.614 -10.001   8.133  1.00  0.00     0.110 C 
HETATM   13  C   UNL     1      44.612 -10.740   7.510  1.00  0.00     0.143 C 
ENDROOT
BRANCH   1  14
HETATM   14  N   UNL     1      44.357 -12.729   6.076  1.00  0.00    -0.176 NA
HETATM   15  C   UNL     1      43.844 -13.656   6.817  1.00  0.00     0.153 C 
BRANCH  15  16
HETATM   16  C   UNL     1      43.480 -14.967   6.243  1.00  0.00     0.019 A 
HETATM   17  C   UNL     1      42.356 -15.083   5.421  1.00  0.00     0.113 A 
HETATM   18  C   UNL     1      42.220 -16.206   4.592  1.00  0.00     0.102 A 
HETATM   19  C   UNL     1      43.138 -17.255   4.682  1.00  0.00     0.040 A 
HETATM   20  C   UNL     1      44.224 -17.168   5.552  1.00  0.00     0.004 A 
HETATM   21  C   UNL     1      44.404 -16.019   6.321  1.00  0.00     0.016 A 
BRANCH  17  22
HETATM   22  O   UNL     1      41.418 -14.081   5.400  1.00  0.00    -0.352 OA
HETATM   23  C   UNL     1      40.363 -14.413   6.309  1.00  0.00     0.210 C 
ENDBRANCH  17  22
BRANCH  18  24
HETATM   24  O   UNL     1      41.208 -16.377   3.683  1.00  0.00    -0.353 OA
HETATM   25  C   UNL     1      41.653 -16.282   2.328  1.00  0.00     0.210 C 
ENDBRANCH  18  24
ENDBRANCH  15  16
ENDBRANCH   1  14
BRANCH  13  26
HETATM   26  N   UNL     1      45.886 -10.945   7.954  1.00  0.00    -0.383 N 
HETATM   27  H   UNL     1      46.534 -10.177   8.096  1.00  0.00     0.157 HD
HETATM   28  H   UNL     1      46.009 -11.667   8.673  1.00  0.00     0.157 HD
ENDBRANCH  13  26
BRANCH  12  29
HETATM   29  C   UNL     1      43.741  -9.400   9.452  1.00  0.00     0.258 C 
HETATM   30  N   UNL     1      42.554  -9.303  10.148  1.00  0.00    -0.352 N 
HETATM   31  H   UNL     1      41.720  -9.622   9.662  1.00  0.00     0.163 HD
HETATM   32  O   UNL     1      44.828  -9.107   9.942  1.00  0.00    -0.267 OA
BRANCH  30  33
HETATM   33  C   UNL     1      42.541  -9.308  11.605  1.00  0.00     0.084 C 
HETATM   34  C   UNL     1      42.880  -7.922  12.158  1.00  0.00     0.025 C 
HETATM   35  C   UNL     1      41.759  -6.906  11.947  1.00  0.00     0.002 C 
HETATM   36  C   UNL     1      40.424  -7.414  12.485  1.00  0.00     0.000 C 
HETATM   37  C   UNL     1      40.063  -8.777  11.906  1.00  0.00     0.002 C 
HETATM   38  C   UNL     1      41.180  -9.798  12.130  1.00  0.00     0.025 C 
ENDBRANCH  30  33
ENDBRANCH  12  29
TORSDOF 7
ENDMDL
