MODEL 1
REMARK VINA RESULT:      -9.2      0.000      0.000
REMARK  4 active torsions:
REMARK  status: ('A' for Active; 'I' for Inactive)
REMARK    1  A    between atoms: C_7  and  C_8 
REMARK    2  A    between atoms: N_9  and  N_10 
REMARK       I    between atoms: N_10  and  C_11 
REMARK    3  A    between atoms: C_11  and  C_12 
REMARK    4  A    between atoms: C_16  and  C_17 
ROOT
HETATM    1  N   UNL     1      43.575 -11.955   7.787  1.00  0.00    -0.242 N 
HETATM    2  C   UNL     1      43.495 -10.609   8.109  1.00  0.00     0.289 C 
HETATM    3  O   UNL     1      43.569  -9.694   7.293  1.00  0.00    -0.264 OA
HETATM    4  H   UNL     1      43.551 -12.659   8.512  1.00  0.00     0.192 HD
ENDROOT
BRANCH   1   5
HETATM    5  N   UNL     1      43.764 -12.338   6.487  1.00  0.00    -0.183 NA
HETATM    6  C   UNL     1      42.812 -13.034   5.956  1.00  0.00     0.153 C 
BRANCH   6   7
HETATM    7  C   UNL     1      42.917 -13.495   4.584  1.00  0.00     0.018 A 
HETATM    8  C   UNL     1      42.933 -12.714   3.436  1.00  0.00     0.018 A 
HETATM    9  C   UNL     1      42.851 -11.238   3.252  1.00  0.00     0.069 C 
HETATM   10  N   UNL     1      43.046 -13.556   2.358  1.00  0.00    -0.358 N 
HETATM   11  H   UNL     1      43.082 -13.259   1.392  1.00  0.00     0.166 HD
HETATM   12  C   UNL     1      43.107 -14.865   2.768  1.00  0.00     0.043 A 
HETATM   13  C   UNL     1      43.029 -14.863   4.161  1.00  0.00     0.004 A 
HETATM   14  C   UNL     1      43.224 -16.039   2.014  1.00  0.00     0.030 A 
HETATM   15  C   UNL     1      43.072 -16.104   4.832  1.00  0.00     0.014 A 
HETATM   16  C   UNL     1      43.190 -17.287   4.094  1.00  0.00     0.001 A 
HETATM   17  C   UNL     1      43.264 -17.253   2.705  1.00  0.00     0.002 A 
ENDBRANCH   6   7
ENDBRANCH   1   5
BRANCH   2  18
HETATM   18  C   UNL     1      43.330 -10.338   9.516  1.00  0.00     0.121 A 
HETATM   19  N   UNL     1      43.681 -11.264  10.459  1.00  0.00    -0.272 N 
HETATM   20  H   UNL     1      44.078 -12.183  10.287  1.00  0.00     0.189 HD
HETATM   21  N   UNL     1      43.461 -10.871  11.723  1.00  0.00    -0.174 NA
HETATM   22  C   UNL     1      42.928  -9.644  11.610  1.00  0.00     0.091 A 
HETATM   23  C   UNL     1      42.862  -9.261  10.241  1.00  0.00     0.071 A 
BRANCH  22  24
HETATM   24  C   UNL     1      42.555  -8.872  12.798  1.00  0.00     0.016 A 
HETATM   25  C   UNL     1      41.390  -9.106  13.548  1.00  0.00     0.046 A 
HETATM   26 CL   UNL     1      40.276 -10.386  13.201  1.00  0.00    -0.083 Cl
HETATM   27  C   UNL     1      41.095  -8.312  14.666  1.00  0.00     0.025 A 
HETATM   28  C   UNL     1      41.957  -7.285  15.052  1.00  0.00     0.002 A 
HETATM   29  C   UNL     1      43.121  -7.051  14.328  1.00  0.00     0.001 A 
HETATM   30  C   UNL     1      43.417  -7.838  13.213  1.00  0.00     0.015 A 
ENDBRANCH  22  24
ENDBRANCH   2  18
TORSDOF 4
ENDMDL
MODEL 2
REMARK VINA RESULT:      -9.2      2.042      2.796
REMARK  4 active torsions:
REMARK  status: ('A' for Active; 'I' for Inactive)
REMARK    1  A    between atoms: C_7  and  C_8 
REMARK    2  A    between atoms: N_9  and  N_10 
REMARK       I    between atoms: N_10  and  C_11 
REMARK    3  A    between atoms: C_11  and  C_12 
REMARK    4  A    between atoms: C_16  and  C_17 
ROOT
HETATM    1  N   UNL     1      43.291 -12.745   6.024  1.00  0.00    -0.242 N 
HETATM    2  C   UNL     1      44.123 -11.638   5.951  1.00  0.00     0.289 C 
HETATM    3  O   UNL     1      44.756 -11.311   4.951  1.00  0.00    -0.264 OA
HETATM    4  H   UNL     1      42.831 -12.985   6.892  1.00  0.00     0.192 HD
ENDROOT
BRANCH   1   5
HETATM    5  N   UNL     1      43.146 -13.566   4.939  1.00  0.00    -0.183 NA
HETATM    6  C   UNL     1      42.474 -14.653   5.136  1.00  0.00     0.153 C 
BRANCH   6   7
HETATM    7  C   UNL     1      42.269 -15.596   4.051  1.00  0.00     0.018 A 
HETATM    8  C   UNL     1      41.364 -15.484   3.004  1.00  0.00     0.018 A 
HETATM    9  C   UNL     1      40.371 -14.425   2.674  1.00  0.00     0.069 C 
HETATM   10  N   UNL     1      41.504 -16.594   2.209  1.00  0.00    -0.358 N 
HETATM   11  H   UNL     1      40.970 -16.778   1.371  1.00  0.00     0.166 HD
HETATM   12  C   UNL     1      42.476 -17.427   2.706  1.00  0.00     0.043 A 
HETATM   13  C   UNL     1      42.978 -16.830   3.862  1.00  0.00     0.004 A 
HETATM   14  C   UNL     1      42.943 -18.654   2.218  1.00  0.00     0.030 A 
HETATM   15  C   UNL     1      44.002 -17.499   4.567  1.00  0.00     0.014 A 
HETATM   16  C   UNL     1      44.481 -18.726   4.093  1.00  0.00     0.001 A 
HETATM   17  C   UNL     1      43.957 -19.294   2.936  1.00  0.00     0.002 A 
ENDBRANCH   6   7
ENDBRANCH   1   5
BRANCH   2  18
HETATM   18  C   UNL     1      44.215 -10.876   7.172  1.00  0.00     0.121 A 
HETATM   19  N   UNL     1      45.425 -10.627   7.758  1.00  0.00    -0.272 N 
HETATM   20  H   UNL     1      46.335 -10.924   7.419  1.00  0.00     0.189 HD
HETATM   21  N   UNL     1      45.349  -9.913   8.892  1.00  0.00    -0.174 NA
HETATM   22  C   UNL     1      44.036  -9.697   9.070  1.00  0.00     0.091 A 
HETATM   23  C   UNL     1      43.294 -10.257   7.992  1.00  0.00     0.071 A 
BRANCH  22  24
HETATM   24  C   UNL     1      43.547  -8.930  10.218  1.00  0.00     0.016 A 
HETATM   25  C   UNL     1      43.384  -9.469  11.506  1.00  0.00     0.046 A 
HETATM   26 CL   UNL     1      43.803 -11.098  11.916  1.00  0.00    -0.083 Cl
HETATM   27  C   UNL     1      42.895  -8.672  12.551  1.00  0.00     0.025 A 
HETATM   28  C   UNL     1      42.572  -7.333  12.329  1.00  0.00     0.002 A 
HETATM   29  C   UNL     1      42.743  -6.782  11.065  1.00  0.00     0.001 A 
HETATM   30  C   UNL     1      43.227  -7.573  10.020  1.00  0.00     0.015 A 
ENDBRANCH  22  24
ENDBRANCH   2  18
TORSDOF 4
ENDMDL
MODEL 3
REMARK VINA RESULT:      -9.1      2.240      2.934
REMARK  4 active torsions:
REMARK  status: ('A' for Active; 'I' for Inactive)
REMARK    1  A    between atoms: C_7  and  C_8 
REMARK    2  A    between atoms: N_9  and  N_10 
REMARK       I    between atoms: N_10  and  C_11 
REMARK    3  A    between atoms: C_11  and  C_12 
REMARK    4  A    between atoms: C_16  and  C_17 
ROOT
HETATM    1  N   UNL     1      43.333 -12.692   6.117  1.00  0.00    -0.242 N 
HETATM    2  C   UNL     1      44.161 -11.581   6.055  1.00  0.00     0.289 C 
HETATM    3  O   UNL     1      44.797 -11.243   5.060  1.00  0.00    -0.264 OA
HETATM    4  H   UNL     1      42.871 -12.940   6.982  1.00  0.00     0.192 HD
ENDROOT
BRANCH   1   5
HETATM    5  N   UNL     1      43.198 -13.505   5.026  1.00  0.00    -0.183 NA
HETATM    6  C   UNL     1      42.495 -14.577   5.202  1.00  0.00     0.153 C 
BRANCH   6   7
HETATM    7  C   UNL     1      42.296 -15.512   4.109  1.00  0.00     0.018 A 
HETATM    8  C   UNL     1      41.398 -15.390   3.056  1.00  0.00     0.018 A 
HETATM    9  C   UNL     1      40.410 -14.326   2.727  1.00  0.00     0.069 C 
HETATM   10  N   UNL     1      41.542 -16.495   2.254  1.00  0.00    -0.358 N 
HETATM   11  H   UNL     1      41.013 -16.672   1.411  1.00  0.00     0.166 HD
HETATM   12  C   UNL     1      42.509 -17.334   2.752  1.00  0.00     0.043 A 
HETATM   13  C   UNL     1      43.003 -16.746   3.916  1.00  0.00     0.004 A 
HETATM   14  C   UNL     1      42.976 -18.558   2.259  1.00  0.00     0.030 A 
HETATM   15  C   UNL     1      44.021 -17.423   4.623  1.00  0.00     0.014 A 
HETATM   16  C   UNL     1      44.500 -18.647   4.145  1.00  0.00     0.001 A 
HETATM   17  C   UNL     1      43.984 -19.205   2.979  1.00  0.00     0.002 A 
ENDBRANCH   6   7
ENDBRANCH   1   5
BRANCH   2  18
HETATM   18  C   UNL     1      44.244 -10.826   7.282  1.00  0.00     0.121 A 
HETATM   19  N   UNL     1      45.430 -10.690   7.948  1.00  0.00    -0.272 N 
HETATM   20  H   UNL     1      46.329 -11.073   7.668  1.00  0.00     0.189 HD
HETATM   21  N   UNL     1      45.348  -9.969   9.075  1.00  0.00    -0.174 NA
HETATM   22  C   UNL     1      44.052  -9.629   9.168  1.00  0.00     0.091 A 
HETATM   23  C   UNL     1      43.333 -10.120   8.042  1.00  0.00     0.071 A 
BRANCH  22  24
HETATM   24  C   UNL     1      43.563  -8.816  10.284  1.00  0.00     0.016 A 
HETATM   25  C   UNL     1      43.064  -7.510  10.140  1.00  0.00     0.046 A 
HETATM   26 CL   UNL     1      42.902  -6.716   8.609  1.00  0.00    -0.083 Cl
HETATM   27  C   UNL     1      42.629  -6.790  11.262  1.00  0.00     0.025 A 
HETATM   28  C   UNL     1      42.677  -7.363  12.533  1.00  0.00     0.002 A 
HETATM   29  C   UNL     1      43.154  -8.659  12.689  1.00  0.00     0.001 A 
HETATM   30  C   UNL     1      43.591  -9.379  11.575  1.00  0.00     0.015 A 
ENDBRANCH  22  24
ENDBRANCH   2  18
TORSDOF 4
ENDMDL
MODEL 4
REMARK VINA RESULT:      -9.0      9.045     11.352
REMARK  4 active torsions:
REMARK  status: ('A' for Active; 'I' for Inactive)
REMARK    1  A    between atoms: C_7  and  C_8 
REMARK    2  A    between atoms: N_9  and  N_10 
REMARK       I    between atoms: N_10  and  C_11 
REMARK    3  A    between atoms: C_11  and  C_12 
REMARK    4  A    between atoms: C_16  and  C_17 
ROOT
HETATM    1  N   UNL     1      41.215 -13.579  -0.208  1.00  0.00    -0.242 N 
HETATM    2  C   UNL     1      40.802 -14.226   0.947  1.00  0.00     0.289 C 
HETATM    3  O   UNL     1      39.753 -13.988   1.539  1.00  0.00    -0.264 OA
HETATM    4  H   UNL     1      42.113 -13.792  -0.622  1.00  0.00     0.192 HD
ENDROOT
BRANCH   1   5
HETATM    5  N   UNL     1      40.442 -12.591  -0.752  1.00  0.00    -0.183 NA
HETATM    6  C   UNL     1      40.133 -12.735  -2.000  1.00  0.00     0.153 C 
BRANCH   6   7
HETATM    7  C   UNL     1      39.321 -11.739  -2.675  1.00  0.00     0.018 A 
HETATM    8  C   UNL     1      37.959 -11.804  -2.937  1.00  0.00     0.018 A 
HETATM    9  C   UNL     1      36.950 -12.855  -2.628  1.00  0.00     0.069 C 
HETATM   10  N   UNL     1      37.602 -10.652  -3.591  1.00  0.00    -0.358 N 
HETATM   11  H   UNL     1      36.668 -10.429  -3.905  1.00  0.00     0.166 HD
HETATM   12  C   UNL     1      38.692  -9.834  -3.763  1.00  0.00     0.043 A 
HETATM   13  C   UNL     1      39.788 -10.486  -3.199  1.00  0.00     0.004 A 
HETATM   14  C   UNL     1      38.785  -8.576  -4.371  1.00  0.00     0.030 A 
HETATM   15  C   UNL     1      41.044  -9.841  -3.247  1.00  0.00     0.014 A 
HETATM   16  C   UNL     1      41.154  -8.584  -3.850  1.00  0.00     0.001 A 
HETATM   17  C   UNL     1      40.039  -7.962  -4.404  1.00  0.00     0.002 A 
ENDBRANCH   6   7
ENDBRANCH   1   5
BRANCH   2  18
HETATM   18  C   UNL     1      41.722 -15.222   1.438  1.00  0.00     0.121 A 
HETATM   19  N   UNL     1      43.073 -15.072   1.286  1.00  0.00    -0.272 N 
HETATM   20  H   UNL     1      43.549 -14.289   0.846  1.00  0.00     0.189 HD
HETATM   21  N   UNL     1      43.798 -16.084   1.786  1.00  0.00    -0.174 NA
HETATM   22  C   UNL     1      42.890 -16.945   2.272  1.00  0.00     0.091 A 
HETATM   23  C   UNL     1      41.577 -16.423   2.103  1.00  0.00     0.071 A 
BRANCH  22  24
HETATM   24  C   UNL     1      43.305 -18.193   2.918  1.00  0.00     0.016 A 
HETATM   25  C   UNL     1      43.805 -18.267   4.228  1.00  0.00     0.046 A 
HETATM   26 CL   UNL     1      43.935 -16.893   5.276  1.00  0.00    -0.083 Cl
HETATM   27  C   UNL     1      44.195 -19.500   4.770  1.00  0.00     0.025 A 
HETATM   28  C   UNL     1      44.085 -20.670   4.019  1.00  0.00     0.002 A 
HETATM   29  C   UNL     1      43.577 -20.615   2.726  1.00  0.00     0.001 A 
HETATM   30  C   UNL     1      43.190 -19.389   2.182  1.00  0.00     0.015 A 
ENDBRANCH  22  24
ENDBRANCH   2  18
TORSDOF 4
ENDMDL
MODEL 5
REMARK VINA RESULT:      -9.0      7.334     10.632
REMARK  4 active torsions:
REMARK  status: ('A' for Active; 'I' for Inactive)
REMARK    1  A    between atoms: C_7  and  C_8 
REMARK    2  A    between atoms: N_9  and  N_10 
REMARK       I    between atoms: N_10  and  C_11 
REMARK    3  A    between atoms: C_11  and  C_12 
REMARK    4  A    between atoms: C_16  and  C_17 
ROOT
HETATM    1  N   UNL     1      41.286 -14.382   2.065  1.00  0.00    -0.242 N 
HETATM    2  C   UNL     1      40.390 -14.612   1.032  1.00  0.00     0.289 C 
HETATM    3  O   UNL     1      39.840 -15.689   0.817  1.00  0.00    -0.264 OA
HETATM    4  H   UNL     1      41.739 -13.483   2.161  1.00  0.00     0.192 HD
ENDROOT
BRANCH   1   5
HETATM    5  N   UNL     1      41.624 -15.398   2.917  1.00  0.00    -0.183 NA
HETATM    6  C   UNL     1      42.878 -15.713   2.955  1.00  0.00     0.153 C 
BRANCH   6   7
HETATM    7  C   UNL     1      43.340 -16.782   3.822  1.00  0.00     0.018 A 
HETATM    8  C   UNL     1      43.747 -16.672   5.145  1.00  0.00     0.018 A 
HETATM    9  C   UNL     1      43.836 -15.492   6.049  1.00  0.00     0.069 C 
HETATM   10  N   UNL     1      44.101 -17.924   5.580  1.00  0.00    -0.358 N 
HETATM   11  H   UNL     1      44.436 -18.142   6.508  1.00  0.00     0.166 HD
HETATM   12  C   UNL     1      43.935 -18.850   4.580  1.00  0.00     0.043 A 
HETATM   13  C   UNL     1      43.458 -18.167   3.462  1.00  0.00     0.004 A 
HETATM   14  C   UNL     1      44.171 -20.231   4.585  1.00  0.00     0.030 A 
HETATM   15  C   UNL     1      43.203 -18.908   2.287  1.00  0.00     0.014 A 
HETATM   16  C   UNL     1      43.432 -20.288   2.275  1.00  0.00     0.001 A 
HETATM   17  C   UNL     1      43.910 -20.938   3.409  1.00  0.00     0.002 A 
ENDBRANCH   6   7
ENDBRANCH   1   5
BRANCH   2  18
HETATM   18  C   UNL     1      40.146 -13.470   0.185  1.00  0.00     0.121 A 
HETATM   19  N   UNL     1      38.894 -13.200  -0.293  1.00  0.00    -0.272 N 
HETATM   20  H   UNL     1      38.048 -13.734  -0.111  1.00  0.00     0.189 HD
HETATM   21  N   UNL     1      38.827 -12.111  -1.073  1.00  0.00    -0.174 NA
HETATM   22  C   UNL     1      40.087 -11.653  -1.126  1.00  0.00     0.091 A 
HETATM   23  C   UNL     1      40.939 -12.460  -0.320  1.00  0.00     0.071 A 
BRANCH  22  24
HETATM   24  C   UNL     1      40.420 -10.448  -1.891  1.00  0.00     0.016 A 
HETATM   25  C   UNL     1      40.601  -9.180  -1.313  1.00  0.00     0.046 A 
HETATM   26 CL   UNL     1      40.516  -8.891   0.393  1.00  0.00    -0.083 Cl
HETATM   27  C   UNL     1      40.903  -8.071  -2.117  1.00  0.00     0.025 A 
HETATM   28  C   UNL     1      41.037  -8.214  -3.498  1.00  0.00     0.002 A 
HETATM   29  C   UNL     1      40.877  -9.465  -4.082  1.00  0.00     0.001 A 
HETATM   30  C   UNL     1      40.573 -10.571  -3.286  1.00  0.00     0.015 A 
ENDBRANCH  22  24
ENDBRANCH   2  18
TORSDOF 4
ENDMDL
MODEL 6
REMARK VINA RESULT:      -9.0      1.544      2.363
REMARK  4 active torsions:
REMARK  status: ('A' for Active; 'I' for Inactive)
REMARK    1  A    between atoms: C_7  and  C_8 
REMARK    2  A    between atoms: N_9  and  N_10 
REMARK       I    between atoms: N_10  and  C_11 
REMARK    3  A    between atoms: C_11  and  C_12 
REMARK    4  A    between atoms: C_16  and  C_17 
ROOT
HETATM    1  N   UNL     1      43.287 -11.861   7.735  1.00  0.00    -0.242 N 
HETATM    2  C   UNL     1      44.277 -11.140   8.386  1.00  0.00     0.289 C 
HETATM    3  O   UNL     1      45.479 -11.254   8.162  1.00  0.00    -0.264 OA
HETATM    4  H   UNL     1      42.317 -11.752   7.998  1.00  0.00     0.192 HD
ENDROOT
BRANCH   1   5
HETATM    5  N   UNL     1      43.626 -12.784   6.785  1.00  0.00    -0.183 NA
HETATM    6  C   UNL     1      42.886 -13.844   6.736  1.00  0.00     0.153 C 
BRANCH   6   7
HETATM    7  C   UNL     1      43.165 -14.889   5.766  1.00  0.00     0.018 A 
HETATM    8  C   UNL     1      43.624 -16.173   6.027  1.00  0.00     0.018 A 
HETATM    9  C   UNL     1      43.960 -16.854   7.308  1.00  0.00     0.069 C 
HETATM   10  N   UNL     1      43.750 -16.825   4.825  1.00  0.00    -0.358 N 
HETATM   11  H   UNL     1      44.066 -17.778   4.713  1.00  0.00     0.166 HD
HETATM   12  C   UNL     1      43.383 -16.003   3.787  1.00  0.00     0.043 A 
HETATM   13  C   UNL     1      43.010 -14.780   4.343  1.00  0.00     0.004 A 
HETATM   14  C   UNL     1      43.356 -16.254   2.410  1.00  0.00     0.030 A 
HETATM   15  C   UNL     1      42.586 -13.754   3.470  1.00  0.00     0.014 A 
HETATM   16  C   UNL     1      42.552 -13.988   2.091  1.00  0.00     0.001 A 
HETATM   17  C   UNL     1      42.932 -15.220   1.570  1.00  0.00     0.002 A 
ENDBRANCH   6   7
ENDBRANCH   1   5
BRANCH   2  18
HETATM   18  C   UNL     1      43.792 -10.225   9.390  1.00  0.00     0.121 A 
HETATM   19  N   UNL     1      43.442  -8.944   9.068  1.00  0.00    -0.272 N 
HETATM   20  H   UNL     1      43.475  -8.521   8.144  1.00  0.00     0.189 HD
HETATM   21  N   UNL     1      43.017  -8.212  10.108  1.00  0.00    -0.174 NA
HETATM   22  C   UNL     1      43.105  -9.038  11.163  1.00  0.00     0.091 A 
HETATM   23  C   UNL     1      43.555 -10.322  10.747  1.00  0.00     0.071 A 
BRANCH  22  24
HETATM   24  C   UNL     1      42.713  -8.594  12.503  1.00  0.00     0.016 A 
HETATM   25  C   UNL     1      41.596  -9.090  13.196  1.00  0.00     0.046 A 
HETATM   26 CL   UNL     1      40.571 -10.341  12.577  1.00  0.00    -0.083 Cl
HETATM   27  C   UNL     1      41.278  -8.602  14.471  1.00  0.00     0.025 A 
HETATM   28  C   UNL     1      42.071  -7.624  15.073  1.00  0.00     0.002 A 
HETATM   29  C   UNL     1      43.189  -7.135  14.407  1.00  0.00     0.001 A 
HETATM   30  C   UNL     1      43.507  -7.616  13.135  1.00  0.00     0.015 A 
ENDBRANCH  22  24
ENDBRANCH   2  18
TORSDOF 4
ENDMDL
MODEL 7
REMARK VINA RESULT:      -8.9      2.373      3.308
REMARK  4 active torsions:
REMARK  status: ('A' for Active; 'I' for Inactive)
REMARK    1  A    between atoms: C_7  and  C_8 
REMARK    2  A    between atoms: N_9  and  N_10 
REMARK       I    between atoms: N_10  and  C_11 
REMARK    3  A    between atoms: C_11  and  C_12 
REMARK    4  A    between atoms: C_16  and  C_17 
ROOT
HETATM    1  N   UNL     1      44.073 -12.255   7.333  1.00  0.00    -0.242 N 
HETATM    2  C   UNL     1      44.994 -11.242   7.110  1.00  0.00     0.289 C 
HETATM    3  O   UNL     1      45.967 -11.340   6.366  1.00  0.00    -0.264 OA
HETATM    4  H   UNL     1      43.318 -12.125   7.993  1.00  0.00     0.192 HD
ENDROOT
BRANCH   1   5
HETATM    5  N   UNL     1      44.226 -13.466   6.718  1.00  0.00    -0.183 NA
HETATM    6  C   UNL     1      43.171 -13.947   6.143  1.00  0.00     0.153 C 
BRANCH   6   7
HETATM    7  C   UNL     1      43.225 -15.231   5.467  1.00  0.00     0.018 A 
HETATM    8  C   UNL     1      43.340 -16.484   6.055  1.00  0.00     0.018 A 
HETATM    9  C   UNL     1      43.439 -16.892   7.484  1.00  0.00     0.069 C 
HETATM   10  N   UNL     1      43.353 -17.418   5.050  1.00  0.00    -0.358 N 
HETATM   11  H   UNL     1      43.428 -18.417   5.188  1.00  0.00     0.166 HD
HETATM   12  C   UNL     1      43.248 -16.812   3.822  1.00  0.00     0.043 A 
HETATM   13  C   UNL     1      43.165 -15.439   4.047  1.00  0.00     0.004 A 
HETATM   14  C   UNL     1      43.221 -17.377   2.541  1.00  0.00     0.030 A 
HETATM   15  C   UNL     1      43.049 -14.586   2.928  1.00  0.00     0.014 A 
HETATM   16  C   UNL     1      43.019 -15.133   1.640  1.00  0.00     0.001 A 
HETATM   17  C   UNL     1      43.104 -16.509   1.452  1.00  0.00     0.002 A 
ENDBRANCH   6   7
ENDBRANCH   1   5
BRANCH   2  18
HETATM   18  C   UNL     1      44.740 -10.027   7.844  1.00  0.00     0.121 A 
HETATM   19  N   UNL     1      45.661  -9.018   7.881  1.00  0.00    -0.272 N 
HETATM   20  H   UNL     1      46.566  -9.007   7.418  1.00  0.00     0.189 HD
HETATM   21  N   UNL     1      45.286  -7.957   8.610  1.00  0.00    -0.174 NA
HETATM   22  C   UNL     1      44.075  -8.285   9.089  1.00  0.00     0.091 A 
HETATM   23  C   UNL     1      43.683  -9.564   8.602  1.00  0.00     0.071 A 
BRANCH  22  24
HETATM   24  C   UNL     1      43.324  -7.359   9.940  1.00  0.00     0.016 A 
HETATM   25  C   UNL     1      42.978  -7.629  11.275  1.00  0.00     0.046 A 
HETATM   26 CL   UNL     1      43.454  -9.071  12.108  1.00  0.00    -0.083 Cl
HETATM   27  C   UNL     1      42.243  -6.695  12.020  1.00  0.00     0.025 A 
HETATM   28  C   UNL     1      41.853  -5.483  11.449  1.00  0.00     0.002 A 
HETATM   29  C   UNL     1      42.201  -5.196  10.134  1.00  0.00     0.001 A 
HETATM   30  C   UNL     1      42.931  -6.124   9.388  1.00  0.00     0.015 A 
ENDBRANCH  22  24
ENDBRANCH   2  18
TORSDOF 4
ENDMDL
MODEL 8
REMARK VINA RESULT:      -8.4      7.548     10.500
REMARK  4 active torsions:
REMARK  status: ('A' for Active; 'I' for Inactive)
REMARK    1  A    between atoms: C_7  and  C_8 
REMARK    2  A    between atoms: N_9  and  N_10 
REMARK       I    between atoms: N_10  and  C_11 
REMARK    3  A    between atoms: C_11  and  C_12 
REMARK    4  A    between atoms: C_16  and  C_17 
ROOT
HETATM    1  N   UNL     1      41.381 -14.479   1.995  1.00  0.00    -0.242 N 
HETATM    2  C   UNL     1      40.428 -14.632   1.000  1.00  0.00     0.289 C 
HETATM    3  O   UNL     1      39.813 -15.672   0.781  1.00  0.00    -0.264 OA
HETATM    4  H   UNL     1      41.884 -13.607   2.095  1.00  0.00     0.192 HD
ENDROOT
BRANCH   1   5
HETATM    5  N   UNL     1      41.704 -15.535   2.802  1.00  0.00    -0.183 NA
HETATM    6  C   UNL     1      42.954 -15.651   3.113  1.00  0.00     0.153 C 
BRANCH   6   7
HETATM    7  C   UNL     1      43.402 -16.742   3.959  1.00  0.00     0.018 A 
HETATM    8  C   UNL     1      43.814 -16.661   5.283  1.00  0.00     0.018 A 
HETATM    9  C   UNL     1      43.922 -15.499   6.208  1.00  0.00     0.069 C 
HETATM   10  N   UNL     1      44.150 -17.926   5.695  1.00  0.00    -0.358 N 
HETATM   11  H   UNL     1      44.485 -18.165   6.618  1.00  0.00     0.166 HD
HETATM   12  C   UNL     1      43.969 -18.832   4.679  1.00  0.00     0.043 A 
HETATM   13  C   UNL     1      43.499 -18.122   3.574  1.00  0.00     0.004 A 
HETATM   14  C   UNL     1      44.184 -20.215   4.659  1.00  0.00     0.030 A 
HETATM   15  C   UNL     1      43.231 -18.837   2.387  1.00  0.00     0.014 A 
HETATM   16  C   UNL     1      43.440 -20.220   2.350  1.00  0.00     0.001 A 
HETATM   17  C   UNL     1      43.910 -20.897   3.471  1.00  0.00     0.002 A 
ENDBRANCH   6   7
ENDBRANCH   1   5
BRANCH   2  18
HETATM   18  C   UNL     1      40.206 -13.454   0.197  1.00  0.00     0.121 A 
HETATM   19  N   UNL     1      40.971 -13.198  -0.907  1.00  0.00    -0.272 N 
HETATM   20  H   UNL     1      41.727 -13.773  -1.266  1.00  0.00     0.189 HD
HETATM   21  N   UNL     1      40.650 -12.062  -1.545  1.00  0.00    -0.174 NA
HETATM   22  C   UNL     1      39.645 -11.539  -0.826  1.00  0.00     0.091 A 
HETATM   23  C   UNL     1      39.314 -12.402   0.257  1.00  0.00     0.071 A 
BRANCH  22  24
HETATM   24  C   UNL     1      39.011 -10.279  -1.221  1.00  0.00     0.016 A 
HETATM   25  C   UNL     1      37.925 -10.195  -2.108  1.00  0.00     0.046 A 
HETATM   26 CL   UNL     1      37.153 -11.582  -2.802  1.00  0.00    -0.083 Cl
HETATM   27  C   UNL     1      37.382  -8.948  -2.449  1.00  0.00     0.025 A 
HETATM   28  C   UNL     1      37.907  -7.775  -1.905  1.00  0.00     0.002 A 
HETATM   29  C   UNL     1      38.972  -7.843  -1.014  1.00  0.00     0.001 A 
HETATM   30  C   UNL     1      39.517  -9.084  -0.674  1.00  0.00     0.015 A 
ENDBRANCH  22  24
ENDBRANCH   2  18
TORSDOF 4
ENDMDL
MODEL 9
REMARK VINA RESULT:      -8.2      7.078     11.612
REMARK  4 active torsions:
REMARK  status: ('A' for Active; 'I' for Inactive)
REMARK    1  A    between atoms: C_7  and  C_8 
REMARK    2  A    between atoms: N_9  and  N_10 
REMARK       I    between atoms: N_10  and  C_11 
REMARK    3  A    between atoms: C_11  and  C_12 
REMARK    4  A    between atoms: C_16  and  C_17 
ROOT
HETATM    1  N   UNL     1      41.470 -14.597   0.860  1.00  0.00    -0.242 N 
HETATM    2  C   UNL     1      40.375 -14.752   0.023  1.00  0.00     0.289 C 
HETATM    3  O   UNL     1      39.519 -15.623   0.155  1.00  0.00    -0.264 OA
HETATM    4  H   UNL     1      42.163 -13.885   0.670  1.00  0.00     0.192 HD
ENDROOT
BRANCH   1   5
HETATM    5  N   UNL     1      41.661 -15.458   1.904  1.00  0.00    -0.183 NA
HETATM    6  C   UNL     1      42.809 -15.387   2.496  1.00  0.00     0.153 C 
BRANCH   6   7
HETATM    7  C   UNL     1      43.115 -16.262   3.613  1.00  0.00     0.018 A 
HETATM    8  C   UNL     1      43.455 -17.608   3.554  1.00  0.00     0.018 A 
HETATM    9  C   UNL     1      43.607 -18.532   2.396  1.00  0.00     0.069 C 
HETATM   10  N   UNL     1      43.661 -18.044   4.839  1.00  0.00    -0.358 N 
HETATM   11  H   UNL     1      43.921 -18.986   5.097  1.00  0.00     0.166 HD
HETATM   12  C   UNL     1      43.468 -17.022   5.735  1.00  0.00     0.043 A 
HETATM   13  C   UNL     1      43.124 -15.888   4.999  1.00  0.00     0.004 A 
HETATM   14  C   UNL     1      43.572 -17.019   7.132  1.00  0.00     0.030 A 
HETATM   15  C   UNL     1      42.872 -14.689   5.700  1.00  0.00     0.014 A 
HETATM   16  C   UNL     1      42.972 -14.669   7.096  1.00  0.00     0.001 A 
HETATM   17  C   UNL     1      43.317 -15.819   7.800  1.00  0.00     0.002 A 
ENDBRANCH   6   7
ENDBRANCH   1   5
BRANCH   2  18
HETATM   18  C   UNL     1      40.308 -13.801  -1.059  1.00  0.00     0.121 A 
HETATM   19  N   UNL     1      40.662 -14.154  -2.332  1.00  0.00    -0.272 N 
HETATM   20  H   UNL     1      40.984 -15.068  -2.639  1.00  0.00     0.189 HD
HETATM   21  N   UNL     1      40.554 -13.162  -3.228  1.00  0.00    -0.174 NA
HETATM   22  C   UNL     1      40.129 -12.106  -2.516  1.00  0.00     0.091 A 
HETATM   23  C   UNL     1      39.929 -12.477  -1.156  1.00  0.00     0.071 A 
BRANCH  22  24
HETATM   24  C   UNL     1      39.882 -10.813  -3.159  1.00  0.00     0.016 A 
HETATM   25  C   UNL     1      38.600 -10.279  -3.374  1.00  0.00     0.046 A 
HETATM   26 CL   UNL     1      37.145 -11.056  -2.846  1.00  0.00    -0.083 Cl
HETATM   27  C   UNL     1      38.446  -9.040  -4.012  1.00  0.00     0.025 A 
HETATM   28  C   UNL     1      39.563  -8.316  -4.433  1.00  0.00     0.002 A 
HETATM   29  C   UNL     1      40.838  -8.825  -4.213  1.00  0.00     0.001 A 
HETATM   30  C   UNL     1      40.995 -10.060  -3.581  1.00  0.00     0.015 A 
ENDBRANCH  22  24
ENDBRANCH   2  18
TORSDOF 4
ENDMDL
MODEL 10
REMARK VINA RESULT:      -8.2      1.967      2.283
REMARK  4 active torsions:
REMARK  status: ('A' for Active; 'I' for Inactive)
REMARK    1  A    between atoms: C_7  and  C_8 
REMARK    2  A    between atoms: N_9  and  N_10 
REMARK       I    between atoms: N_10  and  C_11 
REMARK    3  A    between atoms: C_11  and  C_12 
REMARK    4  A    between atoms: C_16  and  C_17 
ROOT
HETATM    1  N   UNL     1      42.453 -11.924   6.744  1.00  0.00    -0.242 N 
HETATM    2  C   UNL     1      42.472 -10.548   6.574  1.00  0.00     0.289 C 
HETATM    3  O   UNL     1      42.200  -9.975   5.522  1.00  0.00    -0.264 OA
HETATM    4  H   UNL     1      42.731 -12.336   7.625  1.00  0.00     0.192 HD
ENDROOT
BRANCH   1   5
HETATM    5  N   UNL     1      42.132 -12.740   5.694  1.00  0.00    -0.183 NA
HETATM    6  C   UNL     1      43.123 -13.340   5.118  1.00  0.00     0.153 C 
BRANCH   6   7
HETATM    7  C   UNL     1      42.890 -14.222   3.989  1.00  0.00     0.018 A 
HETATM    8  C   UNL     1      42.335 -13.885   2.762  1.00  0.00     0.018 A 
HETATM    9  C   UNL     1      41.830 -12.586   2.237  1.00  0.00     0.069 C 
HETATM   10  N   UNL     1      42.300 -15.020   1.992  1.00  0.00    -0.358 N 
HETATM   11  H   UNL     1      41.945 -15.069   1.047  1.00  0.00     0.166 HD
HETATM   12  C   UNL     1      42.818 -16.090   2.680  1.00  0.00     0.043 A 
HETATM   13  C   UNL     1      43.199 -15.624   3.938  1.00  0.00     0.004 A 
HETATM   14  C   UNL     1      42.976 -17.423   2.282  1.00  0.00     0.030 A 
HETATM   15  C   UNL     1      43.768 -16.544   4.845  1.00  0.00     0.014 A 
HETATM   16  C   UNL     1      43.933 -17.880   4.464  1.00  0.00     0.001 A 
HETATM   17  C   UNL     1      43.542 -18.312   3.200  1.00  0.00     0.002 A 
ENDBRANCH   6   7
ENDBRANCH   1   5
BRANCH   2  18
HETATM   18  C   UNL     1      42.861  -9.804   7.747  1.00  0.00     0.121 A 
HETATM   19  N   UNL     1      44.173  -9.517   7.998  1.00  0.00    -0.272 N 
HETATM   20  H   UNL     1      44.970  -9.772   7.421  1.00  0.00     0.189 HD
HETATM   21  N   UNL     1      44.378  -8.827   9.130  1.00  0.00    -0.174 NA
HETATM   22  C   UNL     1      43.154  -8.666   9.656  1.00  0.00     0.091 A 
HETATM   23  C   UNL     1      42.171  -9.236   8.799  1.00  0.00     0.071 A 
BRANCH  22  24
HETATM   24  C   UNL     1      42.963  -7.939  10.914  1.00  0.00     0.016 A 
HETATM   25  C   UNL     1      42.477  -6.623  10.991  1.00  0.00     0.046 A 
HETATM   26 CL   UNL     1      41.977  -5.711   9.605  1.00  0.00    -0.083 Cl
HETATM   27  C   UNL     1      42.337  -5.990  12.234  1.00  0.00     0.025 A 
HETATM   28  C   UNL     1      42.670  -6.661  13.411  1.00  0.00     0.002 A 
HETATM   29  C   UNL     1      43.138  -7.968  13.352  1.00  0.00     0.001 A 
HETATM   30  C   UNL     1      43.281  -8.602  12.116  1.00  0.00     0.015 A 
ENDBRANCH  22  24
ENDBRANCH   2  18
TORSDOF 4
ENDMDL
