MODEL 1
REMARK VINA RESULT:      -7.6      0.000      0.000
REMARK  7 active torsions:
REMARK  status: ('A' for Active; 'I' for Inactive)
REMARK    1  A    between atoms: C_2  and  C_3 
REMARK    2  A    between atoms: C_3  and  N_4 
REMARK    3  A    between atoms: N_4  and  C_5 
REMARK    4  A    between atoms: C_7  and  N_8 
REMARK    5  A    between atoms: N_8  and  C_9 
REMARK    6  A    between atoms: C_9  and  C_10 
REMARK    7  A    between atoms: C_11  and  O_12 
ROOT
HETATM    1  C   UNL     1      43.456 -16.930   3.205  1.00  0.00     0.134 A 
HETATM    2  N   UNL     1      43.615 -16.175   4.309  1.00  0.00    -0.052 NA
HETATM    3  C   UNL     1      43.874 -16.797   5.468  1.00  0.00     0.702 A 
HETATM    4  N   UNL     1      43.978 -18.118   5.573  1.00  0.00    -0.189 N 
HETATM    5  H   UNL     1      44.224 -18.505   6.472  1.00  0.00     0.184 HD
HETATM    6  C   UNL     1      43.858 -18.912   4.500  1.00  0.00     0.062 A 
HETATM    7  C   UNL     1      43.596 -18.333   3.244  1.00  0.00     0.032 A 
HETATM    8  C   UNL     1      44.033 -20.298   4.627  1.00  0.00     0.031 A 
HETATM    9  C   UNL     1      43.959 -21.122   3.503  1.00  0.00     0.002 A 
HETATM   10  C   UNL     1      43.712 -20.567   2.252  1.00  0.00     0.001 A 
HETATM   11  C   UNL     1      43.531 -19.189   2.119  1.00  0.00     0.017 A 
ENDROOT
BRANCH   3  12
HETATM   12  N   UNL     1      44.172 -15.991   6.542  1.00  0.00    -0.220 N 
HETATM   13  H   UNL     1      44.909 -15.344   6.267  1.00  0.00     0.178 HD
BRANCH  12  14
HETATM   14  C   UNL     1      43.158 -15.395   7.398  1.00  0.00     0.179 C 
BRANCH  14  15
HETATM   15  C   UNL     1      42.325 -14.313   6.744  1.00  0.00    -0.007 A 
HETATM   16  C   UNL     1      42.959 -13.125   6.317  1.00  0.00     0.076 A 
HETATM   17  C   UNL     1      42.235 -12.155   5.614  1.00  0.00     0.037 A 
HETATM   18  C   UNL     1      40.890 -12.362   5.311  1.00  0.00     0.003 A 
HETATM   19  C   UNL     1      40.258 -13.535   5.712  1.00  0.00     0.001 A 
HETATM   20  C   UNL     1      40.970 -14.506   6.417  1.00  0.00     0.011 A 
BRANCH  16  21
HETATM   21  O   UNL     1      44.287 -13.002   6.646  1.00  0.00    -0.355 OA
HETATM   22  C   UNL     1      44.739 -11.700   7.017  1.00  0.00     0.210 C 
ENDBRANCH  16  21
ENDBRANCH  14  15
ENDBRANCH  12  14
ENDBRANCH   3  12
BRANCH   1  23
HETATM   23  N   UNL     1      43.236 -16.297   1.976  1.00  0.00    -0.276 NA
HETATM   24  H   UNL     1      42.927 -16.961   1.268  1.00  0.00     0.129 HD
BRANCH  23  25
HETATM   25  C   UNL     1      42.408 -15.092   1.984  1.00  0.00     0.093 C 
BRANCH  25  26
HETATM   26  C   UNL     1      41.007 -15.420   1.464  1.00  0.00     0.010 C 
HETATM   27  C   UNL     1      39.997 -15.624   2.586  1.00  0.00     0.006 C 
ENDBRANCH  25  26
ENDBRANCH  23  25
ENDBRANCH   1  23
TORSDOF 7
ENDMDL
MODEL 2
REMARK VINA RESULT:      -7.4      2.919      6.127
REMARK  7 active torsions:
REMARK  status: ('A' for Active; 'I' for Inactive)
REMARK    1  A    between atoms: C_2  and  C_3 
REMARK    2  A    between atoms: C_3  and  N_4 
REMARK    3  A    between atoms: N_4  and  C_5 
REMARK    4  A    between atoms: C_7  and  N_8 
REMARK    5  A    between atoms: N_8  and  C_9 
REMARK    6  A    between atoms: C_9  and  C_10 
REMARK    7  A    between atoms: C_11  and  O_12 
ROOT
HETATM    1  C   UNL     1      43.528 -17.443   2.990  1.00  0.00     0.134 A 
HETATM    2  N   UNL     1      42.877 -16.940   1.923  1.00  0.00    -0.052 NA
HETATM    3  C   UNL     1      42.294 -15.739   2.048  1.00  0.00     0.702 A 
HETATM    4  N   UNL     1      42.330 -15.031   3.172  1.00  0.00    -0.189 N 
HETATM    5  H   UNL     1      41.908 -14.113   3.169  1.00  0.00     0.184 HD
HETATM    6  C   UNL     1      42.989 -15.473   4.252  1.00  0.00     0.062 A 
HETATM    7  C   UNL     1      43.636 -16.722   4.197  1.00  0.00     0.032 A 
HETATM    8  C   UNL     1      43.063 -14.678   5.406  1.00  0.00     0.031 A 
HETATM    9  C   UNL     1      43.791 -15.114   6.514  1.00  0.00     0.002 A 
HETATM   10  C   UNL     1      44.447 -16.340   6.474  1.00  0.00     0.001 A 
HETATM   11  C   UNL     1      44.373 -17.139   5.331  1.00  0.00     0.017 A 
ENDROOT
BRANCH   3  12
HETATM   12  N   UNL     1      41.765 -15.194   0.902  1.00  0.00    -0.220 N 
HETATM   13  H   UNL     1      42.240 -15.603   0.099  1.00  0.00     0.178 HD
BRANCH  12  14
HETATM   14  C   UNL     1      40.339 -14.991   0.700  1.00  0.00     0.179 C 
BRANCH  14  15
HETATM   15  C   UNL     1      39.971 -14.271  -0.581  1.00  0.00    -0.007 A 
HETATM   16  C   UNL     1      40.492 -12.979  -0.814  1.00  0.00     0.076 A 
HETATM   17  C   UNL     1      40.256 -12.336  -2.035  1.00  0.00     0.037 A 
HETATM   18  C   UNL     1      39.525 -12.972  -3.036  1.00  0.00     0.003 A 
HETATM   19  C   UNL     1      39.020 -14.251  -2.825  1.00  0.00     0.001 A 
HETATM   20  C   UNL     1      39.246 -14.899  -1.610  1.00  0.00     0.011 A 
BRANCH  16  21
HETATM   21  O   UNL     1      41.209 -12.427   0.219  1.00  0.00    -0.355 OA
HETATM   22  C   UNL     1      40.732 -11.187   0.740  1.00  0.00     0.210 C 
ENDBRANCH  16  21
ENDBRANCH  14  15
ENDBRANCH  12  14
ENDBRANCH   3  12
BRANCH   1  23
HETATM   23  N   UNL     1      44.188 -18.672   2.864  1.00  0.00    -0.276 NA
HETATM   24  H   UNL     1      44.876 -18.800   3.605  1.00  0.00     0.129 HD
BRANCH  23  25
HETATM   25  C   UNL     1      43.356 -19.861   2.690  1.00  0.00     0.093 C 
BRANCH  25  26
HETATM   26  C   UNL     1      43.943 -21.030   3.485  1.00  0.00     0.010 C 
HETATM   27  C   UNL     1      43.940 -20.779   4.987  1.00  0.00     0.006 C 
ENDBRANCH  25  26
ENDBRANCH  23  25
ENDBRANCH   1  23
TORSDOF 7
ENDMDL
MODEL 3
REMARK VINA RESULT:      -7.4      2.214      4.254
REMARK  7 active torsions:
REMARK  status: ('A' for Active; 'I' for Inactive)
REMARK    1  A    between atoms: C_2  and  C_3 
REMARK    2  A    between atoms: C_3  and  N_4 
REMARK    3  A    between atoms: N_4  and  C_5 
REMARK    4  A    between atoms: C_7  and  N_8 
REMARK    5  A    between atoms: N_8  and  C_9 
REMARK    6  A    between atoms: C_9  and  C_10 
REMARK    7  A    between atoms: C_11  and  O_12 
ROOT
HETATM    1  C   UNL     1      43.814 -16.920   4.576  1.00  0.00     0.134 A 
HETATM    2  N   UNL     1      43.497 -15.981   3.662  1.00  0.00    -0.052 NA
HETATM    3  C   UNL     1      43.249 -16.379   2.407  1.00  0.00     0.702 A 
HETATM    4  N   UNL     1      43.303 -17.652   2.027  1.00  0.00    -0.189 N 
HETATM    5  H   UNL     1      43.053 -17.874   1.074  1.00  0.00     0.184 HD
HETATM    6  C   UNL     1      43.583 -18.627   2.903  1.00  0.00     0.062 A 
HETATM    7  C   UNL     1      43.847 -18.290   4.244  1.00  0.00     0.032 A 
HETATM    8  C   UNL     1      43.574 -19.968   2.489  1.00  0.00     0.031 A 
HETATM    9  C   UNL     1      43.816 -20.988   3.410  1.00  0.00     0.002 A 
HETATM   10  C   UNL     1      44.067 -20.676   4.742  1.00  0.00     0.001 A 
HETATM   11  C   UNL     1      44.084 -19.343   5.159  1.00  0.00     0.017 A 
ENDROOT
BRANCH   3  12
HETATM   12  N   UNL     1      42.790 -15.416   1.539  1.00  0.00    -0.220 N 
HETATM   13  H   UNL     1      41.895 -15.720   1.160  1.00  0.00     0.178 HD
BRANCH  12  14
HETATM   14  C   UNL     1      42.852 -13.991   1.824  1.00  0.00     0.179 C 
BRANCH  14  15
HETATM   15  C   UNL     1      41.553 -13.378   2.303  1.00  0.00    -0.007 A 
HETATM   16  C   UNL     1      40.490 -13.223   1.385  1.00  0.00     0.076 A 
HETATM   17  C   UNL     1      39.244 -12.760   1.825  1.00  0.00     0.037 A 
HETATM   18  C   UNL     1      39.036 -12.468   3.171  1.00  0.00     0.003 A 
HETATM   19  C   UNL     1      40.070 -12.631   4.087  1.00  0.00     0.001 A 
HETATM   20  C   UNL     1      41.317 -13.089   3.659  1.00  0.00     0.011 A 
BRANCH  16  21
HETATM   21  O   UNL     1      40.774 -13.541   0.080  1.00  0.00    -0.355 OA
HETATM   22  C   UNL     1      39.842 -14.388  -0.591  1.00  0.00     0.210 C 
ENDBRANCH  16  21
ENDBRANCH  14  15
ENDBRANCH  12  14
ENDBRANCH   3  12
BRANCH   1  23
HETATM   23  N   UNL     1      44.026 -16.530   5.904  1.00  0.00    -0.276 NA
HETATM   24  H   UNL     1      45.008 -16.317   6.074  1.00  0.00     0.129 HD
BRANCH  23  25
HETATM   25  C   UNL     1      43.147 -15.496   6.445  1.00  0.00     0.093 C 
BRANCH  25  26
HETATM   26  C   UNL     1      41.877 -16.135   7.011  1.00  0.00     0.010 C 
HETATM   27  C   UNL     1      40.631 -15.770   6.213  1.00  0.00     0.006 C 
ENDBRANCH  25  26
ENDBRANCH  23  25
ENDBRANCH   1  23
TORSDOF 7
ENDMDL
MODEL 4
REMARK VINA RESULT:      -7.4      2.737      5.362
REMARK  7 active torsions:
REMARK  status: ('A' for Active; 'I' for Inactive)
REMARK    1  A    between atoms: C_2  and  C_3 
REMARK    2  A    between atoms: C_3  and  N_4 
REMARK    3  A    between atoms: N_4  and  C_5 
REMARK    4  A    between atoms: C_7  and  N_8 
REMARK    5  A    between atoms: N_8  and  C_9 
REMARK    6  A    between atoms: C_9  and  C_10 
REMARK    7  A    between atoms: C_11  and  O_12 
ROOT
HETATM    1  C   UNL     1      43.449 -16.218   4.179  1.00  0.00     0.134 A 
HETATM    2  N   UNL     1      42.988 -15.376   3.233  1.00  0.00    -0.052 NA
HETATM    3  C   UNL     1      42.711 -15.879   2.022  1.00  0.00     0.702 A 
HETATM    4  N   UNL     1      42.872 -17.163   1.717  1.00  0.00    -0.189 N 
HETATM    5  H   UNL     1      42.592 -17.471   0.797  1.00  0.00     0.184 HD
HETATM    6  C   UNL     1      43.299 -18.046   2.630  1.00  0.00     0.062 A 
HETATM    7  C   UNL     1      43.602 -17.597   3.929  1.00  0.00     0.032 A 
HETATM    8  C   UNL     1      43.402 -19.406   2.300  1.00  0.00     0.031 A 
HETATM    9  C   UNL     1      43.798 -20.335   3.262  1.00  0.00     0.002 A 
HETATM   10  C   UNL     1      44.091 -19.912   4.555  1.00  0.00     0.001 A 
HETATM   11  C   UNL     1      43.996 -18.560   4.889  1.00  0.00     0.017 A 
ENDROOT
BRANCH   3  12
HETATM   12  N   UNL     1      42.108 -15.025   1.129  1.00  0.00    -0.220 N 
HETATM   13  H   UNL     1      42.566 -15.125   0.224  1.00  0.00     0.178 HD
BRANCH  12  14
HETATM   14  C   UNL     1      40.667 -14.851   1.040  1.00  0.00     0.179 C 
BRANCH  14  15
HETATM   15  C   UNL     1      40.171 -14.278  -0.271  1.00  0.00    -0.007 A 
HETATM   16  C   UNL     1      40.571 -12.975  -0.643  1.00  0.00     0.076 A 
HETATM   17  C   UNL     1      40.217 -12.462  -1.897  1.00  0.00     0.037 A 
HETATM   18  C   UNL     1      39.487 -13.239  -2.795  1.00  0.00     0.003 A 
HETATM   19  C   UNL     1      39.102 -14.529  -2.447  1.00  0.00     0.001 A 
HETATM   20  C   UNL     1      39.446 -15.048  -1.198  1.00  0.00     0.011 A 
BRANCH  16  21
HETATM   21  O   UNL     1      41.295 -12.279   0.294  1.00  0.00    -0.355 OA
HETATM   22  C   UNL     1      40.687 -11.107   0.835  1.00  0.00     0.210 C 
ENDBRANCH  16  21
ENDBRANCH  14  15
ENDBRANCH  12  14
ENDBRANCH   3  12
BRANCH   1  23
HETATM   23  N   UNL     1      43.696 -15.723   5.466  1.00  0.00    -0.276 NA
HETATM   24  H   UNL     1      44.554 -15.174   5.492  1.00  0.00     0.129 HD
BRANCH  23  25
HETATM   25  C   UNL     1      42.596 -15.036   6.139  1.00  0.00     0.093 C 
BRANCH  25  26
HETATM   26  C   UNL     1      41.702 -16.055   6.851  1.00  0.00     0.010 C 
HETATM   27  C   UNL     1      40.229 -15.889   6.500  1.00  0.00     0.006 C 
ENDBRANCH  25  26
ENDBRANCH  23  25
ENDBRANCH   1  23
TORSDOF 7
ENDMDL
MODEL 5
REMARK VINA RESULT:      -7.0      3.001      5.884
REMARK  7 active torsions:
REMARK  status: ('A' for Active; 'I' for Inactive)
REMARK    1  A    between atoms: C_2  and  C_3 
REMARK    2  A    between atoms: C_3  and  N_4 
REMARK    3  A    between atoms: N_4  and  C_5 
REMARK    4  A    between atoms: C_7  and  N_8 
REMARK    5  A    between atoms: N_8  and  C_9 
REMARK    6  A    between atoms: C_9  and  C_10 
REMARK    7  A    between atoms: C_11  and  O_12 
ROOT
HETATM    1  C   UNL     1      42.725 -15.295   4.158  1.00  0.00     0.134 A 
HETATM    2  N   UNL     1      42.291 -14.718   3.020  1.00  0.00    -0.052 NA
HETATM    3  C   UNL     1      42.386 -15.419   1.881  1.00  0.00     0.702 A 
HETATM    4  N   UNL     1      42.887 -16.649   1.827  1.00  0.00    -0.189 N 
HETATM    5  H   UNL     1      42.877 -17.128   0.938  1.00  0.00     0.184 HD
HETATM    6  C   UNL     1      43.304 -17.278   2.934  1.00  0.00     0.062 A 
HETATM    7  C   UNL     1      43.229 -16.612   4.172  1.00  0.00     0.032 A 
HETATM    8  C   UNL     1      43.772 -18.599   2.859  1.00  0.00     0.031 A 
HETATM    9  C   UNL     1      44.160 -19.274   4.017  1.00  0.00     0.002 A 
HETATM   10  C   UNL     1      44.082 -18.636   5.251  1.00  0.00     0.001 A 
HETATM   11  C   UNL     1      43.623 -17.320   5.332  1.00  0.00     0.017 A 
ENDROOT
BRANCH   3  12
HETATM   12  N   UNL     1      41.804 -14.859   0.768  1.00  0.00    -0.220 N 
HETATM   13  H   UNL     1      42.339 -15.136  -0.053  1.00  0.00     0.178 HD
BRANCH  12  14
HETATM   14  C   UNL     1      40.366 -14.832   0.549  1.00  0.00     0.179 C 
BRANCH  14  15
HETATM   15  C   UNL     1      39.925 -14.124  -0.716  1.00  0.00    -0.007 A 
HETATM   16  C   UNL     1      40.392 -12.814  -0.965  1.00  0.00     0.076 A 
HETATM   17  C   UNL     1      40.089 -12.178  -2.175  1.00  0.00     0.037 A 
HETATM   18  C   UNL     1      39.344 -12.838  -3.150  1.00  0.00     0.003 A 
HETATM   19  C   UNL     1      38.892 -14.134  -2.923  1.00  0.00     0.001 A 
HETATM   20  C   UNL     1      39.186 -14.776  -1.719  1.00  0.00     0.011 A 
BRANCH  16  21
HETATM   21  O   UNL     1      41.127 -12.238   0.042  1.00  0.00    -0.355 OA
HETATM   22  C   UNL     1      40.612 -11.031   0.603  1.00  0.00     0.210 C 
ENDBRANCH  16  21
ENDBRANCH  14  15
ENDBRANCH  12  14
ENDBRANCH   3  12
BRANCH   1  23
HETATM   23  N   UNL     1      42.588 -14.600   5.365  1.00  0.00    -0.276 NA
HETATM   24  H   UNL     1      42.856 -15.180   6.158  1.00  0.00     0.129 HD
BRANCH  23  25
HETATM   25  C   UNL     1      43.190 -13.270   5.442  1.00  0.00     0.093 C 
BRANCH  25  26
HETATM   26  C   UNL     1      44.123 -13.189   6.653  1.00  0.00     0.010 C 
HETATM   27  C   UNL     1      44.122 -11.813   7.304  1.00  0.00     0.006 C 
ENDBRANCH  25  26
ENDBRANCH  23  25
ENDBRANCH   1  23
TORSDOF 7
ENDMDL
MODEL 6
REMARK VINA RESULT:      -6.9      2.031      6.891
REMARK  7 active torsions:
REMARK  status: ('A' for Active; 'I' for Inactive)
REMARK    1  A    between atoms: C_2  and  C_3 
REMARK    2  A    between atoms: C_3  and  N_4 
REMARK    3  A    between atoms: N_4  and  C_5 
REMARK    4  A    between atoms: C_7  and  N_8 
REMARK    5  A    between atoms: N_8  and  C_9 
REMARK    6  A    between atoms: C_9  and  C_10 
REMARK    7  A    between atoms: C_11  and  O_12 
ROOT
HETATM    1  C   UNL     1      42.429 -13.302   4.382  1.00  0.00     0.134 A 
HETATM    2  N   UNL     1      42.622 -14.588   4.030  1.00  0.00    -0.052 NA
HETATM    3  C   UNL     1      41.651 -15.208   3.345  1.00  0.00     0.702 A 
HETATM    4  N   UNL     1      40.513 -14.611   3.003  1.00  0.00    -0.189 N 
HETATM    5  H   UNL     1      39.853 -15.132   2.443  1.00  0.00     0.184 HD
HETATM    6  C   UNL     1      40.285 -13.325   3.302  1.00  0.00     0.062 A 
HETATM    7  C   UNL     1      41.261 -12.602   4.013  1.00  0.00     0.032 A 
HETATM    8  C   UNL     1      39.102 -12.702   2.876  1.00  0.00     0.031 A 
HETATM    9  C   UNL     1      38.884 -11.350   3.143  1.00  0.00     0.002 A 
HETATM   10  C   UNL     1      39.843 -10.616   3.834  1.00  0.00     0.001 A 
HETATM   11  C   UNL     1      41.019 -11.231   4.267  1.00  0.00     0.017 A 
ENDROOT
BRANCH   3  12
HETATM   12  N   UNL     1      41.940 -16.468   2.878  1.00  0.00    -0.220 N 
HETATM   13  H   UNL     1      41.263 -16.710   2.156  1.00  0.00     0.178 HD
BRANCH  12  14
HETATM   14  C   UNL     1      43.292 -16.921   2.591  1.00  0.00     0.179 C 
BRANCH  14  15
HETATM   15  C   UNL     1      43.606 -18.328   3.055  1.00  0.00    -0.007 A 
HETATM   16  C   UNL     1      43.952 -18.543   4.408  1.00  0.00     0.076 A 
HETATM   17  C   UNL     1      44.142 -19.844   4.887  1.00  0.00     0.037 A 
HETATM   18  C   UNL     1      43.971 -20.938   4.041  1.00  0.00     0.003 A 
HETATM   19  C   UNL     1      43.615 -20.741   2.711  1.00  0.00     0.001 A 
HETATM   20  C   UNL     1      43.427 -19.448   2.222  1.00  0.00     0.011 A 
BRANCH  16  21
HETATM   21  O   UNL     1      44.091 -17.413   5.177  1.00  0.00    -0.355 OA
HETATM   22  C   UNL     1      43.268 -17.323   6.339  1.00  0.00     0.210 C 
ENDBRANCH  16  21
ENDBRANCH  14  15
ENDBRANCH  12  14
ENDBRANCH   3  12
BRANCH   1  23
HETATM   23  N   UNL     1      43.452 -12.621   5.053  1.00  0.00    -0.276 NA
HETATM   24  H   UNL     1      43.302 -11.614   5.032  1.00  0.00     0.129 HD
BRANCH  23  25
HETATM   25  C   UNL     1      43.795 -13.087   6.396  1.00  0.00     0.093 C 
BRANCH  25  26
HETATM   26  C   UNL     1      44.358 -11.928   7.222  1.00  0.00     0.010 C 
HETATM   27  C   UNL     1      43.478 -10.686   7.166  1.00  0.00     0.006 C 
ENDBRANCH  25  26
ENDBRANCH  23  25
ENDBRANCH   1  23
TORSDOF 7
ENDMDL
MODEL 7
REMARK VINA RESULT:      -6.8      2.349      3.850
REMARK  7 active torsions:
REMARK  status: ('A' for Active; 'I' for Inactive)
REMARK    1  A    between atoms: C_2  and  C_3 
REMARK    2  A    between atoms: C_3  and  N_4 
REMARK    3  A    between atoms: N_4  and  C_5 
REMARK    4  A    between atoms: C_7  and  N_8 
REMARK    5  A    between atoms: N_8  and  C_9 
REMARK    6  A    between atoms: C_9  and  C_10 
REMARK    7  A    between atoms: C_11  and  O_12 
ROOT
HETATM    1  C   UNL     1      40.991 -14.880   4.052  1.00  0.00     0.134 A 
HETATM    2  N   UNL     1      41.248 -14.000   5.040  1.00  0.00    -0.052 NA
HETATM    3  C   UNL     1      42.345 -14.192   5.787  1.00  0.00     0.702 A 
HETATM    4  N   UNL     1      43.182 -15.207   5.596  1.00  0.00    -0.189 N 
HETATM    5  H   UNL     1      44.013 -15.252   6.169  1.00  0.00     0.184 HD
HETATM    6  C   UNL     1      42.988 -16.092   4.608  1.00  0.00     0.062 A 
HETATM    7  C   UNL     1      41.863 -15.953   3.774  1.00  0.00     0.032 A 
HETATM    8  C   UNL     1      43.920 -17.118   4.390  1.00  0.00     0.031 A 
HETATM    9  C   UNL     1      43.747 -18.011   3.332  1.00  0.00     0.002 A 
HETATM   10  C   UNL     1      42.647 -17.883   2.489  1.00  0.00     0.001 A 
HETATM   11  C   UNL     1      41.713 -16.868   2.704  1.00  0.00     0.017 A 
ENDROOT
BRANCH   3  12
HETATM   12  N   UNL     1      42.653 -13.199   6.687  1.00  0.00    -0.220 N 
HETATM   13  H   UNL     1      43.460 -13.496   7.233  1.00  0.00     0.178 HD
BRANCH  12  14
HETATM   14  C   UNL     1      42.664 -11.786   6.343  1.00  0.00     0.179 C 
BRANCH  14  15
HETATM   15  C   UNL     1      43.814 -10.995   6.929  1.00  0.00    -0.007 A 
HETATM   16  C   UNL     1      43.532  -9.834   7.684  1.00  0.00     0.076 A 
HETATM   17  C   UNL     1      44.567  -9.145   8.327  1.00  0.00     0.037 A 
HETATM   18  C   UNL     1      45.879  -9.609   8.245  1.00  0.00     0.003 A 
HETATM   19  C   UNL     1      46.168 -10.759   7.518  1.00  0.00     0.001 A 
HETATM   20  C   UNL     1      45.144 -11.451   6.870  1.00  0.00     0.011 A 
BRANCH  16  21
HETATM   21  O   UNL     1      42.214  -9.450   7.723  1.00  0.00    -0.355 OA
HETATM   22  C   UNL     1      41.667  -9.166   9.010  1.00  0.00     0.210 C 
ENDBRANCH  16  21
ENDBRANCH  14  15
ENDBRANCH  12  14
ENDBRANCH   3  12
BRANCH   1  23
HETATM   23  N   UNL     1      39.879 -14.669   3.228  1.00  0.00    -0.276 NA
HETATM   24  H   UNL     1      39.014 -14.919   3.704  1.00  0.00     0.129 HD
BRANCH  23  25
HETATM   25  C   UNL     1      39.775 -13.370   2.566  1.00  0.00     0.093 C 
BRANCH  25  26
HETATM   26  C   UNL     1      40.506 -13.410   1.222  1.00  0.00     0.010 C 
HETATM   27  C   UNL     1      40.082 -14.590   0.358  1.00  0.00     0.006 C 
ENDBRANCH  25  26
ENDBRANCH  23  25
ENDBRANCH   1  23
TORSDOF 7
ENDMDL
MODEL 8
REMARK VINA RESULT:      -6.7     14.263     16.182
REMARK  7 active torsions:
REMARK  status: ('A' for Active; 'I' for Inactive)
REMARK    1  A    between atoms: C_2  and  C_3 
REMARK    2  A    between atoms: C_3  and  N_4 
REMARK    3  A    between atoms: N_4  and  C_5 
REMARK    4  A    between atoms: C_7  and  N_8 
REMARK    5  A    between atoms: N_8  and  C_9 
REMARK    6  A    between atoms: C_9  and  C_10 
REMARK    7  A    between atoms: C_11  and  O_12 
ROOT
HETATM    1  C   UNL     1      49.301 -29.609   0.487  1.00  0.00     0.134 A 
HETATM    2  N   UNL     1      48.101 -29.119   0.117  1.00  0.00    -0.052 NA
HETATM    3  C   UNL     1      47.169 -28.948   1.065  1.00  0.00     0.702 A 
HETATM    4  N   UNL     1      47.376 -29.240   2.345  1.00  0.00    -0.189 N 
HETATM    5  H   UNL     1      46.640 -29.035   3.004  1.00  0.00     0.184 HD
HETATM    6  C   UNL     1      48.561 -29.702   2.770  1.00  0.00     0.062 A 
HETATM    7  C   UNL     1      49.595 -29.899   1.836  1.00  0.00     0.032 A 
HETATM    8  C   UNL     1      48.773 -29.944   4.135  1.00  0.00     0.031 A 
HETATM    9  C   UNL     1      50.020 -30.376   4.587  1.00  0.00     0.002 A 
HETATM   10  C   UNL     1      51.058 -30.567   3.681  1.00  0.00     0.001 A 
HETATM   11  C   UNL     1      50.852 -30.333   2.320  1.00  0.00     0.017 A 
ENDROOT
BRANCH   3  12
HETATM   12  N   UNL     1      46.012 -28.314   0.677  1.00  0.00    -0.220 N 
HETATM   13  H   UNL     1      46.261 -27.456   0.187  1.00  0.00     0.178 HD
BRANCH  12  14
HETATM   14  C   UNL     1      44.876 -29.012   0.097  1.00  0.00     0.179 C 
BRANCH  14  15
HETATM   15  C   UNL     1      44.855 -29.053  -1.416  1.00  0.00    -0.007 A 
HETATM   16  C   UNL     1      44.270 -30.165  -2.063  1.00  0.00     0.076 A 
HETATM   17  C   UNL     1      44.140 -30.179  -3.457  1.00  0.00     0.037 A 
HETATM   18  C   UNL     1      44.567 -29.090  -4.215  1.00  0.00     0.003 A 
HETATM   19  C   UNL     1      45.129 -27.983  -3.589  1.00  0.00     0.001 A 
HETATM   20  C   UNL     1      45.267 -27.960  -2.200  1.00  0.00     0.011 A 
BRANCH  16  21
HETATM   21  O   UNL     1      43.868 -31.191  -1.245  1.00  0.00    -0.355 OA
HETATM   22  C   UNL     1      44.511 -32.451  -1.431  1.00  0.00     0.210 C 
ENDBRANCH  16  21
ENDBRANCH  14  15
ENDBRANCH  12  14
ENDBRANCH   3  12
BRANCH   1  23
HETATM   23  N   UNL     1      50.305 -29.748  -0.478  1.00  0.00    -0.276 NA
HETATM   24  H   UNL     1      51.041 -30.375  -0.159  1.00  0.00     0.129 HD
BRANCH  23  25
HETATM   25  C   UNL     1      49.882 -30.062  -1.842  1.00  0.00     0.093 C 
BRANCH  25  26
HETATM   26  C   UNL     1      50.840 -31.080  -2.464  1.00  0.00     0.010 C 
HETATM   27  C   UNL     1      51.991 -31.446  -1.535  1.00  0.00     0.006 C 
ENDBRANCH  25  26
ENDBRANCH  23  25
ENDBRANCH   1  23
TORSDOF 7
ENDMDL
MODEL 9
REMARK VINA RESULT:      -6.7      2.068      7.082
REMARK  7 active torsions:
REMARK  status: ('A' for Active; 'I' for Inactive)
REMARK    1  A    between atoms: C_2  and  C_3 
REMARK    2  A    between atoms: C_3  and  N_4 
REMARK    3  A    between atoms: N_4  and  C_5 
REMARK    4  A    between atoms: C_7  and  N_8 
REMARK    5  A    between atoms: N_8  and  C_9 
REMARK    6  A    between atoms: C_9  and  C_10 
REMARK    7  A    between atoms: C_11  and  O_12 
ROOT
HETATM    1  C   UNL     1      43.851 -12.001   6.476  1.00  0.00     0.134 A 
HETATM    2  N   UNL     1      44.052 -13.313   6.708  1.00  0.00    -0.052 NA
HETATM    3  C   UNL     1      42.994 -14.135   6.650  1.00  0.00     0.702 A 
HETATM    4  N   UNL     1      41.764 -13.712   6.378  1.00  0.00    -0.189 N 
HETATM    5  H   UNL     1      41.030 -14.402   6.304  1.00  0.00     0.184 HD
HETATM    6  C   UNL     1      41.515 -12.423   6.110  1.00  0.00     0.062 A 
HETATM    7  C   UNL     1      42.576 -11.498   6.141  1.00  0.00     0.032 A 
HETATM    8  C   UNL     1      40.218 -12.013   5.765  1.00  0.00     0.031 A 
HETATM    9  C   UNL     1      39.966 -10.680   5.436  1.00  0.00     0.002 A 
HETATM   10  C   UNL     1      41.004  -9.754   5.450  1.00  0.00     0.001 A 
HETATM   11  C   UNL     1      42.296 -10.154   5.798  1.00  0.00     0.017 A 
ENDROOT
BRANCH   3  12
HETATM   12  N   UNL     1      43.259 -15.480   6.749  1.00  0.00    -0.220 N 
HETATM   13  H   UNL     1      42.378 -15.989   6.697  1.00  0.00     0.178 HD
BRANCH  12  14
HETATM   14  C   UNL     1      44.354 -16.131   6.048  1.00  0.00     0.179 C 
BRANCH  14  15
HETATM   15  C   UNL     1      43.940 -16.996   4.876  1.00  0.00    -0.007 A 
HETATM   16  C   UNL     1      43.388 -16.379   3.731  1.00  0.00     0.076 A 
HETATM   17  C   UNL     1      43.097 -17.141   2.593  1.00  0.00     0.037 A 
HETATM   18  C   UNL     1      43.367 -18.508   2.573  1.00  0.00     0.003 A 
HETATM   19  C   UNL     1      43.925 -19.124   3.688  1.00  0.00     0.001 A 
HETATM   20  C   UNL     1      44.216 -18.374   4.829  1.00  0.00     0.011 A 
BRANCH  16  21
HETATM   21  O   UNL     1      43.162 -15.028   3.828  1.00  0.00    -0.355 OA
HETATM   22  C   UNL     1      43.070 -14.302   2.603  1.00  0.00     0.210 C 
ENDBRANCH  16  21
ENDBRANCH  14  15
ENDBRANCH  12  14
ENDBRANCH   3  12
BRANCH   1  23
HETATM   23  N   UNL     1      44.950 -11.134   6.480  1.00  0.00    -0.276 NA
HETATM   24  H   UNL     1      44.718 -10.241   6.049  1.00  0.00     0.129 HD
BRANCH  23  25
HETATM   25  C   UNL     1      45.654 -10.955   7.748  1.00  0.00     0.093 C 
BRANCH  25  26
HETATM   26  C   UNL     1      45.282  -9.605   8.365  1.00  0.00     0.010 C 
HETATM   27  C   UNL     1      45.343  -9.619   9.887  1.00  0.00     0.006 C 
ENDBRANCH  25  26
ENDBRANCH  23  25
ENDBRANCH   1  23
TORSDOF 7
ENDMDL
MODEL 10
REMARK VINA RESULT:      -6.6     13.805     15.425
REMARK  7 active torsions:
REMARK  status: ('A' for Active; 'I' for Inactive)
REMARK    1  A    between atoms: C_2  and  C_3 
REMARK    2  A    between atoms: C_3  and  N_4 
REMARK    3  A    between atoms: N_4  and  C_5 
REMARK    4  A    between atoms: C_7  and  N_8 
REMARK    5  A    between atoms: N_8  and  C_9 
REMARK    6  A    between atoms: C_9  and  C_10 
REMARK    7  A    between atoms: C_11  and  O_12 
ROOT
HETATM    1  C   UNL     1      46.840 -28.384   1.897  1.00  0.00     0.134 A 
HETATM    2  N   UNL     1      45.873 -28.854   2.709  1.00  0.00    -0.052 NA
HETATM    3  C   UNL     1      44.709 -29.225   2.157  1.00  0.00     0.702 A 
HETATM    4  N   UNL     1      44.470 -29.147   0.852  1.00  0.00    -0.189 N 
HETATM    5  H   UNL     1      43.585 -29.493   0.510  1.00  0.00     0.184 HD
HETATM    6  C   UNL     1      45.408 -28.715  -0.002  1.00  0.00     0.062 A 
HETATM    7  C   UNL     1      46.661 -28.317   0.499  1.00  0.00     0.032 A 
HETATM    8  C   UNL     1      45.151 -28.700  -1.381  1.00  0.00     0.031 A 
HETATM    9  C   UNL     1      46.142 -28.299  -2.277  1.00  0.00     0.002 A 
HETATM   10  C   UNL     1      47.391 -27.912  -1.801  1.00  0.00     0.001 A 
HETATM   11  C   UNL     1      47.652 -27.919  -0.429  1.00  0.00     0.017 A 
ENDROOT
BRANCH   3  12
HETATM   12  N   UNL     1      43.801 -29.832   2.993  1.00  0.00    -0.220 N 
HETATM   13  H   UNL     1      44.179 -29.828   3.939  1.00  0.00     0.178 HD
BRANCH  12  14
HETATM   14  C   UNL     1      42.370 -29.584   2.931  1.00  0.00     0.179 C 
BRANCH  14  15
HETATM   15  C   UNL     1      41.502 -30.822   3.013  1.00  0.00    -0.007 A 
HETATM   16  C   UNL     1      41.613 -31.804   2.004  1.00  0.00     0.076 A 
HETATM   17  C   UNL     1      40.904 -33.006   2.112  1.00  0.00     0.037 A 
HETATM   18  C   UNL     1      40.099 -33.252   3.223  1.00  0.00     0.003 A 
HETATM   19  C   UNL     1      39.993 -32.299   4.231  1.00  0.00     0.001 A 
HETATM   20  C   UNL     1      40.694 -31.097   4.132  1.00  0.00     0.011 A 
BRANCH  16  21
HETATM   21  O   UNL     1      42.433 -31.489   0.949  1.00  0.00    -0.355 OA
HETATM   22  C   UNL     1      43.073 -32.579   0.285  1.00  0.00     0.210 C 
ENDBRANCH  16  21
ENDBRANCH  14  15
ENDBRANCH  12  14
ENDBRANCH   3  12
BRANCH   1  23
HETATM   23  N   UNL     1      48.081 -28.040   2.447  1.00  0.00    -0.276 NA
HETATM   24  H   UNL     1      48.140 -27.040   2.628  1.00  0.00     0.129 HD
BRANCH  23  25
HETATM   25  C   UNL     1      48.544 -28.824   3.590  1.00  0.00     0.093 C 
BRANCH  25  26
HETATM   26  C   UNL     1      49.781 -29.635   3.200  1.00  0.00     0.010 C 
HETATM   27  C   UNL     1      50.406 -30.360   4.385  1.00  0.00     0.006 C 
ENDBRANCH  25  26
ENDBRANCH  23  25
ENDBRANCH   1  23
TORSDOF 7
ENDMDL
