MODEL 1
REMARK VINA RESULT:      -7.7      0.000      0.000
REMARK  14 active torsions:
REMARK  status: ('A' for Active; 'I' for Inactive)
REMARK    1  A    between atoms: C_2  and  N_3 
REMARK    2  A    between atoms: N_3  and  C_5 
REMARK    3  A    between atoms: N_3  and  C_37 
REMARK    4  A    between atoms: C_5  and  C_6 
REMARK    5  A    between atoms: C_6  and  N_7 
REMARK    6  A    between atoms: C_10  and  O_11 
REMARK    7  A    between atoms: C_12  and  C_13 
REMARK    8  A    between atoms: C_13  and  C_14 
REMARK    9  A    between atoms: C_18  and  O_19 
REMARK   10  A    between atoms: O_19  and  C_20 
REMARK   11  A    between atoms: C_26  and  C_27 
REMARK   12  A    between atoms: C_29  and  O_30 
REMARK   13  A    between atoms: O_30  and  C_31 
REMARK   14  A    between atoms: C_33  and  O_34 
ROOT
HETATM    1  N   UNL     1      40.165 -10.745   5.028  1.00  0.00    -0.332 N 
HETATM    2  C   UNL     1      39.479 -11.212   3.933  1.00  0.00     0.278 C 
HETATM    3  O   UNL     1      38.928 -10.549   3.073  1.00  0.00    -0.265 OA
HETATM    4  C   UNL     1      39.488 -12.690   3.998  1.00  0.00     0.146 C 
HETATM    5  C   UNL     1      40.185 -13.035   5.089  1.00  0.00     0.059 C 
HETATM    6  C   UNL     1      40.768 -11.832   5.783  1.00  0.00     0.161 C 
ENDROOT
BRANCH   5   7
HETATM    7  C   UNL     1      40.450 -14.347   5.719  1.00  0.00     0.193 C 
HETATM    8  O   UNL     1      39.798 -14.679   6.708  1.00  0.00    -0.287 OA
BRANCH   7   9
HETATM    9  C   UNL     1      41.479 -15.276   5.216  1.00  0.00     0.015 A 
HETATM   10  C   UNL     1      41.859 -15.304   3.872  1.00  0.00     0.025 A 
HETATM   11  C   UNL     1      42.781 -16.261   3.418  1.00  0.00    -0.028 A 
HETATM   12  C   UNL     1      43.198 -16.277   1.973  1.00  0.00     0.051 C 
HETATM   13  C   UNL     1      43.260 -17.234   4.312  1.00  0.00     0.075 A 
HETATM   14  C   UNL     1      42.885 -17.198   5.656  1.00  0.00     0.038 A 
HETATM   15  C   UNL     1      41.986 -16.227   6.105  1.00  0.00     0.018 A 
BRANCH  13  16
HETATM   16  O   UNL     1      44.120 -18.169   3.802  1.00  0.00    -0.346 OA
BRANCH  16  17
HETATM   17  C   UNL     1      43.622 -19.513   3.691  1.00  0.00     0.121 C 
HETATM   18  C   UNL     1      43.833 -20.069   2.283  1.00  0.00     0.040 C 
HETATM   19  C   UNL     1      44.410 -20.350   4.698  1.00  0.00     0.040 C 
ENDBRANCH  16  17
ENDBRANCH  13  16
ENDBRANCH   7   9
ENDBRANCH   5   7
BRANCH   4  20
HETATM   20  O   UNL     1      38.840 -13.470   3.092  1.00  0.00    -0.355 OA
HETATM   21  H   UNL     1      38.758 -12.944   2.269  1.00  0.00     0.218 HD
ENDBRANCH   4  20
BRANCH   6  22
HETATM   22  C   UNL     1      42.287 -11.746   5.760  1.00  0.00    -0.028 A 
HETATM   23  C   UNL     1      42.988 -11.612   6.977  1.00  0.00     0.049 A 
HETATM   24  C   UNL     1      44.374 -11.455   6.987  1.00  0.00     0.102 A 
HETATM   25  C   UNL     1      45.059 -11.445   5.769  1.00  0.00     0.099 A 
HETATM   26  C   UNL     1      44.396 -11.601   4.559  1.00  0.00     0.040 A 
HETATM   27  C   UNL     1      43.011 -11.752   4.553  1.00  0.00     0.012 A 
BRANCH  24  28
HETATM   28  O   UNL     1      45.162 -11.281   8.094  1.00  0.00    -0.349 OA
BRANCH  28  29
HETATM   29  C   UNL     1      44.901 -10.134   8.904  1.00  0.00     0.171 C 
HETATM   30  C   UNL     1      45.854  -9.033   8.475  1.00  0.00     0.034 C 
ENDBRANCH  28  29
ENDBRANCH  24  28
BRANCH  25  31
HETATM   31  O   UNL     1      46.416 -11.281   5.740  1.00  0.00    -0.358 OA
HETATM   32  H   UNL     1      46.561 -10.355   5.461  1.00  0.00     0.218 HD
ENDBRANCH  25  31
ENDBRANCH   6  22
BRANCH   1  33
HETATM   33  C   UNL     1      40.487  -9.341   5.228  1.00  0.00     0.155 C 
BRANCH  33  34
HETATM   34  C   UNL     1      39.950  -8.799   6.562  1.00  0.00     0.254 C 
BRANCH  34  35
HETATM   35  N   UNL     1      41.037  -8.537   7.602  1.00  0.00    -0.070 N 
HETATM   36  H   UNL     1      41.874  -9.024   7.250  1.00  0.00     0.279 HD
BRANCH  35  37
HETATM   37  C   UNL     1      40.754  -9.162   8.962  1.00  0.00     0.230 C 
HETATM   38  C   UNL     1      39.322  -9.655   9.060  1.00  0.00     0.034 C 
ENDBRANCH  35  37
BRANCH  35  39
HETATM   39  C   UNL     1      41.447  -7.081   7.758  1.00  0.00     0.230 C 
HETATM   40  C   UNL     1      42.736  -6.947   8.547  1.00  0.00     0.034 C 
ENDBRANCH  35  39
ENDBRANCH  34  35
ENDBRANCH  33  34
ENDBRANCH   1  33
TORSDOF 14
ENDMDL
MODEL 2
REMARK VINA RESULT:      -7.2      3.008      7.559
REMARK  14 active torsions:
REMARK  status: ('A' for Active; 'I' for Inactive)
REMARK    1  A    between atoms: C_2  and  N_3 
REMARK    2  A    between atoms: N_3  and  C_5 
REMARK    3  A    between atoms: N_3  and  C_37 
REMARK    4  A    between atoms: C_5  and  C_6 
REMARK    5  A    between atoms: C_6  and  N_7 
REMARK    6  A    between atoms: C_10  and  O_11 
REMARK    7  A    between atoms: C_12  and  C_13 
REMARK    8  A    between atoms: C_13  and  C_14 
REMARK    9  A    between atoms: C_18  and  O_19 
REMARK   10  A    between atoms: O_19  and  C_20 
REMARK   11  A    between atoms: C_26  and  C_27 
REMARK   12  A    between atoms: C_29  and  O_30 
REMARK   13  A    between atoms: O_30  and  C_31 
REMARK   14  A    between atoms: C_33  and  O_34 
ROOT
HETATM    1  N   UNL     1      40.412 -13.691   1.592  1.00  0.00    -0.332 N 
HETATM    2  C   UNL     1      39.590 -12.898   2.356  1.00  0.00     0.278 C 
HETATM    3  O   UNL     1      38.379 -12.796   2.267  1.00  0.00    -0.265 OA
HETATM    4  C   UNL     1      40.445 -12.145   3.299  1.00  0.00     0.146 C 
HETATM    5  C   UNL     1      41.710 -12.529   3.081  1.00  0.00     0.059 C 
HETATM    6  C   UNL     1      41.792 -13.624   2.049  1.00  0.00     0.161 C 
ENDROOT
BRANCH   5   7
HETATM    7  C   UNL     1      42.996 -12.061   3.642  1.00  0.00     0.193 C 
HETATM    8  O   UNL     1      43.961 -11.918   2.892  1.00  0.00    -0.287 OA
BRANCH   7   9
HETATM    9  C   UNL     1      43.176 -11.769   5.076  1.00  0.00     0.015 A 
HETATM   10  C   UNL     1      42.701 -10.592   5.658  1.00  0.00     0.025 A 
HETATM   11  C   UNL     1      42.967 -10.313   7.008  1.00  0.00    -0.028 A 
HETATM   12  C   UNL     1      42.439  -9.051   7.634  1.00  0.00     0.051 C 
HETATM   13  C   UNL     1      43.778 -11.193   7.746  1.00  0.00     0.075 A 
HETATM   14  C   UNL     1      44.245 -12.373   7.164  1.00  0.00     0.038 A 
HETATM   15  C   UNL     1      43.955 -12.655   5.827  1.00  0.00     0.018 A 
BRANCH  13  16
HETATM   16  O   UNL     1      44.042 -10.845   9.044  1.00  0.00    -0.346 OA
BRANCH  16  17
HETATM   17  C   UNL     1      45.389 -10.448   9.345  1.00  0.00     0.121 C 
HETATM   18  C   UNL     1      45.966  -9.559   8.242  1.00  0.00     0.040 C 
HETATM   19  C   UNL     1      45.326  -9.664  10.655  1.00  0.00     0.040 C 
ENDBRANCH  16  17
ENDBRANCH  13  16
ENDBRANCH   7   9
ENDBRANCH   5   7
BRANCH   4  20
HETATM   20  O   UNL     1      39.949 -11.219   4.162  1.00  0.00    -0.355 OA
HETATM   21  H   UNL     1      40.596 -11.135   4.893  1.00  0.00     0.218 HD
ENDBRANCH   4  20
BRANCH   6  22
HETATM   22  C   UNL     1      42.266 -14.971   2.574  1.00  0.00    -0.028 A 
HETATM   23  C   UNL     1      41.958 -15.342   3.899  1.00  0.00     0.049 A 
HETATM   24  C   UNL     1      42.442 -16.536   4.436  1.00  0.00     0.102 A 
HETATM   25  C   UNL     1      43.227 -17.366   3.631  1.00  0.00     0.099 A 
HETATM   26  C   UNL     1      43.523 -17.037   2.316  1.00  0.00     0.040 A 
HETATM   27  C   UNL     1      43.043 -15.842   1.785  1.00  0.00     0.012 A 
BRANCH  24  28
HETATM   28  O   UNL     1      42.243 -16.989   5.713  1.00  0.00    -0.349 OA
BRANCH  28  29
HETATM   29  C   UNL     1      42.719 -16.164   6.777  1.00  0.00     0.171 C 
HETATM   30  C   UNL     1      44.230 -16.296   6.830  1.00  0.00     0.034 C 
ENDBRANCH  28  29
ENDBRANCH  24  28
BRANCH  25  31
HETATM   31  O   UNL     1      43.727 -18.537   4.128  1.00  0.00    -0.358 OA
HETATM   32  H   UNL     1      42.959 -19.137   4.203  1.00  0.00     0.218 HD
ENDBRANCH  25  31
ENDBRANCH   6  22
BRANCH   1  33
HETATM   33  C   UNL     1      39.917 -14.682   0.650  1.00  0.00     0.155 C 
BRANCH  33  34
HETATM   34  C   UNL     1      39.867 -14.151  -0.791  1.00  0.00     0.254 C 
BRANCH  34  35
HETATM   35  N   UNL     1      38.631 -13.307  -1.092  1.00  0.00    -0.070 N 
HETATM   36  H   UNL     1      37.981 -13.487  -0.314  1.00  0.00     0.279 HD
BRANCH  35  37
HETATM   37  C   UNL     1      37.881 -13.735  -2.347  1.00  0.00     0.230 C 
HETATM   38  C   UNL     1      38.564 -14.907  -3.030  1.00  0.00     0.034 C 
ENDBRANCH  35  37
BRANCH  35  39
HETATM   39  C   UNL     1      38.859 -11.803  -1.094  1.00  0.00     0.230 C 
HETATM   40  C   UNL     1      38.005 -11.113  -2.141  1.00  0.00     0.034 C 
ENDBRANCH  35  39
ENDBRANCH  34  35
ENDBRANCH  33  34
ENDBRANCH   1  33
TORSDOF 14
ENDMDL
MODEL 3
REMARK VINA RESULT:      -7.2      3.142      6.614
REMARK  14 active torsions:
REMARK  status: ('A' for Active; 'I' for Inactive)
REMARK    1  A    between atoms: C_2  and  N_3 
REMARK    2  A    between atoms: N_3  and  C_5 
REMARK    3  A    between atoms: N_3  and  C_37 
REMARK    4  A    between atoms: C_5  and  C_6 
REMARK    5  A    between atoms: C_6  and  N_7 
REMARK    6  A    between atoms: C_10  and  O_11 
REMARK    7  A    between atoms: C_12  and  C_13 
REMARK    8  A    between atoms: C_13  and  C_14 
REMARK    9  A    between atoms: C_18  and  O_19 
REMARK   10  A    between atoms: O_19  and  C_20 
REMARK   11  A    between atoms: C_26  and  C_27 
REMARK   12  A    between atoms: C_29  and  O_30 
REMARK   13  A    between atoms: O_30  and  C_31 
REMARK   14  A    between atoms: C_33  and  O_34 
ROOT
HETATM    1  N   UNL     1      42.927 -14.941   6.158  1.00  0.00    -0.332 N 
HETATM    2  C   UNL     1      41.654 -15.165   6.624  1.00  0.00     0.278 C 
HETATM    3  O   UNL     1      41.282 -16.085   7.329  1.00  0.00    -0.265 OA
HETATM    4  C   UNL     1      40.785 -14.098   6.081  1.00  0.00     0.146 C 
HETATM    5  C   UNL     1      41.563 -13.286   5.352  1.00  0.00     0.059 C 
HETATM    6  C   UNL     1      43.012 -13.689   5.421  1.00  0.00     0.161 C 
ENDROOT
BRANCH   5   7
HETATM    7  C   UNL     1      41.248 -12.118   4.500  1.00  0.00     0.193 C 
HETATM    8  O   UNL     1      41.123 -11.011   5.022  1.00  0.00    -0.287 OA
BRANCH   7   9
HETATM    9  C   UNL     1      41.065 -12.227   3.040  1.00  0.00     0.015 A 
HETATM   10  C   UNL     1      40.726 -13.433   2.423  1.00  0.00     0.025 A 
HETATM   11  C   UNL     1      40.644 -13.512   1.024  1.00  0.00    -0.028 A 
HETATM   12  C   UNL     1      40.264 -14.810   0.366  1.00  0.00     0.051 C 
HETATM   13  C   UNL     1      40.978 -12.387   0.249  1.00  0.00     0.075 A 
HETATM   14  C   UNL     1      41.308 -11.181   0.870  1.00  0.00     0.038 A 
HETATM   15  C   UNL     1      41.364 -11.104   2.263  1.00  0.00     0.018 A 
BRANCH  13  16
HETATM   16  O   UNL     1      40.925 -12.538  -1.111  1.00  0.00    -0.346 OA
BRANCH  16  17
HETATM   17  C   UNL     1      39.989 -11.707  -1.816  1.00  0.00     0.121 C 
HETATM   18  C   UNL     1      40.691 -10.860  -2.879  1.00  0.00     0.040 C 
HETATM   19  C   UNL     1      38.993 -12.651  -2.487  1.00  0.00     0.040 C 
ENDBRANCH  16  17
ENDBRANCH  13  16
ENDBRANCH   7   9
ENDBRANCH   5   7
BRANCH   4  20
HETATM   20  O   UNL     1      39.444 -14.058   6.301  1.00  0.00    -0.355 OA
HETATM   21  H   UNL     1      39.307 -13.561   7.134  1.00  0.00     0.218 HD
ENDBRANCH   4  20
BRANCH   6  22
HETATM   22  C   UNL     1      43.925 -12.695   6.124  1.00  0.00    -0.028 A 
HETATM   23  C   UNL     1      43.667 -12.353   7.468  1.00  0.00     0.049 A 
HETATM   24  C   UNL     1      44.438 -11.389   8.119  1.00  0.00     0.102 A 
HETATM   25  C   UNL     1      45.482 -10.778   7.419  1.00  0.00     0.099 A 
HETATM   26  C   UNL     1      45.774 -11.115   6.104  1.00  0.00     0.040 A 
HETATM   27  C   UNL     1      44.998 -12.074   5.456  1.00  0.00     0.012 A 
BRANCH  24  28
HETATM   28  O   UNL     1      44.267 -10.946   9.404  1.00  0.00    -0.349 OA
BRANCH  28  29
HETATM   29  C   UNL     1      43.233  -9.986   9.627  1.00  0.00     0.171 C 
HETATM   30  C   UNL     1      43.215  -9.656  11.109  1.00  0.00     0.034 C 
ENDBRANCH  28  29
ENDBRANCH  24  28
BRANCH  25  31
HETATM   31  O   UNL     1      46.251  -9.821   8.021  1.00  0.00    -0.358 OA
HETATM   32  H   UNL     1      45.629  -9.283   8.551  1.00  0.00     0.218 HD
ENDBRANCH  25  31
ENDBRANCH   6  22
BRANCH   1  33
HETATM   33  C   UNL     1      44.084 -15.704   6.596  1.00  0.00     0.155 C 
BRANCH  33  34
HETATM   34  C   UNL     1      44.603 -16.661   5.512  1.00  0.00     0.254 C 
BRANCH  34  35
HETATM   35  N   UNL     1      43.587 -17.718   5.087  1.00  0.00    -0.070 N 
HETATM   36  H   UNL     1      42.664 -17.297   5.263  1.00  0.00     0.279 HD
BRANCH  35  37
HETATM   37  C   UNL     1      43.617 -18.982   5.939  1.00  0.00     0.230 C 
HETATM   38  C   UNL     1      44.065 -20.186   5.129  1.00  0.00     0.034 C 
ENDBRANCH  35  37
BRANCH  35  39
HETATM   39  C   UNL     1      43.600 -18.071   3.608  1.00  0.00     0.230 C 
HETATM   40  C   UNL     1      42.962 -16.979   2.770  1.00  0.00     0.034 C 
ENDBRANCH  35  39
ENDBRANCH  34  35
ENDBRANCH  33  34
ENDBRANCH   1  33
TORSDOF 14
ENDMDL
MODEL 4
REMARK VINA RESULT:      -7.1      2.688      7.734
REMARK  14 active torsions:
REMARK  status: ('A' for Active; 'I' for Inactive)
REMARK    1  A    between atoms: C_2  and  N_3 
REMARK    2  A    between atoms: N_3  and  C_5 
REMARK    3  A    between atoms: N_3  and  C_37 
REMARK    4  A    between atoms: C_5  and  C_6 
REMARK    5  A    between atoms: C_6  and  N_7 
REMARK    6  A    between atoms: C_10  and  O_11 
REMARK    7  A    between atoms: C_12  and  C_13 
REMARK    8  A    between atoms: C_13  and  C_14 
REMARK    9  A    between atoms: C_18  and  O_19 
REMARK   10  A    between atoms: O_19  and  C_20 
REMARK   11  A    between atoms: C_26  and  C_27 
REMARK   12  A    between atoms: C_29  and  O_30 
REMARK   13  A    between atoms: O_30  and  C_31 
REMARK   14  A    between atoms: C_33  and  O_34 
ROOT
HETATM    1  N   UNL     1      40.490 -13.581   1.933  1.00  0.00    -0.332 N 
HETATM    2  C   UNL     1      39.645 -12.603   2.401  1.00  0.00     0.278 C 
HETATM    3  O   UNL     1      38.454 -12.493   2.176  1.00  0.00    -0.265 OA
HETATM    4  C   UNL     1      40.453 -11.666   3.211  1.00  0.00     0.146 C 
HETATM    5  C   UNL     1      41.711 -12.127   3.213  1.00  0.00     0.059 C 
HETATM    6  C   UNL     1      41.827 -13.442   2.489  1.00  0.00     0.161 C 
ENDROOT
BRANCH   5   7
HETATM    7  C   UNL     1      42.967 -11.571   3.765  1.00  0.00     0.193 C 
HETATM    8  O   UNL     1      43.863 -11.231   2.993  1.00  0.00    -0.287 OA
BRANCH   7   9
HETATM    9  C   UNL     1      43.197 -11.417   5.214  1.00  0.00     0.015 A 
HETATM   10  C   UNL     1      42.482 -10.497   5.984  1.00  0.00     0.025 A 
HETATM   11  C   UNL     1      42.790 -10.322   7.343  1.00  0.00    -0.028 A 
HETATM   12  C   UNL     1      42.006  -9.342   8.171  1.00  0.00     0.051 C 
HETATM   13  C   UNL     1      43.873 -11.026   7.899  1.00  0.00     0.075 A 
HETATM   14  C   UNL     1      44.580 -11.950   7.128  1.00  0.00     0.038 A 
HETATM   15  C   UNL     1      44.251 -12.136   5.784  1.00  0.00     0.018 A 
BRANCH  13  16
HETATM   16  O   UNL     1      44.156 -10.779   9.216  1.00  0.00    -0.346 OA
BRANCH  16  17
HETATM   17  C   UNL     1      45.412 -10.142   9.499  1.00  0.00     0.121 C 
HETATM   18  C   UNL     1      45.656  -8.956   8.564  1.00  0.00     0.040 C 
HETATM   19  C   UNL     1      45.332  -9.650  10.943  1.00  0.00     0.040 C 
ENDBRANCH  16  17
ENDBRANCH  13  16
ENDBRANCH   7   9
ENDBRANCH   5   7
BRANCH   4  20
HETATM   20  O   UNL     1      39.932 -10.544   3.774  1.00  0.00    -0.355 OA
HETATM   21  H   UNL     1      40.306 -10.478   4.678  1.00  0.00     0.218 HD
ENDBRANCH   4  20
BRANCH   6  22
HETATM   22  C   UNL     1      42.187 -14.632   3.365  1.00  0.00    -0.028 A 
HETATM   23  C   UNL     1      42.899 -15.712   2.802  1.00  0.00     0.049 A 
HETATM   24  C   UNL     1      43.179 -16.852   3.557  1.00  0.00     0.102 A 
HETATM   25  C   UNL     1      42.755 -16.899   4.887  1.00  0.00     0.099 A 
HETATM   26  C   UNL     1      42.076 -15.839   5.473  1.00  0.00     0.040 A 
HETATM   27  C   UNL     1      41.793 -14.705   4.715  1.00  0.00     0.012 A 
BRANCH  24  28
HETATM   28  O   UNL     1      43.828 -17.976   3.117  1.00  0.00    -0.349 OA
BRANCH  28  29
HETATM   29  C   UNL     1      43.119 -18.822   2.211  1.00  0.00     0.171 C 
HETATM   30  C   UNL     1      43.690 -20.224   2.338  1.00  0.00     0.034 C 
ENDBRANCH  28  29
ENDBRANCH  24  28
BRANCH  25  31
HETATM   31  O   UNL     1      43.002 -18.004   5.653  1.00  0.00    -0.358 OA
HETATM   32  H   UNL     1      43.946 -17.944   5.901  1.00  0.00     0.218 HD
ENDBRANCH  25  31
ENDBRANCH   6  22
BRANCH   1  33
HETATM   33  C   UNL     1      40.028 -14.758   1.215  1.00  0.00     0.155 C 
BRANCH  33  34
HETATM   34  C   UNL     1      40.085 -14.578  -0.310  1.00  0.00     0.254 C 
BRANCH  34  35
HETATM   35  N   UNL     1      39.637 -13.196  -0.782  1.00  0.00    -0.070 N 
HETATM   36  H   UNL     1      39.410 -12.674   0.076  1.00  0.00     0.279 HD
BRANCH  35  37
HETATM   37  C   UNL     1      38.348 -13.208  -1.595  1.00  0.00     0.230 C 
HETATM   38  C   UNL     1      37.597 -11.896  -1.463  1.00  0.00     0.034 C 
ENDBRANCH  35  37
BRANCH  35  39
HETATM   39  C   UNL     1      40.706 -12.377  -1.489  1.00  0.00     0.230 C 
HETATM   40  C   UNL     1      41.110 -11.165  -0.668  1.00  0.00     0.034 C 
ENDBRANCH  35  39
ENDBRANCH  34  35
ENDBRANCH  33  34
ENDBRANCH   1  33
TORSDOF 14
ENDMDL
MODEL 5
REMARK VINA RESULT:      -6.9      1.581      2.240
REMARK  14 active torsions:
REMARK  status: ('A' for Active; 'I' for Inactive)
REMARK    1  A    between atoms: C_2  and  N_3 
REMARK    2  A    between atoms: N_3  and  C_5 
REMARK    3  A    between atoms: N_3  and  C_37 
REMARK    4  A    between atoms: C_5  and  C_6 
REMARK    5  A    between atoms: C_6  and  N_7 
REMARK    6  A    between atoms: C_10  and  O_11 
REMARK    7  A    between atoms: C_12  and  C_13 
REMARK    8  A    between atoms: C_13  and  C_14 
REMARK    9  A    between atoms: C_18  and  O_19 
REMARK   10  A    between atoms: O_19  and  C_20 
REMARK   11  A    between atoms: C_26  and  C_27 
REMARK   12  A    between atoms: C_29  and  O_30 
REMARK   13  A    between atoms: O_30  and  C_31 
REMARK   14  A    between atoms: C_33  and  O_34 
ROOT
HETATM    1  N   UNL     1      40.796 -10.193   4.595  1.00  0.00    -0.332 N 
HETATM    2  C   UNL     1      40.199 -10.670   3.452  1.00  0.00     0.278 C 
HETATM    3  O   UNL     1      39.853 -10.024   2.480  1.00  0.00    -0.265 OA
HETATM    4  C   UNL     1      40.009 -12.128   3.623  1.00  0.00     0.146 C 
HETATM    5  C   UNL     1      40.511 -12.455   4.821  1.00  0.00     0.059 C 
HETATM    6  C   UNL     1      41.151 -11.274   5.501  1.00  0.00     0.161 C 
ENDROOT
BRANCH   5   7
HETATM    7  C   UNL     1      40.521 -13.729   5.574  1.00  0.00     0.193 C 
HETATM    8  O   UNL     1      39.759 -13.867   6.530  1.00  0.00    -0.287 OA
BRANCH   7   9
HETATM    9  C   UNL     1      41.422 -14.846   5.232  1.00  0.00     0.015 A 
HETATM   10  C   UNL     1      42.607 -15.084   5.932  1.00  0.00     0.025 A 
HETATM   11  C   UNL     1      43.478 -16.106   5.521  1.00  0.00    -0.028 A 
HETATM   12  C   UNL     1      44.744 -16.368   6.288  1.00  0.00     0.051 C 
HETATM   13  C   UNL     1      43.182 -16.835   4.355  1.00  0.00     0.075 A 
HETATM   14  C   UNL     1      41.993 -16.599   3.663  1.00  0.00     0.038 A 
HETATM   15  C   UNL     1      41.120 -15.598   4.093  1.00  0.00     0.018 A 
BRANCH  13  16
HETATM   16  O   UNL     1      44.091 -17.787   3.978  1.00  0.00    -0.346 OA
BRANCH  16  17
HETATM   17  C   UNL     1      43.609 -19.137   3.879  1.00  0.00     0.121 C 
HETATM   18  C   UNL     1      43.887 -19.727   2.495  1.00  0.00     0.040 C 
HETATM   19  C   UNL     1      44.358 -19.942   4.940  1.00  0.00     0.040 C 
ENDBRANCH  16  17
ENDBRANCH  13  16
ENDBRANCH   7   9
ENDBRANCH   5   7
BRANCH   4  20
HETATM   20  O   UNL     1      39.386 -12.901   2.694  1.00  0.00    -0.355 OA
HETATM   21  H   UNL     1      39.864 -13.756   2.668  1.00  0.00     0.218 HD
ENDBRANCH   4  20
BRANCH   6  22
HETATM   22  C   UNL     1      42.659 -11.371   5.681  1.00  0.00    -0.028 A 
HETATM   23  C   UNL     1      43.209 -11.237   6.973  1.00  0.00     0.049 A 
HETATM   24  C   UNL     1      44.592 -11.246   7.163  1.00  0.00     0.102 A 
HETATM   25  C   UNL     1      45.422 -11.404   6.051  1.00  0.00     0.099 A 
HETATM   26  C   UNL     1      44.906 -11.564   4.773  1.00  0.00     0.040 A 
HETATM   27  C   UNL     1      43.526 -11.549   4.586  1.00  0.00     0.012 A 
BRANCH  24  28
HETATM   28  O   UNL     1      45.246 -11.090   8.357  1.00  0.00    -0.349 OA
BRANCH  28  29
HETATM   29  C   UNL     1      45.255  -9.781   8.927  1.00  0.00     0.171 C 
HETATM   30  C   UNL     1      45.259  -9.930  10.438  1.00  0.00     0.034 C 
ENDBRANCH  28  29
ENDBRANCH  24  28
BRANCH  25  31
HETATM   31  O   UNL     1      46.782 -11.405   6.199  1.00  0.00    -0.358 OA
HETATM   32  H   UNL     1      46.939 -11.377   7.163  1.00  0.00     0.218 HD
ENDBRANCH  25  31
ENDBRANCH   6  22
BRANCH   1  33
HETATM   33  C   UNL     1      41.269  -8.826   4.737  1.00  0.00     0.155 C 
BRANCH  33  34
HETATM   34  C   UNL     1      40.248  -7.920   5.444  1.00  0.00     0.254 C 
BRANCH  34  35
HETATM   35  N   UNL     1      39.691  -6.812   4.554  1.00  0.00    -0.070 N 
HETATM   36  H   UNL     1      39.826  -5.940   5.086  1.00  0.00     0.279 HD
BRANCH  35  37
HETATM   37  C   UNL     1      38.189  -6.906   4.317  1.00  0.00     0.230 C 
HETATM   38  C   UNL     1      37.633  -8.234   4.797  1.00  0.00     0.034 C 
ENDBRANCH  35  37
BRANCH  35  39
HETATM   39  C   UNL     1      40.427  -6.606   3.239  1.00  0.00     0.230 C 
HETATM   40  C   UNL     1      41.148  -5.271   3.208  1.00  0.00     0.034 C 
ENDBRANCH  35  39
ENDBRANCH  34  35
ENDBRANCH  33  34
ENDBRANCH   1  33
TORSDOF 14
ENDMDL
MODEL 6
REMARK VINA RESULT:      -6.9      3.081      6.609
REMARK  14 active torsions:
REMARK  status: ('A' for Active; 'I' for Inactive)
REMARK    1  A    between atoms: C_2  and  N_3 
REMARK    2  A    between atoms: N_3  and  C_5 
REMARK    3  A    between atoms: N_3  and  C_37 
REMARK    4  A    between atoms: C_5  and  C_6 
REMARK    5  A    between atoms: C_6  and  N_7 
REMARK    6  A    between atoms: C_10  and  O_11 
REMARK    7  A    between atoms: C_12  and  C_13 
REMARK    8  A    between atoms: C_13  and  C_14 
REMARK    9  A    between atoms: C_18  and  O_19 
REMARK   10  A    between atoms: O_19  and  C_20 
REMARK   11  A    between atoms: C_26  and  C_27 
REMARK   12  A    between atoms: C_29  and  O_30 
REMARK   13  A    between atoms: O_30  and  C_31 
REMARK   14  A    between atoms: C_33  and  O_34 
ROOT
HETATM    1  N   UNL     1      41.791 -14.483   5.679  1.00  0.00    -0.332 N 
HETATM    2  C   UNL     1      40.545 -14.356   6.245  1.00  0.00     0.278 C 
HETATM    3  O   UNL     1      39.997 -15.141   6.997  1.00  0.00    -0.265 OA
HETATM    4  C   UNL     1      39.954 -13.095   5.746  1.00  0.00     0.146 C 
HETATM    5  C   UNL     1      40.860 -12.523   4.941  1.00  0.00     0.059 C 
HETATM    6  C   UNL     1      42.150 -13.301   4.910  1.00  0.00     0.161 C 
ENDROOT
BRANCH   5   7
HETATM    7  C   UNL     1      40.803 -11.315   4.089  1.00  0.00     0.193 C 
HETATM    8  O   UNL     1      40.890 -10.206   4.616  1.00  0.00    -0.287 OA
BRANCH   7   9
HETATM    9  C   UNL     1      40.634 -11.383   2.626  1.00  0.00     0.015 A 
HETATM   10  C   UNL     1      41.303 -10.513   1.762  1.00  0.00     0.025 A 
HETATM   11  C   UNL     1      41.050 -10.556   0.381  1.00  0.00    -0.028 A 
HETATM   12  C   UNL     1      41.784  -9.627  -0.547  1.00  0.00     0.051 C 
HETATM   13  C   UNL     1      40.064 -11.429  -0.112  1.00  0.00     0.075 A 
HETATM   14  C   UNL     1      39.404 -12.303   0.755  1.00  0.00     0.038 A 
HETATM   15  C   UNL     1      39.680 -12.271   2.123  1.00  0.00     0.018 A 
BRANCH  13  16
HETATM   16  O   UNL     1      39.828 -11.394  -1.460  1.00  0.00    -0.346 OA
BRANCH  16  17
HETATM   17  C   UNL     1      40.056 -12.611  -2.188  1.00  0.00     0.121 C 
HETATM   18  C   UNL     1      38.822 -13.015  -2.996  1.00  0.00     0.040 C 
HETATM   19  C   UNL     1      41.223 -12.337  -3.134  1.00  0.00     0.040 C 
ENDBRANCH  16  17
ENDBRANCH  13  16
ENDBRANCH   7   9
ENDBRANCH   5   7
BRANCH   4  20
HETATM   20  O   UNL     1      38.695 -12.696   6.067  1.00  0.00    -0.355 OA
HETATM   21  H   UNL     1      38.093 -13.083   5.397  1.00  0.00     0.218 HD
ENDBRANCH   4  20
BRANCH   6  22
HETATM   22  C   UNL     1      43.348 -12.588   5.518  1.00  0.00    -0.028 A 
HETATM   23  C   UNL     1      43.401 -12.399   6.915  1.00  0.00     0.049 A 
HETATM   24  C   UNL     1      44.448 -11.683   7.498  1.00  0.00     0.102 A 
HETATM   25  C   UNL     1      45.452 -11.170   6.673  1.00  0.00     0.099 A 
HETATM   26  C   UNL     1      45.438 -11.364   5.299  1.00  0.00     0.040 A 
HETATM   27  C   UNL     1      44.388 -12.074   4.720  1.00  0.00     0.012 A 
BRANCH  24  28
HETATM   28  O   UNL     1      44.594 -11.402   8.831  1.00  0.00    -0.349 OA
BRANCH  28  29
HETATM   29  C   UNL     1      43.755 -10.383   9.375  1.00  0.00     0.171 C 
HETATM   30  C   UNL     1      43.815 -10.487  10.889  1.00  0.00     0.034 C 
ENDBRANCH  28  29
ENDBRANCH  24  28
BRANCH  25  31
HETATM   31  O   UNL     1      46.487 -10.454   7.209  1.00  0.00    -0.358 OA
HETATM   32  H   UNL     1      46.114 -10.004   7.993  1.00  0.00     0.218 HD
ENDBRANCH  25  31
ENDBRANCH   6  22
BRANCH   1  33
HETATM   33  C   UNL     1      42.732 -15.528   6.045  1.00  0.00     0.155 C 
BRANCH  33  34
HETATM   34  C   UNL     1      42.529 -16.815   5.230  1.00  0.00     0.254 C 
BRANCH  34  35
HETATM   35  N   UNL     1      43.563 -17.012   4.124  1.00  0.00    -0.070 N 
HETATM   36  H   UNL     1      44.305 -16.325   4.318  1.00  0.00     0.279 HD
BRANCH  35  37
HETATM   37  C   UNL     1      43.052 -16.664   2.731  1.00  0.00     0.230 C 
HETATM   38  C   UNL     1      41.546 -16.471   2.725  1.00  0.00     0.034 C 
ENDBRANCH  35  37
BRANCH  35  39
HETATM   39  C   UNL     1      44.252 -18.367   4.116  1.00  0.00     0.230 C 
HETATM   40  C   UNL     1      43.869 -19.179   2.892  1.00  0.00     0.034 C 
ENDBRANCH  35  39
ENDBRANCH  34  35
ENDBRANCH  33  34
ENDBRANCH   1  33
TORSDOF 14
ENDMDL
MODEL 7
REMARK VINA RESULT:      -6.9      3.586      7.164
REMARK  14 active torsions:
REMARK  status: ('A' for Active; 'I' for Inactive)
REMARK    1  A    between atoms: C_2  and  N_3 
REMARK    2  A    between atoms: N_3  and  C_5 
REMARK    3  A    between atoms: N_3  and  C_37 
REMARK    4  A    between atoms: C_5  and  C_6 
REMARK    5  A    between atoms: C_6  and  N_7 
REMARK    6  A    between atoms: C_10  and  O_11 
REMARK    7  A    between atoms: C_12  and  C_13 
REMARK    8  A    between atoms: C_13  and  C_14 
REMARK    9  A    between atoms: C_18  and  O_19 
REMARK   10  A    between atoms: O_19  and  C_20 
REMARK   11  A    between atoms: C_26  and  C_27 
REMARK   12  A    between atoms: C_29  and  O_30 
REMARK   13  A    between atoms: O_30  and  C_31 
REMARK   14  A    between atoms: C_33  and  O_34 
ROOT
HETATM    1  N   UNL     1      41.945 -15.418   5.331  1.00  0.00    -0.332 N 
HETATM    2  C   UNL     1      40.752 -15.986   4.953  1.00  0.00     0.278 C 
HETATM    3  O   UNL     1      40.100 -16.807   5.573  1.00  0.00    -0.265 OA
HETATM    4  C   UNL     1      40.406 -15.450   3.618  1.00  0.00     0.146 C 
HETATM    5  C   UNL     1      41.371 -14.586   3.276  1.00  0.00     0.059 C 
HETATM    6  C   UNL     1      42.380 -14.408   4.379  1.00  0.00     0.161 C 
ENDROOT
BRANCH   5   7
HETATM    7  C   UNL     1      41.618 -13.822   2.033  1.00  0.00     0.193 C 
HETATM    8  O   UNL     1      42.760 -13.435   1.784  1.00  0.00    -0.287 OA
BRANCH   7   9
HETATM    9  C   UNL     1      40.544 -13.490   1.078  1.00  0.00     0.015 A 
HETATM   10  C   UNL     1      40.338 -14.227  -0.090  1.00  0.00     0.025 A 
HETATM   11  C   UNL     1      39.359 -13.827  -1.014  1.00  0.00    -0.028 A 
HETATM   12  C   UNL     1      39.131 -14.633  -2.264  1.00  0.00     0.051 C 
HETATM   13  C   UNL     1      38.642 -12.639  -0.787  1.00  0.00     0.075 A 
HETATM   14  C   UNL     1      38.845 -11.911   0.386  1.00  0.00     0.038 A 
HETATM   15  C   UNL     1      39.804 -12.328   1.312  1.00  0.00     0.018 A 
BRANCH  13  16
HETATM   16  O   UNL     1      37.734 -12.276  -1.745  1.00  0.00    -0.346 OA
BRANCH  16  17
HETATM   17  C   UNL     1      37.835 -10.937  -2.256  1.00  0.00     0.121 C 
HETATM   18  C   UNL     1      39.043 -10.785  -3.181  1.00  0.00     0.040 C 
HETATM   19  C   UNL     1      36.551 -10.676  -3.042  1.00  0.00     0.040 C 
ENDBRANCH  16  17
ENDBRANCH  13  16
ENDBRANCH   7   9
ENDBRANCH   5   7
BRANCH   4  20
HETATM   20  O   UNL     1      39.309 -15.855   2.925  1.00  0.00    -0.355 OA
HETATM   21  H   UNL     1      38.952 -16.641   3.389  1.00  0.00     0.218 HD
ENDBRANCH   4  20
BRANCH   6  22
HETATM   22  C   UNL     1      42.408 -13.026   5.014  1.00  0.00    -0.028 A 
HETATM   23  C   UNL     1      43.648 -12.455   5.368  1.00  0.00     0.049 A 
HETATM   24  C   UNL     1      43.705 -11.222   6.020  1.00  0.00     0.102 A 
HETATM   25  C   UNL     1      42.510 -10.556   6.304  1.00  0.00     0.099 A 
HETATM   26  C   UNL     1      41.278 -11.083   5.942  1.00  0.00     0.040 A 
HETATM   27  C   UNL     1      41.225 -12.317   5.296  1.00  0.00     0.012 A 
BRANCH  24  28
HETATM   28  O   UNL     1      44.839 -10.582   6.446  1.00  0.00    -0.349 OA
BRANCH  28  29
HETATM   29  C   UNL     1      45.595 -11.218   7.477  1.00  0.00     0.171 C 
HETATM   30  C   UNL     1      45.464 -10.379   8.736  1.00  0.00     0.034 C 
ENDBRANCH  28  29
ENDBRANCH  24  28
BRANCH  25  31
HETATM   31  O   UNL     1      42.527  -9.352   6.952  1.00  0.00    -0.358 OA
HETATM   32  H   UNL     1      41.644  -8.961   6.799  1.00  0.00     0.218 HD
ENDBRANCH  25  31
ENDBRANCH   6  22
BRANCH   1  33
HETATM   33  C   UNL     1      42.531 -15.597   6.650  1.00  0.00     0.155 C 
BRANCH  33  34
HETATM   34  C   UNL     1      43.674 -16.624   6.652  1.00  0.00     0.254 C 
BRANCH  34  35
HETATM   35  N   UNL     1      43.403 -17.847   5.778  1.00  0.00    -0.070 N 
HETATM   36  H   UNL     1      42.452 -17.712   5.407  1.00  0.00     0.279 HD
BRANCH  35  37
HETATM   37  C   UNL     1      43.347 -19.159   6.551  1.00  0.00     0.230 C 
HETATM   38  C   UNL     1      43.823 -20.324   5.702  1.00  0.00     0.034 C 
ENDBRANCH  35  37
BRANCH  35  39
HETATM   39  C   UNL     1      44.301 -17.984   4.559  1.00  0.00     0.230 C 
HETATM   40  C   UNL     1      43.520 -17.810   3.270  1.00  0.00     0.034 C 
ENDBRANCH  35  39
ENDBRANCH  34  35
ENDBRANCH  33  34
ENDBRANCH   1  33
TORSDOF 14
ENDMDL
MODEL 8
REMARK VINA RESULT:      -6.7      1.360      2.018
REMARK  14 active torsions:
REMARK  status: ('A' for Active; 'I' for Inactive)
REMARK    1  A    between atoms: C_2  and  N_3 
REMARK    2  A    between atoms: N_3  and  C_5 
REMARK    3  A    between atoms: N_3  and  C_37 
REMARK    4  A    between atoms: C_5  and  C_6 
REMARK    5  A    between atoms: C_6  and  N_7 
REMARK    6  A    between atoms: C_10  and  O_11 
REMARK    7  A    between atoms: C_12  and  C_13 
REMARK    8  A    between atoms: C_13  and  C_14 
REMARK    9  A    between atoms: C_18  and  O_19 
REMARK   10  A    between atoms: O_19  and  C_20 
REMARK   11  A    between atoms: C_26  and  C_27 
REMARK   12  A    between atoms: C_29  and  O_30 
REMARK   13  A    between atoms: O_30  and  C_31 
REMARK   14  A    between atoms: C_33  and  O_34 
ROOT
HETATM    1  N   UNL     1      40.830  -9.029   5.628  1.00  0.00    -0.332 N 
HETATM    2  C   UNL     1      40.070  -9.067   4.484  1.00  0.00     0.278 C 
HETATM    3  O   UNL     1      39.780  -8.128   3.764  1.00  0.00    -0.265 OA
HETATM    4  C   UNL     1      39.622 -10.463   4.291  1.00  0.00     0.146 C 
HETATM    5  C   UNL     1      40.143 -11.188   5.291  1.00  0.00     0.059 C 
HETATM    6  C   UNL     1      41.043 -10.362   6.171  1.00  0.00     0.161 C 
ENDROOT
BRANCH   5   7
HETATM    7  C   UNL     1      39.970 -12.606   5.678  1.00  0.00     0.193 C 
HETATM    8  O   UNL     1      39.021 -12.920   6.395  1.00  0.00    -0.287 OA
BRANCH   7   9
HETATM    9  C   UNL     1      40.902 -13.665   5.248  1.00  0.00     0.015 A 
HETATM   10  C   UNL     1      41.922 -14.136   6.077  1.00  0.00     0.025 A 
HETATM   11  C   UNL     1      42.839 -15.086   5.599  1.00  0.00    -0.028 A 
HETATM   12  C   UNL     1      43.926 -15.602   6.501  1.00  0.00     0.051 C 
HETATM   13  C   UNL     1      42.766 -15.499   4.257  1.00  0.00     0.075 A 
HETATM   14  C   UNL     1      41.740 -15.032   3.434  1.00  0.00     0.038 A 
HETATM   15  C   UNL     1      40.816 -14.106   3.925  1.00  0.00     0.018 A 
BRANCH  13  16
HETATM   16  O   UNL     1      43.715 -16.391   3.835  1.00  0.00    -0.346 OA
BRANCH  16  17
HETATM   17  C   UNL     1      43.314 -17.768   3.747  1.00  0.00     0.121 C 
HETATM   18  C   UNL     1      43.116 -18.197   2.292  1.00  0.00     0.040 C 
HETATM   19  C   UNL     1      44.440 -18.587   4.375  1.00  0.00     0.040 C 
ENDBRANCH  16  17
ENDBRANCH  13  16
ENDBRANCH   7   9
ENDBRANCH   5   7
BRANCH   4  20
HETATM   20  O   UNL     1      38.797 -10.837   3.278  1.00  0.00    -0.355 OA
HETATM   21  H   UNL     1      38.240 -10.061   3.062  1.00  0.00     0.218 HD
ENDBRANCH   4  20
BRANCH   6  22
HETATM   22  C   UNL     1      42.515 -10.746   6.131  1.00  0.00    -0.028 A 
HETATM   23  C   UNL     1      43.245 -10.803   7.337  1.00  0.00     0.049 A 
HETATM   24  C   UNL     1      44.613 -11.077   7.329  1.00  0.00     0.102 A 
HETATM   25  C   UNL     1      45.245 -11.309   6.105  1.00  0.00     0.099 A 
HETATM   26  C   UNL     1      44.545 -11.285   4.907  1.00  0.00     0.040 A 
HETATM   27  C   UNL     1      43.181 -11.005   4.918  1.00  0.00     0.012 A 
BRANCH  24  28
HETATM   28  O   UNL     1      45.436 -11.125   8.423  1.00  0.00    -0.349 OA
BRANCH  28  29
HETATM   29  C   UNL     1      45.443  -9.984   9.281  1.00  0.00     0.171 C 
HETATM   30  C   UNL     1      45.815  -8.773   8.444  1.00  0.00     0.034 C 
ENDBRANCH  28  29
ENDBRANCH  24  28
BRANCH  25  31
HETATM   31  O   UNL     1      46.587 -11.570   6.058  1.00  0.00    -0.358 OA
HETATM   32  H   UNL     1      47.000 -10.751   5.719  1.00  0.00     0.218 HD
ENDBRANCH  25  31
ENDBRANCH   6  22
BRANCH   1  33
HETATM   33  C   UNL     1      41.561  -7.850   6.063  1.00  0.00     0.155 C 
BRANCH  33  34
HETATM   34  C   UNL     1      40.875  -7.130   7.235  1.00  0.00     0.254 C 
BRANCH  34  35
HETATM   35  N   UNL     1      41.816  -6.805   8.392  1.00  0.00    -0.070 N 
HETATM   36  H   UNL     1      42.695  -6.497   7.952  1.00  0.00     0.279 HD
BRANCH  35  37
HETATM   37  C   UNL     1      42.197  -8.015   9.237  1.00  0.00     0.230 C 
HETATM   38  C   UNL     1      40.969  -8.791   9.681  1.00  0.00     0.034 C 
ENDBRANCH  35  37
BRANCH  35  39
HETATM   39  C   UNL     1      41.377  -5.652   9.280  1.00  0.00     0.230 C 
HETATM   40  C   UNL     1      42.484  -5.225  10.226  1.00  0.00     0.034 C 
ENDBRANCH  35  39
ENDBRANCH  34  35
ENDBRANCH  33  34
ENDBRANCH   1  33
TORSDOF 14
ENDMDL
MODEL 9
REMARK VINA RESULT:      -6.6      3.086      5.841
REMARK  14 active torsions:
REMARK  status: ('A' for Active; 'I' for Inactive)
REMARK    1  A    between atoms: C_2  and  N_3 
REMARK    2  A    between atoms: N_3  and  C_5 
REMARK    3  A    between atoms: N_3  and  C_37 
REMARK    4  A    between atoms: C_5  and  C_6 
REMARK    5  A    between atoms: C_6  and  N_7 
REMARK    6  A    between atoms: C_10  and  O_11 
REMARK    7  A    between atoms: C_12  and  C_13 
REMARK    8  A    between atoms: C_13  and  C_14 
REMARK    9  A    between atoms: C_18  and  O_19 
REMARK   10  A    between atoms: O_19  and  C_20 
REMARK   11  A    between atoms: C_26  and  C_27 
REMARK   12  A    between atoms: C_29  and  O_30 
REMARK   13  A    between atoms: O_30  and  C_31 
REMARK   14  A    between atoms: C_33  and  O_34 
ROOT
HETATM    1  N   UNL     1      40.553  -9.458   4.070  1.00  0.00    -0.332 N 
HETATM    2  C   UNL     1      40.433  -9.679   5.421  1.00  0.00     0.278 C 
HETATM    3  O   UNL     1      39.629  -9.168   6.179  1.00  0.00    -0.265 OA
HETATM    4  C   UNL     1      41.492 -10.634   5.813  1.00  0.00     0.146 C 
HETATM    5  C   UNL     1      42.168 -10.955   4.702  1.00  0.00     0.059 C 
HETATM    6  C   UNL     1      41.566 -10.318   3.477  1.00  0.00     0.161 C 
ENDROOT
BRANCH   5   7
HETATM    7  C   UNL     1      43.378 -11.779   4.484  1.00  0.00     0.193 C 
HETATM    8  O   UNL     1      44.479 -11.230   4.451  1.00  0.00    -0.287 OA
BRANCH   7   9
HETATM    9  C   UNL     1      43.318 -13.239   4.292  1.00  0.00     0.015 A 
HETATM   10  C   UNL     1      43.293 -13.820   3.022  1.00  0.00     0.025 A 
HETATM   11  C   UNL     1      43.151 -15.210   2.883  1.00  0.00    -0.028 A 
HETATM   12  C   UNL     1      43.139 -15.831   1.513  1.00  0.00     0.051 C 
HETATM   13  C   UNL     1      42.961 -16.001   4.029  1.00  0.00     0.075 A 
HETATM   14  C   UNL     1      42.995 -15.418   5.297  1.00  0.00     0.038 A 
HETATM   15  C   UNL     1      43.161 -14.038   5.429  1.00  0.00     0.018 A 
BRANCH  13  16
HETATM   16  O   UNL     1      42.782 -17.343   3.828  1.00  0.00    -0.346 OA
BRANCH  16  17
HETATM   17  C   UNL     1      43.932 -18.184   4.015  1.00  0.00     0.121 C 
HETATM   18  C   UNL     1      43.855 -18.945   5.339  1.00  0.00     0.040 C 
HETATM   19  C   UNL     1      43.937 -19.175   2.853  1.00  0.00     0.040 C 
ENDBRANCH  16  17
ENDBRANCH  13  16
ENDBRANCH   7   9
ENDBRANCH   5   7
BRANCH   4  20
HETATM   20  O   UNL     1      41.692 -11.021   7.101  1.00  0.00    -0.355 OA
HETATM   21  H   UNL     1      41.404 -10.277   7.671  1.00  0.00     0.218 HD
ENDBRANCH   4  20
BRANCH   6  22
HETATM   22  C   UNL     1      40.952 -11.289   2.481  1.00  0.00    -0.028 A 
HETATM   23  C   UNL     1      41.246 -11.146   1.108  1.00  0.00     0.049 A 
HETATM   24  C   UNL     1      40.641 -11.972   0.160  1.00  0.00     0.102 A 
HETATM   25  C   UNL     1      39.747 -12.954   0.596  1.00  0.00     0.099 A 
HETATM   26  C   UNL     1      39.460 -13.133   1.942  1.00  0.00     0.040 A 
HETATM   27  C   UNL     1      40.062 -12.303   2.885  1.00  0.00     0.012 A 
BRANCH  24  28
HETATM   28  O   UNL     1      40.816 -11.911  -1.197  1.00  0.00    -0.349 OA
BRANCH  28  29
HETATM   29  C   UNL     1      40.357 -10.731  -1.859  1.00  0.00     0.171 C 
HETATM   30  C   UNL     1      39.106 -11.091  -2.640  1.00  0.00     0.034 C 
ENDBRANCH  28  29
ENDBRANCH  24  28
BRANCH  25  31
HETATM   31  O   UNL     1      39.127 -13.773  -0.307  1.00  0.00    -0.358 OA
HETATM   32  H   UNL     1      38.751 -14.505   0.221  1.00  0.00     0.218 HD
ENDBRANCH  25  31
ENDBRANCH   6  22
BRANCH   1  33
HETATM   33  C   UNL     1      39.595  -8.683   3.298  1.00  0.00     0.155 C 
BRANCH  33  34
HETATM   34  C   UNL     1      38.169  -9.251   3.391  1.00  0.00     0.254 C 
BRANCH  34  35
HETATM   35  N   UNL     1      37.272  -8.850   2.222  1.00  0.00    -0.070 N 
HETATM   36  H   UNL     1      36.334  -9.198   2.466  1.00  0.00     0.279 HD
BRANCH  35  37
HETATM   37  C   UNL     1      37.624  -9.537   0.909  1.00  0.00     0.230 C 
HETATM   38  C   UNL     1      36.839 -10.824   0.727  1.00  0.00     0.034 C 
ENDBRANCH  35  37
BRANCH  35  39
HETATM   39  C   UNL     1      37.110  -7.352   2.014  1.00  0.00     0.230 C 
HETATM   40  C   UNL     1      35.667  -6.919   2.192  1.00  0.00     0.034 C 
ENDBRANCH  35  39
ENDBRANCH  34  35
ENDBRANCH  33  34
ENDBRANCH   1  33
TORSDOF 14
ENDMDL
MODEL 10
REMARK VINA RESULT:      -6.6      2.695      5.690
REMARK  14 active torsions:
REMARK  status: ('A' for Active; 'I' for Inactive)
REMARK    1  A    between atoms: C_2  and  N_3 
REMARK    2  A    between atoms: N_3  and  C_5 
REMARK    3  A    between atoms: N_3  and  C_37 
REMARK    4  A    between atoms: C_5  and  C_6 
REMARK    5  A    between atoms: C_6  and  N_7 
REMARK    6  A    between atoms: C_10  and  O_11 
REMARK    7  A    between atoms: C_12  and  C_13 
REMARK    8  A    between atoms: C_13  and  C_14 
REMARK    9  A    between atoms: C_18  and  O_19 
REMARK   10  A    between atoms: O_19  and  C_20 
REMARK   11  A    between atoms: C_26  and  C_27 
REMARK   12  A    between atoms: C_29  and  O_30 
REMARK   13  A    between atoms: O_30  and  C_31 
REMARK   14  A    between atoms: C_33  and  O_34 
ROOT
HETATM    1  N   UNL     1      42.268  -8.378   9.719  1.00  0.00    -0.332 N 
HETATM    2  C   UNL     1      42.410  -9.441  10.578  1.00  0.00     0.278 C 
HETATM    3  O   UNL     1      41.933  -9.553  11.693  1.00  0.00    -0.265 OA
HETATM    4  C   UNL     1      43.289 -10.432   9.920  1.00  0.00     0.146 C 
HETATM    5  C   UNL     1      43.607  -9.942   8.715  1.00  0.00     0.059 C 
HETATM    6  C   UNL     1      42.902  -8.641   8.436  1.00  0.00     0.161 C 
ENDROOT
BRANCH   5   7
HETATM    7  C   UNL     1      44.520 -10.431   7.658  1.00  0.00     0.193 C 
HETATM    8  O   UNL     1      45.656  -9.962   7.583  1.00  0.00    -0.287 OA
BRANCH   7   9
HETATM    9  C   UNL     1      44.121 -11.456   6.676  1.00  0.00     0.015 A 
HETATM   10  C   UNL     1      43.794 -11.131   5.357  1.00  0.00     0.025 A 
HETATM   11  C   UNL     1      43.338 -12.126   4.477  1.00  0.00    -0.028 A 
HETATM   12  C   UNL     1      43.002 -11.773   3.054  1.00  0.00     0.051 C 
HETATM   13  C   UNL     1      43.142 -13.433   4.957  1.00  0.00     0.075 A 
HETATM   14  C   UNL     1      43.477 -13.755   6.273  1.00  0.00     0.038 A 
HETATM   15  C   UNL     1      43.954 -12.765   7.135  1.00  0.00     0.018 A 
BRANCH  13  16
HETATM   16  O   UNL     1      42.651 -14.349   4.065  1.00  0.00    -0.346 OA
BRANCH  16  17
HETATM   17  C   UNL     1      42.396 -15.669   4.571  1.00  0.00     0.121 C 
HETATM   18  C   UNL     1      40.978 -16.131   4.230  1.00  0.00     0.040 C 
HETATM   19  C   UNL     1      43.411 -16.592   3.899  1.00  0.00     0.040 C 
ENDBRANCH  16  17
ENDBRANCH  13  16
ENDBRANCH   7   9
ENDBRANCH   5   7
BRANCH   4  20
HETATM   20  O   UNL     1      43.683 -11.583  10.528  1.00  0.00    -0.355 OA
HETATM   21  H   UNL     1      44.658 -11.634  10.439  1.00  0.00     0.218 HD
ENDBRANCH   4  20
BRANCH   6  22
HETATM   22  C   UNL     1      41.876  -8.690   7.313  1.00  0.00    -0.028 A 
HETATM   23  C   UNL     1      40.980  -9.777   7.245  1.00  0.00     0.049 A 
HETATM   24  C   UNL     1      40.078  -9.892   6.187  1.00  0.00     0.102 A 
HETATM   25  C   UNL     1      40.069  -8.902   5.201  1.00  0.00     0.099 A 
HETATM   26  C   UNL     1      40.922  -7.809   5.257  1.00  0.00     0.040 A 
HETATM   27  C   UNL     1      41.825  -7.701   6.313  1.00  0.00     0.012 A 
BRANCH  24  28
HETATM   28  O   UNL     1      39.186 -10.913   5.990  1.00  0.00    -0.349 OA
BRANCH  28  29
HETATM   29  C   UNL     1      39.639 -12.036   5.234  1.00  0.00     0.171 C 
HETATM   30  C   UNL     1      39.808 -13.204   6.188  1.00  0.00     0.034 C 
ENDBRANCH  28  29
ENDBRANCH  24  28
BRANCH  25  31
HETATM   31  O   UNL     1      39.207  -8.989   4.143  1.00  0.00    -0.358 OA
HETATM   32  H   UNL     1      39.620  -9.620   3.521  1.00  0.00     0.218 HD
ENDBRANCH  25  31
ENDBRANCH   6  22
BRANCH   1  33
HETATM   33  C   UNL     1      41.358  -7.271   9.962  1.00  0.00     0.155 C 
BRANCH  33  34
HETATM   34  C   UNL     1      41.906  -6.273  10.995  1.00  0.00     0.254 C 
BRANCH  34  35
HETATM   35  N   UNL     1      41.439  -6.548  12.422  1.00  0.00    -0.070 N 
HETATM   36  H   UNL     1      41.422  -7.574  12.512  1.00  0.00     0.279 HD
BRANCH  35  37
HETATM   37  C   UNL     1      40.010  -6.100  12.702  1.00  0.00     0.230 C 
HETATM   38  C   UNL     1      39.437  -6.799  13.922  1.00  0.00     0.034 C 
ENDBRANCH  35  37
BRANCH  35  39
HETATM   39  C   UNL     1      42.376  -6.058  13.515  1.00  0.00     0.230 C 
HETATM   40  C   UNL     1      43.218  -7.189  14.075  1.00  0.00     0.034 C 
ENDBRANCH  35  39
ENDBRANCH  34  35
ENDBRANCH  33  34
ENDBRANCH   1  33
TORSDOF 14
ENDMDL
