MODEL 1
REMARK VINA RESULT:      -8.1      0.000      0.000
REMARK  7 active torsions:
REMARK  status: ('A' for Active; 'I' for Inactive)
REMARK    1  A    between atoms: C_2  and  C_3 
REMARK    2  A    between atoms: C_3  and  O_4 
REMARK    3  A    between atoms: O_4  and  C_5 
REMARK    4  A    between atoms: C_8  and  C_9 
REMARK    5  A    between atoms: C_9  and  C_10 
REMARK       I    between atoms: C_10  and  N_11 
REMARK    6  A    between atoms: N_11  and  C_12 
REMARK    7  A    between atoms: C_19  and  C_20 
REMARK       I    between atoms: C_20  and  N_21 
ROOT
HETATM    1  C   UNL     1      45.378 -11.136   6.808  1.00  0.00     0.226 C 
HETATM    2  N   UNL     1      44.380 -11.926   7.349  1.00  0.00    -0.327 N 
HETATM    3  O   UNL     1      45.706 -11.108   5.624  1.00  0.00    -0.273 OA
HETATM    4  H   UNL     1      44.228 -11.846   8.346  1.00  0.00     0.169 HD
ENDROOT
BRANCH   2   5
HETATM    5  C   UNL     1      43.492 -12.794   6.678  1.00  0.00     0.035 A 
HETATM    6  C   UNL     1      43.657 -14.183   6.603  1.00  0.00     0.046 A 
HETATM    7  C   UNL     1      42.715 -14.958   5.892  1.00  0.00     0.030 A 
HETATM    8  C   UNL     1      41.643 -14.319   5.280  1.00  0.00     0.063 A 
HETATM    9  C   UNL     1      42.534 -16.343   5.593  1.00  0.00     0.156 A 
HETATM   10  N   UNL     1      40.923 -15.311   4.678  1.00  0.00    -0.277 N 
HETATM   11  C   UNL     1      41.445 -12.938   5.336  1.00  0.00     0.034 A 
HETATM   12  H   UNL     1      40.073 -15.208   4.135  1.00  0.00     0.189 HD
HETATM   13  N   UNL     1      41.425 -16.545   4.844  1.00  0.00    -0.168 NA
HETATM   14  C   UNL     1      42.393 -12.193   6.047  1.00  0.00     0.032 A 
BRANCH   9  15
HETATM   15  C   UNL     1      43.386 -17.469   6.001  1.00  0.00     0.270 C 
HETATM   16  N   UNL     1      43.346 -17.742   7.341  1.00  0.00    -0.365 N 
HETATM   17  H   UNL     1      42.755 -17.170   7.935  1.00  0.00     0.159 HD
HETATM   18  H   UNL     1      43.897 -18.498   7.713  1.00  0.00     0.159 HD
HETATM   19  O   UNL     1      44.083 -18.131   5.241  1.00  0.00    -0.266 OA
ENDBRANCH   9  15
ENDBRANCH   2   5
BRANCH   1  20
HETATM   20  C   UNL     1      46.151 -10.280   7.814  1.00  0.00     0.141 C 
BRANCH  20  21
HETATM   21  C   UNL     1      45.321  -9.563   8.854  1.00  0.00    -0.049 A 
HETATM   22  C   UNL     1      45.266 -10.036  10.172  1.00  0.00     0.010 A 
HETATM   23  C   UNL     1      44.427  -9.427  11.112  1.00  0.00     0.037 A 
HETATM   24  C   UNL     1      43.630  -8.344  10.744  1.00  0.00     0.068 A 
HETATM   25  C   UNL     1      43.707  -7.853   9.438  1.00  0.00     0.037 A 
HETATM   26  C   UNL     1      44.544  -8.454   8.498  1.00  0.00     0.010 A 
BRANCH  24  27
HETATM   27  O   UNL     1      42.746  -7.685  11.550  1.00  0.00    -0.351 OA
BRANCH  27  28
HETATM   28  C   UNL     1      41.953  -8.478  12.433  1.00  0.00     0.179 C 
BRANCH  28  29
HETATM   29  C   UNL     1      42.502  -8.370  13.866  1.00  0.00     0.002 C 
HETATM   30  C   UNL     1      41.397  -8.595  14.900  1.00  0.00     0.011 C 
HETATM   31  C   UNL     1      43.176  -7.019  14.105  1.00  0.00     0.011 C 
ENDBRANCH  28  29
ENDBRANCH  27  28
ENDBRANCH  24  27
ENDBRANCH  20  21
ENDBRANCH   1  20
TORSDOF 7
ENDMDL
MODEL 2
REMARK VINA RESULT:      -8.1      3.417      8.905
REMARK  7 active torsions:
REMARK  status: ('A' for Active; 'I' for Inactive)
REMARK    1  A    between atoms: C_2  and  C_3 
REMARK    2  A    between atoms: C_3  and  O_4 
REMARK    3  A    between atoms: O_4  and  C_5 
REMARK    4  A    between atoms: C_8  and  C_9 
REMARK    5  A    between atoms: C_9  and  C_10 
REMARK       I    between atoms: C_10  and  N_11 
REMARK    6  A    between atoms: N_11  and  C_12 
REMARK    7  A    between atoms: C_19  and  C_20 
REMARK       I    between atoms: C_20  and  N_21 
ROOT
HETATM    1  C   UNL     1      44.768 -10.441   8.426  1.00  0.00     0.226 C 
HETATM    2  N   UNL     1      43.711  -9.550   8.398  1.00  0.00    -0.327 N 
HETATM    3  O   UNL     1      45.344 -10.835   9.438  1.00  0.00    -0.273 OA
HETATM    4  H   UNL     1      43.342  -9.312   7.485  1.00  0.00     0.169 HD
ENDROOT
BRANCH   2   5
HETATM    5  C   UNL     1      43.029  -8.967   9.487  1.00  0.00     0.035 A 
HETATM    6  C   UNL     1      42.044  -9.621  10.239  1.00  0.00     0.046 A 
HETATM    7  C   UNL     1      41.413  -8.938  11.302  1.00  0.00     0.030 A 
HETATM    8  C   UNL     1      41.787  -7.629  11.576  1.00  0.00     0.063 A 
HETATM    9  C   UNL     1      40.402  -9.240  12.265  1.00  0.00     0.156 A 
HETATM   10  N   UNL     1      41.013  -7.243  12.634  1.00  0.00    -0.277 N 
HETATM   11  C   UNL     1      42.767  -6.948  10.852  1.00  0.00     0.034 A 
HETATM   12  H   UNL     1      41.017  -6.342  13.099  1.00  0.00     0.189 HD
HETATM   13  N   UNL     1      40.167  -8.184  13.079  1.00  0.00    -0.168 NA
HETATM   14  C   UNL     1      43.377  -7.646   9.803  1.00  0.00     0.032 A 
BRANCH   9  15
HETATM   15  C   UNL     1      39.662 -10.499  12.427  1.00  0.00     0.270 C 
HETATM   16  N   UNL     1      39.020 -10.919  11.294  1.00  0.00    -0.365 N 
HETATM   17  H   UNL     1      39.098 -10.354  10.456  1.00  0.00     0.159 HD
HETATM   18  H   UNL     1      38.488 -11.773  11.309  1.00  0.00     0.159 HD
HETATM   19  O   UNL     1      39.600 -11.147  13.466  1.00  0.00    -0.266 OA
ENDBRANCH   9  15
ENDBRANCH   2   5
BRANCH   1  20
HETATM   20  C   UNL     1      45.266 -10.909   7.057  1.00  0.00     0.141 C 
BRANCH  20  21
HETATM   21  C   UNL     1      44.368 -11.874   6.317  1.00  0.00    -0.049 A 
HETATM   22  C   UNL     1      43.967 -13.076   6.915  1.00  0.00     0.010 A 
HETATM   23  C   UNL     1      43.212 -14.011   6.198  1.00  0.00     0.037 A 
HETATM   24  C   UNL     1      42.854 -13.756   4.875  1.00  0.00     0.068 A 
HETATM   25  C   UNL     1      43.227 -12.545   4.288  1.00  0.00     0.037 A 
HETATM   26  C   UNL     1      43.977 -11.608   4.999  1.00  0.00     0.010 A 
BRANCH  24  27
HETATM   27  O   UNL     1      42.153 -14.595   4.056  1.00  0.00    -0.351 OA
BRANCH  27  28
HETATM   28  C   UNL     1      42.550 -15.966   4.030  1.00  0.00     0.179 C 
BRANCH  28  29
HETATM   29  C   UNL     1      42.601 -16.467   2.577  1.00  0.00     0.002 C 
HETATM   30  C   UNL     1      43.120 -17.905   2.506  1.00  0.00     0.011 C 
HETATM   31  C   UNL     1      43.463 -15.556   1.702  1.00  0.00     0.011 C 
ENDBRANCH  28  29
ENDBRANCH  27  28
ENDBRANCH  24  27
ENDBRANCH  20  21
ENDBRANCH   1  20
TORSDOF 7
ENDMDL
MODEL 3
REMARK VINA RESULT:      -8.0      2.937      9.772
REMARK  7 active torsions:
REMARK  status: ('A' for Active; 'I' for Inactive)
REMARK    1  A    between atoms: C_2  and  C_3 
REMARK    2  A    between atoms: C_3  and  O_4 
REMARK    3  A    between atoms: O_4  and  C_5 
REMARK    4  A    between atoms: C_8  and  C_9 
REMARK    5  A    between atoms: C_9  and  C_10 
REMARK       I    between atoms: C_10  and  N_11 
REMARK    6  A    between atoms: N_11  and  C_12 
REMARK    7  A    between atoms: C_19  and  C_20 
REMARK       I    between atoms: C_20  and  N_21 
ROOT
HETATM    1  C   UNL     1      41.461 -12.794   6.010  1.00  0.00     0.226 C 
HETATM    2  N   UNL     1      42.664 -12.898   6.684  1.00  0.00    -0.327 N 
HETATM    3  O   UNL     1      40.933 -11.745   5.646  1.00  0.00    -0.273 OA
HETATM    4  H   UNL     1      42.970 -13.833   6.926  1.00  0.00     0.169 HD
ENDROOT
BRANCH   2   5
HETATM    5  C   UNL     1      43.564 -11.868   7.030  1.00  0.00     0.035 A 
HETATM    6  C   UNL     1      43.181 -10.654   7.616  1.00  0.00     0.046 A 
HETATM    7  C   UNL     1      44.164  -9.683   7.909  1.00  0.00     0.030 A 
HETATM    8  C   UNL     1      45.492  -9.959   7.608  1.00  0.00     0.063 A 
HETATM    9  C   UNL     1      44.182  -8.374   8.480  1.00  0.00     0.156 A 
HETATM   10  N   UNL     1      46.191  -8.850   7.994  1.00  0.00    -0.277 N 
HETATM   11  C   UNL     1      45.910 -11.158   7.029  1.00  0.00     0.034 A 
HETATM   12  H   UNL     1      47.191  -8.700   7.920  1.00  0.00     0.189 HD
HETATM   13  N   UNL     1      45.439  -7.874   8.526  1.00  0.00    -0.168 NA
HETATM   14  C   UNL     1      44.917 -12.104   6.748  1.00  0.00     0.032 A 
BRANCH   9  15
HETATM   15  C   UNL     1      43.040  -7.595   8.979  1.00  0.00     0.270 C 
HETATM   16  N   UNL     1      42.500  -8.078  10.140  1.00  0.00    -0.365 N 
HETATM   17  H   UNL     1      42.910  -8.907  10.557  1.00  0.00     0.159 HD
HETATM   18  H   UNL     1      41.714  -7.609  10.558  1.00  0.00     0.159 HD
HETATM   19  O   UNL     1      42.582  -6.597   8.435  1.00  0.00    -0.266 OA
ENDBRANCH   9  15
ENDBRANCH   2   5
BRANCH   1  20
HETATM   20  C   UNL     1      40.732 -14.117   5.765  1.00  0.00     0.141 C 
BRANCH  20  21
HETATM   21  C   UNL     1      41.606 -15.311   5.454  1.00  0.00    -0.049 A 
HETATM   22  C   UNL     1      41.910 -16.250   6.448  1.00  0.00     0.010 A 
HETATM   23  C   UNL     1      42.792 -17.304   6.186  1.00  0.00     0.037 A 
HETATM   24  C   UNL     1      43.385 -17.427   4.930  1.00  0.00     0.068 A 
HETATM   25  C   UNL     1      43.059 -16.509   3.929  1.00  0.00     0.037 A 
HETATM   26  C   UNL     1      42.178 -15.458   4.184  1.00  0.00     0.010 A 
BRANCH  24  27
HETATM   27  O   UNL     1      44.285 -18.383   4.556  1.00  0.00    -0.351 OA
BRANCH  27  28
HETATM   28  C   UNL     1      44.319 -18.744   3.175  1.00  0.00     0.179 C 
BRANCH  28  29
HETATM   29  C   UNL     1      43.496 -20.023   2.950  1.00  0.00     0.002 C 
HETATM   30  C   UNL     1      43.878 -21.111   3.955  1.00  0.00     0.011 C 
HETATM   31  C   UNL     1      43.659 -20.548   1.523  1.00  0.00     0.011 C 
ENDBRANCH  28  29
ENDBRANCH  27  28
ENDBRANCH  24  27
ENDBRANCH  20  21
ENDBRANCH   1  20
TORSDOF 7
ENDMDL
MODEL 4
REMARK VINA RESULT:      -7.9      1.253      1.290
REMARK  7 active torsions:
REMARK  status: ('A' for Active; 'I' for Inactive)
REMARK    1  A    between atoms: C_2  and  C_3 
REMARK    2  A    between atoms: C_3  and  O_4 
REMARK    3  A    between atoms: O_4  and  C_5 
REMARK    4  A    between atoms: C_8  and  C_9 
REMARK    5  A    between atoms: C_9  and  C_10 
REMARK       I    between atoms: C_10  and  N_11 
REMARK    6  A    between atoms: N_11  and  C_12 
REMARK    7  A    between atoms: C_19  and  C_20 
REMARK       I    between atoms: C_20  and  N_21 
ROOT
HETATM    1  C   UNL     1      44.937 -11.532   6.402  1.00  0.00     0.226 C 
HETATM    2  N   UNL     1      44.058 -12.494   6.866  1.00  0.00    -0.327 N 
HETATM    3  O   UNL     1      45.065 -11.188   5.229  1.00  0.00    -0.273 OA
HETATM    4  H   UNL     1      44.070 -12.676   7.862  1.00  0.00     0.169 HD
ENDROOT
BRANCH   2   5
HETATM    5  C   UNL     1      43.093 -13.221   6.138  1.00  0.00     0.035 A 
HETATM    6  C   UNL     1      43.343 -14.444   5.503  1.00  0.00     0.046 A 
HETATM    7  C   UNL     1      42.306 -15.081   4.787  1.00  0.00     0.030 A 
HETATM    8  C   UNL     1      41.058 -14.474   4.730  1.00  0.00     0.063 A 
HETATM    9  C   UNL     1      42.164 -16.285   4.031  1.00  0.00     0.156 A 
HETATM   10  N   UNL     1      40.281 -15.309   3.977  1.00  0.00    -0.277 N 
HETATM   11  C   UNL     1      40.770 -13.259   5.353  1.00  0.00     0.034 A 
HETATM   12  H   UNL     1      39.307 -15.180   3.726  1.00  0.00     0.189 HD
HETATM   13  N   UNL     1      40.909 -16.411   3.539  1.00  0.00    -0.168 NA
HETATM   14  C   UNL     1      41.815 -12.647   6.057  1.00  0.00     0.032 A 
BRANCH   9  15
HETATM   15  C   UNL     1      43.185 -17.309   3.771  1.00  0.00     0.270 C 
HETATM   16  N   UNL     1      43.258 -17.704   2.463  1.00  0.00    -0.365 N 
HETATM   17  H   UNL     1      42.627 -17.279   1.793  1.00  0.00     0.159 HD
HETATM   18  H   UNL     1      43.930 -18.402   2.189  1.00  0.00     0.159 HD
HETATM   19  O   UNL     1      43.926 -17.791   4.620  1.00  0.00    -0.266 OA
ENDBRANCH   9  15
ENDBRANCH   2   5
BRANCH   1  20
HETATM   20  C   UNL     1      45.845 -10.908   7.464  1.00  0.00     0.141 C 
BRANCH  20  21
HETATM   21  C   UNL     1      45.156 -10.073   8.519  1.00  0.00    -0.049 A 
HETATM   22  C   UNL     1      45.422 -10.283   9.879  1.00  0.00     0.010 A 
HETATM   23  C   UNL     1      44.718  -9.575  10.860  1.00  0.00     0.037 A 
HETATM   24  C   UNL     1      43.739  -8.653  10.492  1.00  0.00     0.068 A 
HETATM   25  C   UNL     1      43.495  -8.420   9.137  1.00  0.00     0.037 A 
HETATM   26  C   UNL     1      44.196  -9.121   8.155  1.00  0.00     0.010 A 
BRANCH  24  27
HETATM   27  O   UNL     1      42.959  -7.925  11.345  1.00  0.00    -0.351 OA
BRANCH  27  28
HETATM   28  C   UNL     1      42.080  -8.649  12.205  1.00  0.00     0.179 C 
BRANCH  28  29
HETATM   29  C   UNL     1      42.555  -8.524  13.662  1.00  0.00     0.002 C 
HETATM   30  C   UNL     1      41.390  -8.685  14.640  1.00  0.00     0.011 C 
HETATM   31  C   UNL     1      43.263  -7.191  13.906  1.00  0.00     0.011 C 
ENDBRANCH  28  29
ENDBRANCH  27  28
ENDBRANCH  24  27
ENDBRANCH  20  21
ENDBRANCH   1  20
TORSDOF 7
ENDMDL
MODEL 5
REMARK VINA RESULT:      -7.8      1.711      2.873
REMARK  7 active torsions:
REMARK  status: ('A' for Active; 'I' for Inactive)
REMARK    1  A    between atoms: C_2  and  C_3 
REMARK    2  A    between atoms: C_3  and  O_4 
REMARK    3  A    between atoms: O_4  and  C_5 
REMARK    4  A    between atoms: C_8  and  C_9 
REMARK    5  A    between atoms: C_9  and  C_10 
REMARK       I    between atoms: C_10  and  N_11 
REMARK    6  A    between atoms: N_11  and  C_12 
REMARK    7  A    between atoms: C_19  and  C_20 
REMARK       I    between atoms: C_20  and  N_21 
ROOT
HETATM    1  C   UNL     1      45.127 -11.483   6.482  1.00  0.00     0.226 C 
HETATM    2  N   UNL     1      44.411 -12.548   6.997  1.00  0.00    -0.327 N 
HETATM    3  O   UNL     1      45.261 -11.223   5.287  1.00  0.00    -0.273 OA
HETATM    4  H   UNL     1      44.395 -12.639   8.005  1.00  0.00     0.169 HD
ENDROOT
BRANCH   2   5
HETATM    5  C   UNL     1      43.638 -13.502   6.300  1.00  0.00     0.035 A 
HETATM    6  C   UNL     1      42.543 -13.184   5.487  1.00  0.00     0.046 A 
HETATM    7  C   UNL     1      41.829 -14.221   4.846  1.00  0.00     0.030 A 
HETATM    8  C   UNL     1      42.234 -15.535   5.039  1.00  0.00     0.063 A 
HETATM    9  C   UNL     1      40.701 -14.309   3.974  1.00  0.00     0.156 A 
HETATM   10  N   UNL     1      41.365 -16.296   4.310  1.00  0.00    -0.277 N 
HETATM   11  C   UNL     1      43.323 -15.889   5.839  1.00  0.00     0.034 A 
HETATM   12  H   UNL     1      41.359 -17.306   4.221  1.00  0.00     0.189 HD
HETATM   13  N   UNL     1      40.428 -15.595   3.652  1.00  0.00    -0.168 NA
HETATM   14  C   UNL     1      44.014 -14.844   6.463  1.00  0.00     0.032 A 
BRANCH   9  15
HETATM   15  C   UNL     1      39.886 -13.207   3.444  1.00  0.00     0.270 C 
HETATM   16  N   UNL     1      38.797 -13.616   2.723  1.00  0.00    -0.365 N 
HETATM   17  H   UNL     1      38.636 -14.610   2.610  1.00  0.00     0.159 HD
HETATM   18  H   UNL     1      38.179 -12.930   2.322  1.00  0.00     0.159 HD
HETATM   19  O   UNL     1      40.125 -12.017   3.611  1.00  0.00    -0.266 OA
ENDBRANCH   9  15
ENDBRANCH   2   5
BRANCH   1  20
HETATM   20  C   UNL     1      45.840 -10.612   7.517  1.00  0.00     0.141 C 
BRANCH  20  21
HETATM   21  C   UNL     1      44.959  -9.958   8.557  1.00  0.00    -0.049 A 
HETATM   22  C   UNL     1      43.860  -9.178   8.171  1.00  0.00     0.010 A 
HETATM   23  C   UNL     1      43.099  -8.499   9.128  1.00  0.00     0.037 A 
HETATM   24  C   UNL     1      43.430  -8.586  10.480  1.00  0.00     0.068 A 
HETATM   25  C   UNL     1      44.507  -9.387  10.868  1.00  0.00     0.037 A 
HETATM   26  C   UNL     1      45.267 -10.070   9.918  1.00  0.00     0.010 A 
BRANCH  24  27
HETATM   27  O   UNL     1      42.795  -7.948  11.507  1.00  0.00    -0.351 OA
BRANCH  27  28
HETATM   28  C   UNL     1      42.028  -8.754  12.402  1.00  0.00     0.179 C 
BRANCH  28  29
HETATM   29  C   UNL     1      42.494  -8.514  13.848  1.00  0.00     0.002 C 
HETATM   30  C   UNL     1      41.314  -8.547  14.821  1.00  0.00     0.011 C 
HETATM   31  C   UNL     1      43.244  -7.188  13.981  1.00  0.00     0.011 C 
ENDBRANCH  28  29
ENDBRANCH  27  28
ENDBRANCH  24  27
ENDBRANCH  20  21
ENDBRANCH   1  20
TORSDOF 7
ENDMDL
MODEL 6
REMARK VINA RESULT:      -7.8      7.563     10.031
REMARK  7 active torsions:
REMARK  status: ('A' for Active; 'I' for Inactive)
REMARK    1  A    between atoms: C_2  and  C_3 
REMARK    2  A    between atoms: C_3  and  O_4 
REMARK    3  A    between atoms: O_4  and  C_5 
REMARK    4  A    between atoms: C_8  and  C_9 
REMARK    5  A    between atoms: C_9  and  C_10 
REMARK       I    between atoms: C_10  and  N_11 
REMARK    6  A    between atoms: N_11  and  C_12 
REMARK    7  A    between atoms: C_19  and  C_20 
REMARK       I    between atoms: C_20  and  N_21 
ROOT
HETATM    1  C   UNL     1      40.405 -15.006   0.792  1.00  0.00     0.226 C 
HETATM    2  N   UNL     1      41.708 -15.467   0.850  1.00  0.00    -0.327 N 
HETATM    3  O   UNL     1      39.583 -15.067   1.704  1.00  0.00    -0.273 OA
HETATM    4  H   UNL     1      42.267 -15.354   0.014  1.00  0.00     0.169 HD
ENDROOT
BRANCH   2   5
HETATM    5  C   UNL     1      42.389 -16.024   1.953  1.00  0.00     0.035 A 
HETATM    6  C   UNL     1      42.733 -17.378   2.063  1.00  0.00     0.046 A 
HETATM    7  C   UNL     1      43.403 -17.834   3.220  1.00  0.00     0.030 A 
HETATM    8  C   UNL     1      43.705 -16.923   4.224  1.00  0.00     0.063 A 
HETATM    9  C   UNL     1      43.904 -19.084   3.696  1.00  0.00     0.156 A 
HETATM   10  N   UNL     1      44.335 -17.648   5.196  1.00  0.00    -0.277 N 
HETATM   11  C   UNL     1      43.382 -15.567   4.148  1.00  0.00     0.034 A 
HETATM   12  H   UNL     1      44.694 -17.305   6.080  1.00  0.00     0.189 HD
HETATM   13  N   UNL     1      44.476 -18.952   4.915  1.00  0.00    -0.168 NA
HETATM   14  C   UNL     1      42.718 -15.140   2.992  1.00  0.00     0.032 A 
BRANCH   9  15
HETATM   15  C   UNL     1      43.852 -20.388   3.021  1.00  0.00     0.270 C 
HETATM   16  N   UNL     1      44.022 -21.457   3.859  1.00  0.00    -0.365 N 
HETATM   17  H   UNL     1      44.168 -21.279   4.847  1.00  0.00     0.159 HD
HETATM   18  H   UNL     1      44.001 -22.391   3.486  1.00  0.00     0.159 HD
HETATM   19  O   UNL     1      43.672 -20.549   1.819  1.00  0.00    -0.266 OA
ENDBRANCH   9  15
ENDBRANCH   2   5
BRANCH   1  20
HETATM   20  C   UNL     1      39.975 -14.429  -0.559  1.00  0.00     0.141 C 
BRANCH  20  21
HETATM   21  C   UNL     1      40.385 -13.000  -0.832  1.00  0.00    -0.049 A 
HETATM   22  C   UNL     1      40.621 -12.564  -2.143  1.00  0.00     0.010 A 
HETATM   23  C   UNL     1      41.088 -11.268  -2.388  1.00  0.00     0.037 A 
HETATM   24  C   UNL     1      41.329 -10.396  -1.327  1.00  0.00     0.068 A 
HETATM   25  C   UNL     1      41.065 -10.820  -0.023  1.00  0.00     0.037 A 
HETATM   26  C   UNL     1      40.596 -12.110   0.228  1.00  0.00     0.010 A 
BRANCH  24  27
HETATM   27  O   UNL     1      41.817  -9.124  -1.427  1.00  0.00    -0.351 OA
BRANCH  27  28
HETATM   28  C   UNL     1      41.534  -8.408  -2.629  1.00  0.00     0.179 C 
BRANCH  28  29
HETATM   29  C   UNL     1      42.433  -7.165  -2.720  1.00  0.00     0.002 C 
HETATM   30  C   UNL     1      43.061  -7.036  -4.109  1.00  0.00     0.011 C 
HETATM   31  C   UNL     1      43.526  -7.187  -1.651  1.00  0.00     0.011 C 
ENDBRANCH  28  29
ENDBRANCH  27  28
ENDBRANCH  24  27
ENDBRANCH  20  21
ENDBRANCH   1  20
TORSDOF 7
ENDMDL
MODEL 7
REMARK VINA RESULT:      -7.6      6.681     11.021
REMARK  7 active torsions:
REMARK  status: ('A' for Active; 'I' for Inactive)
REMARK    1  A    between atoms: C_2  and  C_3 
REMARK    2  A    between atoms: C_3  and  O_4 
REMARK    3  A    between atoms: O_4  and  C_5 
REMARK    4  A    between atoms: C_8  and  C_9 
REMARK    5  A    between atoms: C_9  and  C_10 
REMARK       I    between atoms: C_10  and  N_11 
REMARK    6  A    between atoms: N_11  and  C_12 
REMARK    7  A    between atoms: C_19  and  C_20 
REMARK       I    between atoms: C_20  and  N_21 
ROOT
HETATM    1  C   UNL     1      41.123 -14.373   1.281  1.00  0.00     0.226 C 
HETATM    2  N   UNL     1      42.392 -14.815   1.609  1.00  0.00    -0.327 N 
HETATM    3  O   UNL     1      40.069 -14.881   1.656  1.00  0.00    -0.273 OA
HETATM    4  H   UNL     1      43.169 -14.297   1.218  1.00  0.00     0.169 HD
ENDROOT
BRANCH   2   5
HETATM    5  C   UNL     1      42.753 -15.868   2.477  1.00  0.00     0.035 A 
HETATM    6  C   UNL     1      42.622 -15.818   3.871  1.00  0.00     0.046 A 
HETATM    7  C   UNL     1      43.029 -16.925   4.648  1.00  0.00     0.030 A 
HETATM    8  C   UNL     1      43.551 -18.041   4.006  1.00  0.00     0.063 A 
HETATM    9  C   UNL     1      43.060 -17.254   6.038  1.00  0.00     0.156 A 
HETATM   10  N   UNL     1      43.853 -18.926   5.002  1.00  0.00    -0.277 N 
HETATM   11  C   UNL     1      43.693 -18.128   2.620  1.00  0.00     0.034 A 
HETATM   12  H   UNL     1      44.257 -19.851   4.899  1.00  0.00     0.189 HD
HETATM   13  N   UNL     1      43.571 -18.491   6.240  1.00  0.00    -0.168 NA
HETATM   14  C   UNL     1      43.282 -17.017   1.872  1.00  0.00     0.032 A 
BRANCH   9  15
HETATM   15  C   UNL     1      42.618 -16.424   7.167  1.00  0.00     0.270 C 
HETATM   16  N   UNL     1      43.442 -16.483   8.259  1.00  0.00    -0.365 N 
HETATM   17  H   UNL     1      44.266 -17.072   8.212  1.00  0.00     0.159 HD
HETATM   18  H   UNL     1      43.220 -15.946   9.081  1.00  0.00     0.159 HD
HETATM   19  O   UNL     1      41.610 -15.727   7.172  1.00  0.00    -0.266 OA
ENDBRANCH   9  15
ENDBRANCH   2   5
BRANCH   1  20
HETATM   20  C   UNL     1      41.074 -13.179   0.324  1.00  0.00     0.141 C 
BRANCH  20  21
HETATM   21  C   UNL     1      39.830 -13.059  -0.526  1.00  0.00    -0.049 A 
HETATM   22  C   UNL     1      39.620 -13.923  -1.609  1.00  0.00     0.010 A 
HETATM   23  C   UNL     1      38.515 -13.754  -2.451  1.00  0.00     0.037 A 
HETATM   24  C   UNL     1      37.611 -12.717  -2.222  1.00  0.00     0.068 A 
HETATM   25  C   UNL     1      37.803 -11.874  -1.125  1.00  0.00     0.037 A 
HETATM   26  C   UNL     1      38.901 -12.040  -0.280  1.00  0.00     0.010 A 
BRANCH  24  27
HETATM   27  O   UNL     1      36.517 -12.421  -2.984  1.00  0.00    -0.351 OA
BRANCH  27  28
HETATM   28  C   UNL     1      36.107 -11.055  -3.036  1.00  0.00     0.179 C 
BRANCH  28  29
HETATM   29  C   UNL     1      34.815 -10.929  -3.859  1.00  0.00     0.002 C 
HETATM   30  C   UNL     1      33.723 -10.204  -3.068  1.00  0.00     0.011 C 
HETATM   31  C   UNL     1      34.308 -12.297  -4.316  1.00  0.00     0.011 C 
ENDBRANCH  28  29
ENDBRANCH  27  28
ENDBRANCH  24  27
ENDBRANCH  20  21
ENDBRANCH   1  20
TORSDOF 7
ENDMDL
MODEL 8
REMARK VINA RESULT:      -7.3      5.767      9.792
REMARK  7 active torsions:
REMARK  status: ('A' for Active; 'I' for Inactive)
REMARK    1  A    between atoms: C_2  and  C_3 
REMARK    2  A    between atoms: C_3  and  O_4 
REMARK    3  A    between atoms: O_4  and  C_5 
REMARK    4  A    between atoms: C_8  and  C_9 
REMARK    5  A    between atoms: C_9  and  C_10 
REMARK       I    between atoms: C_10  and  N_11 
REMARK    6  A    between atoms: N_11  and  C_12 
REMARK    7  A    between atoms: C_19  and  C_20 
REMARK       I    between atoms: C_20  and  N_21 
ROOT
HETATM    1  C   UNL     1      40.591 -14.877   0.863  1.00  0.00     0.226 C 
HETATM    2  N   UNL     1      41.911 -15.249   1.041  1.00  0.00    -0.327 N 
HETATM    3  O   UNL     1      39.682 -15.060   1.670  1.00  0.00    -0.273 OA
HETATM    4  H   UNL     1      42.549 -15.038   0.284  1.00  0.00     0.169 HD
ENDROOT
BRANCH   2   5
HETATM    5  C   UNL     1      42.509 -15.837   2.177  1.00  0.00     0.035 A 
HETATM    6  C   UNL     1      42.662 -15.188   3.409  1.00  0.00     0.046 A 
HETATM    7  C   UNL     1      43.289 -15.865   4.478  1.00  0.00     0.030 A 
HETATM    8  C   UNL     1      43.740 -17.164   4.279  1.00  0.00     0.063 A 
HETATM    9  C   UNL     1      43.624 -15.564   5.834  1.00  0.00     0.156 A 
HETATM   10  N   UNL     1      44.295 -17.543   5.469  1.00  0.00    -0.277 N 
HETATM   11  C   UNL     1      43.602 -17.843   3.067  1.00  0.00     0.034 A 
HETATM   12  H   UNL     1      44.728 -18.434   5.687  1.00  0.00     0.189 HD
HETATM   13  N   UNL     1      44.243 -16.609   6.431  1.00  0.00    -0.168 NA
HETATM   14  C   UNL     1      42.977 -17.150   2.023  1.00  0.00     0.032 A 
BRANCH   9  15
HETATM   15  C   UNL     1      43.369 -14.317   6.567  1.00  0.00     0.270 C 
HETATM   16  N   UNL     1      42.052 -14.108   6.874  1.00  0.00    -0.365 N 
HETATM   17  H   UNL     1      41.372 -14.803   6.585  1.00  0.00     0.159 HD
HETATM   18  H   UNL     1      41.782 -13.279   7.377  1.00  0.00     0.159 HD
HETATM   19  O   UNL     1      44.231 -13.508   6.894  1.00  0.00    -0.266 OA
ENDBRANCH   9  15
ENDBRANCH   2   5
BRANCH   1  20
HETATM   20  C   UNL     1      40.269 -14.235  -0.487  1.00  0.00     0.141 C 
BRANCH  20  21
HETATM   21  C   UNL     1      40.667 -12.785  -0.646  1.00  0.00    -0.049 A 
HETATM   22  C   UNL     1      40.894 -11.981   0.479  1.00  0.00     0.010 A 
HETATM   23  C   UNL     1      41.172 -10.617   0.335  1.00  0.00     0.037 A 
HETATM   24  C   UNL     1      41.222 -10.042  -0.934  1.00  0.00     0.068 A 
HETATM   25  C   UNL     1      41.026 -10.849  -2.057  1.00  0.00     0.037 A 
HETATM   26  C   UNL     1      40.751 -12.210  -1.920  1.00  0.00     0.010 A 
BRANCH  24  27
HETATM   27  O   UNL     1      41.447  -8.724  -1.211  1.00  0.00    -0.351 OA
BRANCH  27  28
HETATM   28  C   UNL     1      41.668  -8.371  -2.577  1.00  0.00     0.179 C 
BRANCH  28  29
HETATM   29  C   UNL     1      42.953  -7.535  -2.699  1.00  0.00     0.002 C 
HETATM   30  C   UNL     1      43.249  -6.783  -1.400  1.00  0.00     0.011 C 
HETATM   31  C   UNL     1      42.870  -6.551  -3.866  1.00  0.00     0.011 C 
ENDBRANCH  28  29
ENDBRANCH  27  28
ENDBRANCH  24  27
ENDBRANCH  20  21
ENDBRANCH   1  20
TORSDOF 7
ENDMDL
MODEL 9
REMARK VINA RESULT:      -7.3      3.467      9.459
REMARK  7 active torsions:
REMARK  status: ('A' for Active; 'I' for Inactive)
REMARK    1  A    between atoms: C_2  and  C_3 
REMARK    2  A    between atoms: C_3  and  O_4 
REMARK    3  A    between atoms: O_4  and  C_5 
REMARK    4  A    between atoms: C_8  and  C_9 
REMARK    5  A    between atoms: C_9  and  C_10 
REMARK       I    between atoms: C_10  and  N_11 
REMARK    6  A    between atoms: N_11  and  C_12 
REMARK    7  A    between atoms: C_19  and  C_20 
REMARK       I    between atoms: C_20  and  N_21 
ROOT
HETATM    1  C   UNL     1      40.298 -12.830   5.513  1.00  0.00     0.226 C 
HETATM    2  N   UNL     1      41.440 -12.068   5.349  1.00  0.00    -0.327 N 
HETATM    3  O   UNL     1      39.419 -12.630   6.349  1.00  0.00    -0.273 OA
HETATM    4  H   UNL     1      42.080 -12.360   4.620  1.00  0.00     0.169 HD
ENDROOT
BRANCH   2   5
HETATM    5  C   UNL     1      41.808 -10.887   6.028  1.00  0.00     0.035 A 
HETATM    6  C   UNL     1      43.003 -10.730   6.742  1.00  0.00     0.046 A 
HETATM    7  C   UNL     1      43.266  -9.508   7.399  1.00  0.00     0.030 A 
HETATM    8  C   UNL     1      42.327  -8.487   7.319  1.00  0.00     0.063 A 
HETATM    9  C   UNL     1      44.322  -8.974   8.199  1.00  0.00     0.156 A 
HETATM   10  N   UNL     1      42.851  -7.454   8.044  1.00  0.00    -0.277 N 
HETATM   11  C   UNL     1      41.129  -8.606   6.614  1.00  0.00     0.034 A 
HETATM   12  H   UNL     1      42.432  -6.544   8.205  1.00  0.00     0.189 HD
HETATM   13  N   UNL     1      44.051  -7.706   8.589  1.00  0.00    -0.168 NA
HETATM   14  C   UNL     1      40.892  -9.827   5.972  1.00  0.00     0.032 A 
BRANCH   9  15
HETATM   15  C   UNL     1      45.572  -9.636   8.596  1.00  0.00     0.270 C 
HETATM   16  N   UNL     1      46.659  -9.270   7.850  1.00  0.00    -0.365 N 
HETATM   17  H   UNL     1      46.530  -8.594   7.105  1.00  0.00     0.159 HD
HETATM   18  H   UNL     1      47.560  -9.672   8.051  1.00  0.00     0.159 HD
HETATM   19  O   UNL     1      45.675 -10.449   9.508  1.00  0.00    -0.266 OA
ENDBRANCH   9  15
ENDBRANCH   2   5
BRANCH   1  20
HETATM   20  C   UNL     1      40.186 -14.048   4.593  1.00  0.00     0.141 C 
BRANCH  20  21
HETATM   21  C   UNL     1      41.241 -15.116   4.772  1.00  0.00    -0.049 A 
HETATM   22  C   UNL     1      42.184 -15.362   3.765  1.00  0.00     0.010 A 
HETATM   23  C   UNL     1      43.102 -16.410   3.890  1.00  0.00     0.037 A 
HETATM   24  C   UNL     1      43.084 -17.227   5.020  1.00  0.00     0.068 A 
HETATM   25  C   UNL     1      42.164 -16.964   6.038  1.00  0.00     0.037 A 
HETATM   26  C   UNL     1      41.249 -15.918   5.920  1.00  0.00     0.010 A 
BRANCH  24  27
HETATM   27  O   UNL     1      43.897 -18.300   5.250  1.00  0.00    -0.351 OA
BRANCH  27  28
HETATM   28  C   UNL     1      44.674 -18.778   4.151  1.00  0.00     0.179 C 
BRANCH  28  29
HETATM   29  C   UNL     1      44.379 -20.268   3.913  1.00  0.00     0.002 C 
HETATM   30  C   UNL     1      43.478 -20.466   2.692  1.00  0.00     0.011 C 
HETATM   31  C   UNL     1      43.743 -20.916   5.143  1.00  0.00     0.011 C 
ENDBRANCH  28  29
ENDBRANCH  27  28
ENDBRANCH  24  27
ENDBRANCH  20  21
ENDBRANCH   1  20
TORSDOF 7
ENDMDL
MODEL 10
REMARK VINA RESULT:      -7.2      3.421      9.193
REMARK  7 active torsions:
REMARK  status: ('A' for Active; 'I' for Inactive)
REMARK    1  A    between atoms: C_2  and  C_3 
REMARK    2  A    between atoms: C_3  and  O_4 
REMARK    3  A    between atoms: O_4  and  C_5 
REMARK    4  A    between atoms: C_8  and  C_9 
REMARK    5  A    between atoms: C_9  and  C_10 
REMARK       I    between atoms: C_10  and  N_11 
REMARK    6  A    between atoms: N_11  and  C_12 
REMARK    7  A    between atoms: C_19  and  C_20 
REMARK       I    between atoms: C_20  and  N_21 
ROOT
HETATM    1  C   UNL     1      45.465  -9.564   7.943  1.00  0.00     0.226 C 
HETATM    2  N   UNL     1      44.207  -9.560   8.516  1.00  0.00    -0.327 N 
HETATM    3  O   UNL     1      46.224  -8.599   7.876  1.00  0.00    -0.273 OA
HETATM    4  H   UNL     1      43.693 -10.432   8.489  1.00  0.00     0.169 HD
ENDROOT
BRANCH   2   5
HETATM    5  C   UNL     1      43.559  -8.507   9.196  1.00  0.00     0.035 A 
HETATM    6  C   UNL     1      43.429  -8.432  10.589  1.00  0.00     0.046 A 
HETATM    7  C   UNL     1      42.747  -7.338  11.166  1.00  0.00     0.030 A 
HETATM    8  C   UNL     1      42.220  -6.359  10.333  1.00  0.00     0.063 A 
HETATM    9  C   UNL     1      42.413  -6.913  12.488  1.00  0.00     0.156 A 
HETATM   10  N   UNL     1      41.627  -5.452  11.165  1.00  0.00    -0.277 N 
HETATM   11  C   UNL     1      42.334  -6.398   8.942  1.00  0.00     0.034 A 
HETATM   12  H   UNL     1      41.138  -4.605  10.900  1.00  0.00     0.189 HD
HETATM   13  N   UNL     1      41.722  -5.749  12.471  1.00  0.00    -0.168 NA
HETATM   14  C   UNL     1      43.014  -7.492   8.394  1.00  0.00     0.032 A 
BRANCH   9  15
HETATM   15  C   UNL     1      42.733  -7.584  13.756  1.00  0.00     0.270 C 
HETATM   16  N   UNL     1      43.380  -6.787  14.661  1.00  0.00    -0.365 N 
HETATM   17  H   UNL     1      43.585  -5.829  14.403  1.00  0.00     0.159 HD
HETATM   18  H   UNL     1      43.639  -7.161  15.559  1.00  0.00     0.159 HD
HETATM   19  O   UNL     1      42.461  -8.750  14.019  1.00  0.00    -0.266 OA
ENDBRANCH   9  15
ENDBRANCH   2   5
BRANCH   1  20
HETATM   20  C   UNL     1      45.887 -10.888   7.301  1.00  0.00     0.141 C 
BRANCH  20  21
HETATM   21  C   UNL     1      44.800 -11.656   6.584  1.00  0.00    -0.049 A 
HETATM   22  C   UNL     1      44.131 -12.708   7.223  1.00  0.00     0.010 A 
HETATM   23  C   UNL     1      43.190 -13.478   6.531  1.00  0.00     0.037 A 
HETATM   24  C   UNL     1      42.911 -13.208   5.192  1.00  0.00     0.068 A 
HETATM   25  C   UNL     1      43.555 -12.141   4.563  1.00  0.00     0.037 A 
HETATM   26  C   UNL     1      44.492 -11.367   5.249  1.00  0.00     0.010 A 
BRANCH  24  27
HETATM   27  O   UNL     1      42.045 -13.902   4.396  1.00  0.00    -0.351 OA
BRANCH  27  28
HETATM   28  C   UNL     1      42.610 -14.688   3.346  1.00  0.00     0.179 C 
BRANCH  28  29
HETATM   29  C   UNL     1      42.455 -16.182   3.672  1.00  0.00     0.002 C 
HETATM   30  C   UNL     1      43.621 -16.686   4.525  1.00  0.00     0.011 C 
HETATM   31  C   UNL     1      42.338 -17.022   2.399  1.00  0.00     0.011 C 
ENDBRANCH  28  29
ENDBRANCH  27  28
ENDBRANCH  24  27
ENDBRANCH  20  21
ENDBRANCH   1  20
TORSDOF 7
ENDMDL
