MODEL 1
REMARK VINA RESULT:      -9.2      0.000      0.000
REMARK  3 active torsions:
REMARK  status: ('A' for Active; 'I' for Inactive)
REMARK    1  A    between atoms: C_5  and  C_6 
REMARK       I    between atoms: C_6  and  N_7 
REMARK    2  A    between atoms: N_7  and  C_8 
REMARK    3  A    between atoms: C_15  and  C_16 
REMARK       I    between atoms: C_16  and  N_17 
ROOT
HETATM    1  C   UNL     1      40.595 -13.508   1.940  1.00  0.00     0.035 A 
HETATM    2  C   UNL     1      40.342 -13.969   0.638  1.00  0.00     0.046 A 
HETATM    3  C   UNL     1      39.333 -13.354  -0.135  1.00  0.00     0.030 A 
HETATM    4  C   UNL     1      38.583 -12.335   0.435  1.00  0.00     0.063 A 
HETATM    5  N   UNL     1      37.692 -11.956  -0.530  1.00  0.00    -0.277 N 
HETATM    6  H   UNL     1      36.978 -11.241  -0.459  1.00  0.00     0.189 HD
HETATM    7  N   UNL     1      37.821 -12.615  -1.694  1.00  0.00    -0.168 NA
HETATM    8  C   UNL     1      38.835 -13.481  -1.465  1.00  0.00     0.156 A 
HETATM    9  C   UNL     1      38.788 -11.876   1.737  1.00  0.00     0.034 A 
HETATM   10  C   UNL     1      39.818 -12.477   2.473  1.00  0.00     0.032 A 
ENDROOT
BRANCH   1  11
HETATM   11  N   UNL     1      41.634 -14.141   2.654  1.00  0.00    -0.326 N 
HETATM   12  C   UNL     1      41.538 -15.301   3.413  1.00  0.00     0.240 C 
HETATM   13  O   UNL     1      40.497 -15.929   3.614  1.00  0.00    -0.272 OA
HETATM   14  H   UNL     1      42.510 -13.631   2.709  1.00  0.00     0.169 HD
BRANCH  12  15
HETATM   15  C   UNL     1      42.872 -15.793   4.022  1.00  0.00     0.172 C 
HETATM   16  C   UNL     1      43.207 -17.261   3.743  1.00  0.00    -0.029 A 
HETATM   17  C   UNL     1      43.773 -18.128   4.703  1.00  0.00    -0.050 A 
HETATM   18  C   UNL     1      43.003 -17.757   2.437  1.00  0.00     0.009 A 
HETATM   19  C   UNL     1      44.021 -19.472   4.363  1.00  0.00     0.007 A 
HETATM   20  C   UNL     1      44.097 -17.703   6.118  1.00  0.00     0.049 C 
HETATM   21  C   UNL     1      43.767 -19.949   3.081  1.00  0.00     0.001 A 
HETATM   22  C   UNL     1      43.268 -19.088   2.113  1.00  0.00     0.001 A 
HETATM   23  C   UNL     1      44.322 -16.211   6.297  1.00  0.00     0.080 C 
HETATM   24  S   UNL     1      42.834 -15.325   5.793  1.00  0.00    -0.149 SA
ENDBRANCH  12  15
ENDBRANCH   1  11
BRANCH   8  25
HETATM   25  C   UNL     1      39.319 -14.388  -2.515  1.00  0.00     0.270 C 
HETATM   26  N   UNL     1      38.545 -15.502  -2.691  1.00  0.00    -0.365 N 
HETATM   27  H   UNL     1      37.714 -15.610  -2.122  1.00  0.00     0.159 HD
HETATM   28  H   UNL     1      38.775 -16.163  -3.416  1.00  0.00     0.159 HD
HETATM   29  O   UNL     1      40.316 -14.185  -3.200  1.00  0.00    -0.266 OA
ENDBRANCH   8  25
TORSDOF 3
ENDMDL
MODEL 2
REMARK VINA RESULT:      -8.6      2.917      8.025
REMARK  3 active torsions:
REMARK  status: ('A' for Active; 'I' for Inactive)
REMARK    1  A    between atoms: C_5  and  C_6 
REMARK       I    between atoms: C_6  and  N_7 
REMARK    2  A    between atoms: N_7  and  C_8 
REMARK    3  A    between atoms: C_15  and  C_16 
REMARK       I    between atoms: C_16  and  N_17 
ROOT
HETATM    1  C   UNL     1      42.376 -15.801   2.604  1.00  0.00     0.035 A 
HETATM    2  C   UNL     1      42.324 -15.895   4.004  1.00  0.00     0.046 A 
HETATM    3  C   UNL     1      42.928 -16.995   4.651  1.00  0.00     0.030 A 
HETATM    4  C   UNL     1      43.519 -17.983   3.877  1.00  0.00     0.063 A 
HETATM    5  N   UNL     1      43.994 -18.906   4.767  1.00  0.00    -0.277 N 
HETATM    6  H   UNL     1      44.477 -19.771   4.554  1.00  0.00     0.189 HD
HETATM    7  N   UNL     1      43.796 -18.587   6.057  1.00  0.00    -0.168 NA
HETATM    8  C   UNL     1      43.139 -17.405   6.000  1.00  0.00     0.156 A 
HETATM    9  C   UNL     1      43.559 -17.936   2.482  1.00  0.00     0.034 A 
HETATM   10  C   UNL     1      42.986 -16.817   1.863  1.00  0.00     0.032 A 
ENDROOT
BRANCH   1  11
HETATM   11  N   UNL     1      41.782 -14.666   2.014  1.00  0.00    -0.326 N 
HETATM   12  C   UNL     1      40.435 -14.486   1.724  1.00  0.00     0.240 C 
HETATM   13  O   UNL     1      39.555 -15.331   1.901  1.00  0.00    -0.272 OA
HETATM   14  H   UNL     1      42.421 -13.960   1.664  1.00  0.00     0.169 HD
BRANCH  12  15
HETATM   15  C   UNL     1      40.073 -13.099   1.142  1.00  0.00     0.172 C 
HETATM   16  C   UNL     1      40.384 -12.922  -0.346  1.00  0.00    -0.029 A 
HETATM   17  C   UNL     1      40.924 -11.739  -0.897  1.00  0.00    -0.050 A 
HETATM   18  C   UNL     1      40.049 -13.973  -1.229  1.00  0.00     0.009 A 
HETATM   19  C   UNL     1      41.202 -11.678  -2.275  1.00  0.00     0.007 A 
HETATM   20  C   UNL     1      41.267 -10.520  -0.069  1.00  0.00     0.049 C 
HETATM   21  C   UNL     1      40.907 -12.746  -3.117  1.00  0.00     0.001 A 
HETATM   22  C   UNL     1      40.319 -13.891  -2.595  1.00  0.00     0.001 A 
HETATM   23  C   UNL     1      40.503 -10.405   1.239  1.00  0.00     0.080 C 
HETATM   24  S   UNL     1      40.842 -11.859   2.251  1.00  0.00    -0.149 SA
ENDBRANCH  12  15
ENDBRANCH   1  11
BRANCH   8  25
HETATM   25  C   UNL     1      42.751 -16.686   7.221  1.00  0.00     0.270 C 
HETATM   26  N   UNL     1      43.682 -16.743   8.222  1.00  0.00    -0.365 N 
HETATM   27  H   UNL     1      44.548 -17.241   8.051  1.00  0.00     0.159 HD
HETATM   28  H   UNL     1      43.524 -16.246   9.084  1.00  0.00     0.159 HD
HETATM   29  O   UNL     1      41.701 -16.067   7.358  1.00  0.00    -0.266 OA
ENDBRANCH   8  25
TORSDOF 3
ENDMDL
MODEL 3
REMARK VINA RESULT:      -8.5      2.091      2.833
REMARK  3 active torsions:
REMARK  status: ('A' for Active; 'I' for Inactive)
REMARK    1  A    between atoms: C_5  and  C_6 
REMARK       I    between atoms: C_6  and  N_7 
REMARK    2  A    between atoms: N_7  and  C_8 
REMARK    3  A    between atoms: C_15  and  C_16 
REMARK       I    between atoms: C_16  and  N_17 
ROOT
HETATM    1  C   UNL     1      41.553 -14.497   1.449  1.00  0.00     0.035 A 
HETATM    2  C   UNL     1      41.782 -13.130   1.222  1.00  0.00     0.046 A 
HETATM    3  C   UNL     1      40.993 -12.439   0.277  1.00  0.00     0.030 A 
HETATM    4  C   UNL     1      40.037 -13.146  -0.440  1.00  0.00     0.063 A 
HETATM    5  N   UNL     1      39.457 -12.230  -1.273  1.00  0.00    -0.277 N 
HETATM    6  H   UNL     1      38.722 -12.396  -1.950  1.00  0.00     0.189 HD
HETATM    7  N   UNL     1      39.926 -10.978  -1.134  1.00  0.00    -0.168 NA
HETATM    8  C   UNL     1      40.875 -11.093  -0.177  1.00  0.00     0.156 A 
HETATM    9  C   UNL     1      39.807 -14.511  -0.261  1.00  0.00     0.034 A 
HETATM   10  C   UNL     1      40.577 -15.168   0.708  1.00  0.00     0.032 A 
ENDROOT
BRANCH   1  11
HETATM   11  N   UNL     1      42.351 -15.128   2.426  1.00  0.00    -0.326 N 
HETATM   12  C   UNL     1      41.917 -15.986   3.429  1.00  0.00     0.240 C 
HETATM   13  O   UNL     1      40.741 -16.285   3.643  1.00  0.00    -0.272 OA
HETATM   14  H   UNL     1      43.321 -14.833   2.466  1.00  0.00     0.169 HD
BRANCH  12  15
HETATM   15  C   UNL     1      43.042 -16.580   4.309  1.00  0.00     0.172 C 
HETATM   16  C   UNL     1      43.354 -18.056   4.047  1.00  0.00    -0.029 A 
HETATM   17  C   UNL     1      43.632 -18.989   5.070  1.00  0.00    -0.050 A 
HETATM   18  C   UNL     1      43.439 -18.495   2.707  1.00  0.00     0.009 A 
HETATM   19  C   UNL     1      43.882 -20.333   4.735  1.00  0.00     0.007 A 
HETATM   20  C   UNL     1      43.635 -18.633   6.541  1.00  0.00     0.049 C 
HETATM   21  C   UNL     1      43.912 -20.751   3.408  1.00  0.00     0.001 A 
HETATM   22  C   UNL     1      43.701 -19.828   2.392  1.00  0.00     0.001 A 
HETATM   23  C   UNL     1      43.890 -17.164   6.837  1.00  0.00     0.080 C 
HETATM   24  S   UNL     1      42.612 -16.171   6.042  1.00  0.00    -0.149 SA
ENDBRANCH  12  15
ENDBRANCH   1  11
BRANCH   8  25
HETATM   25  C   UNL     1      41.627  -9.924   0.299  1.00  0.00     0.270 C 
HETATM   26  N   UNL     1      41.434  -9.636   1.622  1.00  0.00    -0.365 N 
HETATM   27  H   UNL     1      40.825 -10.238   2.165  1.00  0.00     0.159 HD
HETATM   28  H   UNL     1      41.938  -8.876   2.050  1.00  0.00     0.159 HD
HETATM   29  O   UNL     1      42.380  -9.252  -0.399  1.00  0.00    -0.266 OA
ENDBRANCH   8  25
TORSDOF 3
ENDMDL
MODEL 4
REMARK VINA RESULT:      -8.5      2.996      8.327
REMARK  3 active torsions:
REMARK  status: ('A' for Active; 'I' for Inactive)
REMARK    1  A    between atoms: C_5  and  C_6 
REMARK       I    between atoms: C_6  and  N_7 
REMARK    2  A    between atoms: N_7  and  C_8 
REMARK    3  A    between atoms: C_15  and  C_16 
REMARK       I    between atoms: C_16  and  N_17 
ROOT
HETATM    1  C   UNL     1      42.248 -15.496   1.965  1.00  0.00     0.035 A 
HETATM    2  C   UNL     1      41.796 -15.397   3.290  1.00  0.00     0.046 A 
HETATM    3  C   UNL     1      42.280 -16.301   4.260  1.00  0.00     0.030 A 
HETATM    4  C   UNL     1      43.160 -17.299   3.864  1.00  0.00     0.063 A 
HETATM    5  N   UNL     1      43.435 -18.012   4.997  1.00  0.00    -0.277 N 
HETATM    6  H   UNL     1      44.035 -18.824   5.079  1.00  0.00     0.189 HD
HETATM    7  N   UNL     1      42.838 -17.544   6.106  1.00  0.00    -0.168 NA
HETATM    8  C   UNL     1      42.122 -16.484   5.666  1.00  0.00     0.156 A 
HETATM    9  C   UNL     1      43.604 -17.443   2.548  1.00  0.00     0.034 A 
HETATM   10  C   UNL     1      43.138 -16.512   1.610  1.00  0.00     0.032 A 
ENDROOT
BRANCH   1  11
HETATM   11  N   UNL     1      41.753 -14.547   1.046  1.00  0.00    -0.326 N 
HETATM   12  C   UNL     1      40.545 -14.604   0.360  1.00  0.00     0.240 C 
HETATM   13  O   UNL     1      39.740 -15.534   0.422  1.00  0.00    -0.272 OA
HETATM   14  H   UNL     1      42.396 -13.811   0.775  1.00  0.00     0.169 HD
BRANCH  12  15
HETATM   15  C   UNL     1      40.244 -13.374  -0.529  1.00  0.00     0.172 C 
HETATM   16  C   UNL     1      39.132 -12.458  -0.010  1.00  0.00    -0.029 A 
HETATM   17  C   UNL     1      38.160 -11.861  -0.842  1.00  0.00    -0.050 A 
HETATM   18  C   UNL     1      39.118 -12.136   1.365  1.00  0.00     0.009 A 
HETATM   19  C   UNL     1      37.158 -11.054  -0.271  1.00  0.00     0.007 A 
HETATM   20  C   UNL     1      38.103 -12.075  -2.339  1.00  0.00     0.049 C 
HETATM   21  C   UNL     1      37.137 -10.791   1.096  1.00  0.00     0.001 A 
HETATM   22  C   UNL     1      38.125 -11.324   1.913  1.00  0.00     0.001 A 
HETATM   23  C   UNL     1      39.425 -12.474  -2.973  1.00  0.00     0.080 C 
HETATM   24  S   UNL     1      39.996 -14.014  -2.228  1.00  0.00    -0.149 SA
ENDBRANCH  12  15
ENDBRANCH   1  11
BRANCH   8  25
HETATM   25  C   UNL     1      41.329 -15.660   6.588  1.00  0.00     0.270 C 
HETATM   26  N   UNL     1      41.955 -14.512   6.990  1.00  0.00    -0.365 N 
HETATM   27  H   UNL     1      42.878 -14.310   6.623  1.00  0.00     0.159 HD
HETATM   28  H   UNL     1      41.475 -13.863   7.592  1.00  0.00     0.159 HD
HETATM   29  O   UNL     1      40.198 -15.940   6.971  1.00  0.00    -0.266 OA
ENDBRANCH   8  25
TORSDOF 3
ENDMDL
MODEL 5
REMARK VINA RESULT:      -8.3      1.972      2.467
REMARK  3 active torsions:
REMARK  status: ('A' for Active; 'I' for Inactive)
REMARK    1  A    between atoms: C_5  and  C_6 
REMARK       I    between atoms: C_6  and  N_7 
REMARK    2  A    between atoms: N_7  and  C_8 
REMARK    3  A    between atoms: C_15  and  C_16 
REMARK       I    between atoms: C_16  and  N_17 
ROOT
HETATM    1  C   UNL     1      39.631 -12.278   1.406  1.00  0.00     0.035 A 
HETATM    2  C   UNL     1      39.551 -12.800   0.104  1.00  0.00     0.046 A 
HETATM    3  C   UNL     1      38.564 -12.316  -0.781  1.00  0.00     0.030 A 
HETATM    4  C   UNL     1      37.663 -11.365  -0.322  1.00  0.00     0.063 A 
HETATM    5  N   UNL     1      36.834 -11.109  -1.379  1.00  0.00    -0.277 N 
HETATM    6  H   UNL     1      36.048 -10.470  -1.401  1.00  0.00     0.189 HD
HETATM    7  N   UNL     1      37.140 -11.784  -2.500  1.00  0.00    -0.168 NA
HETATM    8  C   UNL     1      38.209 -12.533  -2.145  1.00  0.00     0.156 A 
HETATM    9  C   UNL     1      37.695 -10.850   0.975  1.00  0.00     0.034 A 
HETATM   10  C   UNL     1      38.706 -11.318   1.825  1.00  0.00     0.032 A 
ENDROOT
BRANCH   1  11
HETATM   11  N   UNL     1      40.655 -12.778   2.236  1.00  0.00    -0.326 N 
HETATM   12  C   UNL     1      41.906 -12.210   2.449  1.00  0.00     0.240 C 
HETATM   13  O   UNL     1      42.324 -11.193   1.893  1.00  0.00    -0.272 OA
HETATM   14  H   UNL     1      40.503 -13.703   2.624  1.00  0.00     0.169 HD
BRANCH  12  15
HETATM   15  C   UNL     1      42.793 -12.955   3.475  1.00  0.00     0.172 C 
HETATM   16  C   UNL     1      42.969 -14.452   3.210  1.00  0.00    -0.029 A 
HETATM   17  C   UNL     1      42.961 -15.432   4.227  1.00  0.00    -0.050 A 
HETATM   18  C   UNL     1      43.222 -14.872   1.885  1.00  0.00     0.009 A 
HETATM   19  C   UNL     1      43.104 -16.790   3.884  1.00  0.00     0.007 A 
HETATM   20  C   UNL     1      42.763 -15.107   5.691  1.00  0.00     0.049 C 
HETATM   21  C   UNL     1      43.304 -17.182   2.564  1.00  0.00     0.001 A 
HETATM   22  C   UNL     1      43.374 -16.221   1.564  1.00  0.00     0.001 A 
HETATM   23  C   UNL     1      43.136 -13.687   6.082  1.00  0.00     0.080 C 
HETATM   24  S   UNL     1      42.133 -12.529   5.130  1.00  0.00    -0.149 SA
ENDBRANCH  12  15
ENDBRANCH   1  11
BRANCH   8  25
HETATM   25  C   UNL     1      38.881 -13.413  -3.110  1.00  0.00     0.270 C 
HETATM   26  N   UNL     1      38.034 -14.240  -3.796  1.00  0.00    -0.365 N 
HETATM   27  H   UNL     1      37.040 -14.176  -3.611  1.00  0.00     0.159 HD
HETATM   28  H   UNL     1      38.397 -14.853  -4.508  1.00  0.00     0.159 HD
HETATM   29  O   UNL     1      40.090 -13.420  -3.319  1.00  0.00    -0.266 OA
ENDBRANCH   8  25
TORSDOF 3
ENDMDL
MODEL 6
REMARK VINA RESULT:      -8.3      4.892      7.462
REMARK  3 active torsions:
REMARK  status: ('A' for Active; 'I' for Inactive)
REMARK    1  A    between atoms: C_5  and  C_6 
REMARK       I    between atoms: C_6  and  N_7 
REMARK    2  A    between atoms: N_7  and  C_8 
REMARK    3  A    between atoms: C_15  and  C_16 
REMARK       I    between atoms: C_16  and  N_17 
ROOT
HETATM    1  C   UNL     1      41.803 -11.596   5.840  1.00  0.00     0.035 A 
HETATM    2  C   UNL     1      43.023 -11.332   6.483  1.00  0.00     0.046 A 
HETATM    3  C   UNL     1      43.223 -10.084   7.112  1.00  0.00     0.030 A 
HETATM    4  C   UNL     1      42.220  -9.128   7.035  1.00  0.00     0.063 A 
HETATM    5  N   UNL     1      42.701  -8.041   7.711  1.00  0.00    -0.277 N 
HETATM    6  H   UNL     1      42.237  -7.151   7.848  1.00  0.00     0.189 HD
HETATM    7  N   UNL     1      43.917  -8.218   8.253  1.00  0.00    -0.168 NA
HETATM    8  C   UNL     1      44.252  -9.478   7.892  1.00  0.00     0.156 A 
HETATM    9  C   UNL     1      41.009  -9.348   6.376  1.00  0.00     0.034 A 
HETATM   10  C   UNL     1      40.818 -10.606   5.791  1.00  0.00     0.032 A 
ENDROOT
BRANCH   1  11
HETATM   11  N   UNL     1      41.648 -12.870   5.255  1.00  0.00    -0.326 N 
HETATM   12  C   UNL     1      40.714 -13.838   5.603  1.00  0.00     0.240 C 
HETATM   13  O   UNL     1      39.901 -13.737   6.523  1.00  0.00    -0.272 OA
HETATM   14  H   UNL     1      42.366 -13.146   4.594  1.00  0.00     0.169 HD
BRANCH  12  15
HETATM   15  C   UNL     1      40.742 -15.114   4.728  1.00  0.00     0.172 C 
HETATM   16  C   UNL     1      41.856 -16.106   5.070  1.00  0.00    -0.029 A 
HETATM   17  C   UNL     1      42.603 -16.808   4.098  1.00  0.00    -0.050 A 
HETATM   18  C   UNL     1      42.107 -16.389   6.431  1.00  0.00     0.009 A 
HETATM   19  C   UNL     1      43.628 -17.681   4.506  1.00  0.00     0.007 A 
HETATM   20  C   UNL     1      42.390 -16.642   2.609  1.00  0.00     0.049 C 
HETATM   21  C   UNL     1      43.887 -17.906   5.855  1.00  0.00     0.001 A 
HETATM   22  C   UNL     1      43.118 -17.268   6.819  1.00  0.00     0.001 A 
HETATM   23  C   UNL     1      41.008 -16.149   2.216  1.00  0.00     0.080 C 
HETATM   24  S   UNL     1      40.713 -14.545   2.986  1.00  0.00    -0.149 SA
ENDBRANCH  12  15
ENDBRANCH   1  11
BRANCH   8  25
HETATM   25  C   UNL     1      45.522 -10.083   8.315  1.00  0.00     0.270 C 
HETATM   26  N   UNL     1      46.611  -9.646   7.611  1.00  0.00    -0.365 N 
HETATM   27  H   UNL     1      46.472  -8.948   6.890  1.00  0.00     0.159 HD
HETATM   28  H   UNL     1      47.531  -9.974   7.855  1.00  0.00     0.159 HD
HETATM   29  O   UNL     1      45.633 -10.900   9.224  1.00  0.00    -0.266 OA
ENDBRANCH   8  25
TORSDOF 3
ENDMDL
MODEL 7
REMARK VINA RESULT:      -8.2      1.992      3.034
REMARK  3 active torsions:
REMARK  status: ('A' for Active; 'I' for Inactive)
REMARK    1  A    between atoms: C_5  and  C_6 
REMARK       I    between atoms: C_6  and  N_7 
REMARK    2  A    between atoms: N_7  and  C_8 
REMARK    3  A    between atoms: C_15  and  C_16 
REMARK       I    between atoms: C_16  and  N_17 
ROOT
HETATM    1  C   UNL     1      39.966 -13.712  -0.132  1.00  0.00     0.035 A 
HETATM    2  C   UNL     1      39.271 -12.497  -0.252  1.00  0.00     0.046 A 
HETATM    3  C   UNL     1      38.307 -12.344  -1.272  1.00  0.00     0.030 A 
HETATM    4  C   UNL     1      38.106 -13.389  -2.163  1.00  0.00     0.063 A 
HETATM    5  N   UNL     1      37.143 -12.947  -3.028  1.00  0.00    -0.277 N 
HETATM    6  H   UNL     1      36.755 -13.448  -3.819  1.00  0.00     0.189 HD
HETATM    7  N   UNL     1      36.674 -11.718  -2.756  1.00  0.00    -0.168 NA
HETATM    8  C   UNL     1      37.383 -11.334  -1.671  1.00  0.00     0.156 A 
HETATM    9  C   UNL     1      38.802 -14.596  -2.090  1.00  0.00     0.034 A 
HETATM   10  C   UNL     1      39.728 -14.739  -1.048  1.00  0.00     0.032 A 
ENDROOT
BRANCH   1  11
HETATM   11  N   UNL     1      40.895 -13.818   0.924  1.00  0.00    -0.326 N 
HETATM   12  C   UNL     1      40.733 -14.527   2.108  1.00  0.00     0.240 C 
HETATM   13  O   UNL     1      39.714 -15.139   2.431  1.00  0.00    -0.272 OA
HETATM   14  H   UNL     1      41.714 -13.222   0.858  1.00  0.00     0.169 HD
BRANCH  12  15
HETATM   15  C   UNL     1      41.963 -14.515   3.047  1.00  0.00     0.172 C 
HETATM   16  C   UNL     1      42.624 -15.879   3.262  1.00  0.00    -0.029 A 
HETATM   17  C   UNL     1      43.111 -16.322   4.511  1.00  0.00    -0.050 A 
HETATM   18  C   UNL     1      42.822 -16.712   2.138  1.00  0.00     0.009 A 
HETATM   19  C   UNL     1      43.682 -17.605   4.618  1.00  0.00     0.007 A 
HETATM   20  C   UNL     1      43.018 -15.501   5.778  1.00  0.00     0.049 C 
HETATM   21  C   UNL     1      43.821 -18.426   3.504  1.00  0.00     0.001 A 
HETATM   22  C   UNL     1      43.401 -17.975   2.260  1.00  0.00     0.001 A 
HETATM   23  C   UNL     1      42.909 -14.001   5.555  1.00  0.00     0.080 C 
HETATM   24  S   UNL     1      41.434 -13.656   4.577  1.00  0.00    -0.149 SA
ENDBRANCH  12  15
ENDBRANCH   1  11
BRANCH   8  25
HETATM   25  C   UNL     1      37.152 -10.034  -1.026  1.00  0.00     0.270 C 
HETATM   26  N   UNL     1      36.522 -10.115   0.186  1.00  0.00    -0.365 N 
HETATM   27  H   UNL     1      36.287 -11.032   0.548  1.00  0.00     0.159 HD
HETATM   28  H   UNL     1      36.356  -9.280   0.722  1.00  0.00     0.159 HD
HETATM   29  O   UNL     1      37.493  -8.954  -1.499  1.00  0.00    -0.266 OA
ENDBRANCH   8  25
TORSDOF 3
ENDMDL
MODEL 8
REMARK VINA RESULT:      -8.2      3.151      8.045
REMARK  3 active torsions:
REMARK  status: ('A' for Active; 'I' for Inactive)
REMARK    1  A    between atoms: C_5  and  C_6 
REMARK       I    between atoms: C_6  and  N_7 
REMARK    2  A    between atoms: N_7  and  C_8 
REMARK    3  A    between atoms: C_15  and  C_16 
REMARK       I    between atoms: C_16  and  N_17 
ROOT
HETATM    1  C   UNL     1      42.487 -15.605   2.163  1.00  0.00     0.035 A 
HETATM    2  C   UNL     1      42.758 -16.959   1.908  1.00  0.00     0.046 A 
HETATM    3  C   UNL     1      43.340 -17.755   2.918  1.00  0.00     0.030 A 
HETATM    4  C   UNL     1      43.675 -17.161   4.127  1.00  0.00     0.063 A 
HETATM    5  N   UNL     1      44.223 -18.159   4.883  1.00  0.00    -0.277 N 
HETATM    6  H   UNL     1      44.591 -18.084   5.824  1.00  0.00     0.189 HD
HETATM    7  N   UNL     1      44.242 -19.362   4.284  1.00  0.00    -0.168 NA
HETATM    8  C   UNL     1      43.697 -19.127   3.069  1.00  0.00     0.156 A 
HETATM    9  C   UNL     1      43.448 -15.811   4.400  1.00  0.00     0.034 A 
HETATM   10  C   UNL     1      42.836 -15.049   3.396  1.00  0.00     0.032 A 
ENDROOT
BRANCH   1  11
HETATM   11  N   UNL     1      41.877 -14.866   1.127  1.00  0.00    -0.326 N 
HETATM   12  C   UNL     1      40.533 -14.878   0.776  1.00  0.00     0.240 C 
HETATM   13  O   UNL     1      39.672 -15.586   1.300  1.00  0.00    -0.272 OA
HETATM   14  H   UNL     1      42.506 -14.367   0.507  1.00  0.00     0.169 HD
BRANCH  12  15
HETATM   15  C   UNL     1      40.149 -13.902  -0.362  1.00  0.00     0.172 C 
HETATM   16  C   UNL     1      39.306 -12.701   0.074  1.00  0.00    -0.029 A 
HETATM   17  C   UNL     1      38.224 -12.193  -0.677  1.00  0.00    -0.050 A 
HETATM   18  C   UNL     1      39.671 -12.021   1.257  1.00  0.00     0.009 A 
HETATM   19  C   UNL     1      37.488 -11.099  -0.183  1.00  0.00     0.007 A 
HETATM   20  C   UNL     1      37.772 -12.791  -1.992  1.00  0.00     0.049 C 
HETATM   21  C   UNL     1      37.839 -10.476   1.011  1.00  0.00     0.001 A 
HETATM   22  C   UNL     1      38.939 -10.930   1.726  1.00  0.00     0.001 A 
HETATM   23  C   UNL     1      38.842 -13.571  -2.736  1.00  0.00     0.080 C 
HETATM   24  S   UNL     1      39.417 -14.926  -1.693  1.00  0.00    -0.149 SA
ENDBRANCH  12  15
ENDBRANCH   1  11
BRANCH   8  25
HETATM   25  C   UNL     1      43.505 -20.209   2.094  1.00  0.00     0.270 C 
HETATM   26  N   UNL     1      42.206 -20.386   1.704  1.00  0.00    -0.365 N 
HETATM   27  H   UNL     1      41.498 -19.769   2.084  1.00  0.00     0.159 HD
HETATM   28  H   UNL     1      41.980 -21.078   1.008  1.00  0.00     0.159 HD
HETATM   29  O   UNL     1      44.410 -20.902   1.639  1.00  0.00    -0.266 OA
ENDBRANCH   8  25
TORSDOF 3
ENDMDL
MODEL 9
REMARK VINA RESULT:      -8.0      5.070      7.760
REMARK  3 active torsions:
REMARK  status: ('A' for Active; 'I' for Inactive)
REMARK    1  A    between atoms: C_5  and  C_6 
REMARK       I    between atoms: C_6  and  N_7 
REMARK    2  A    between atoms: N_7  and  C_8 
REMARK    3  A    between atoms: C_15  and  C_16 
REMARK       I    between atoms: C_16  and  N_17 
ROOT
HETATM    1  C   UNL     1      42.798 -13.689   5.882  1.00  0.00     0.035 A 
HETATM    2  C   UNL     1      42.091 -13.960   4.700  1.00  0.00     0.046 A 
HETATM    3  C   UNL     1      42.215 -15.227   4.089  1.00  0.00     0.030 A 
HETATM    4  C   UNL     1      43.076 -16.159   4.652  1.00  0.00     0.063 A 
HETATM    5  N   UNL     1      42.998 -17.260   3.845  1.00  0.00    -0.277 N 
HETATM    6  H   UNL     1      43.503 -18.132   3.948  1.00  0.00     0.189 HD
HETATM    7  N   UNL     1      42.132 -17.139   2.825  1.00  0.00    -0.168 NA
HETATM    8  C   UNL     1      41.639 -15.888   2.964  1.00  0.00     0.156 A 
HETATM    9  C   UNL     1      43.818 -15.908   5.808  1.00  0.00     0.034 A 
HETATM   10  C   UNL     1      43.650 -14.658   6.418  1.00  0.00     0.032 A 
ENDROOT
BRANCH   1  11
HETATM   11  N   UNL     1      42.612 -12.418   6.464  1.00  0.00    -0.326 N 
HETATM   12  C   UNL     1      43.199 -11.224   6.063  1.00  0.00     0.240 C 
HETATM   13  O   UNL     1      44.021 -11.111   5.152  1.00  0.00    -0.272 OA
HETATM   14  H   UNL     1      42.086 -12.398   7.332  1.00  0.00     0.169 HD
BRANCH  12  15
HETATM   15  C   UNL     1      42.742  -9.976   6.856  1.00  0.00     0.172 C 
HETATM   16  C   UNL     1      43.386  -9.815   8.235  1.00  0.00    -0.029 A 
HETATM   17  C   UNL     1      42.682  -9.385   9.381  1.00  0.00    -0.050 A 
HETATM   18  C   UNL     1      44.775 -10.043   8.356  1.00  0.00     0.009 A 
HETATM   19  C   UNL     1      43.353  -9.293  10.615  1.00  0.00     0.007 A 
HETATM   20  C   UNL     1      41.207  -9.048   9.371  1.00  0.00     0.049 C 
HETATM   21  C   UNL     1      44.713  -9.569  10.717  1.00  0.00     0.001 A 
HETATM   22  C   UNL     1      45.427  -9.934   9.584  1.00  0.00     0.001 A 
HETATM   23  C   UNL     1      40.656  -8.648   8.012  1.00  0.00     0.080 C 
HETATM   24  S   UNL     1      40.910 -10.004   6.850  1.00  0.00    -0.149 SA
ENDBRANCH  12  15
ENDBRANCH   1  11
BRANCH   8  25
HETATM   25  C   UNL     1      40.620 -15.360   2.047  1.00  0.00     0.270 C 
HETATM   26  N   UNL     1      39.352 -15.357   2.562  1.00  0.00    -0.365 N 
HETATM   27  H   UNL     1      39.214 -15.688   3.510  1.00  0.00     0.159 HD
HETATM   28  H   UNL     1      38.592 -14.977   2.022  1.00  0.00     0.159 HD
HETATM   29  O   UNL     1      40.853 -14.937   0.919  1.00  0.00    -0.266 OA
ENDBRANCH   8  25
TORSDOF 3
ENDMDL
MODEL 10
REMARK VINA RESULT:      -7.9      2.971      7.448
REMARK  3 active torsions:
REMARK  status: ('A' for Active; 'I' for Inactive)
REMARK    1  A    between atoms: C_5  and  C_6 
REMARK       I    between atoms: C_6  and  N_7 
REMARK    2  A    between atoms: N_7  and  C_8 
REMARK    3  A    between atoms: C_15  and  C_16 
REMARK       I    between atoms: C_16  and  N_17 
ROOT
HETATM    1  C   UNL     1      42.613 -14.474   3.542  1.00  0.00     0.035 A 
HETATM    2  C   UNL     1      42.865 -15.792   3.129  1.00  0.00     0.046 A 
HETATM    3  C   UNL     1      43.393 -16.722   4.050  1.00  0.00     0.030 A 
HETATM    4  C   UNL     1      43.697 -16.292   5.334  1.00  0.00     0.063 A 
HETATM    5  N   UNL     1      44.197 -17.390   5.976  1.00  0.00    -0.277 N 
HETATM    6  H   UNL     1      44.532 -17.442   6.931  1.00  0.00     0.189 HD
HETATM    7  N   UNL     1      44.212 -18.509   5.232  1.00  0.00    -0.168 NA
HETATM    8  C   UNL     1      43.716 -18.111   4.039  1.00  0.00     0.156 A 
HETATM    9  C   UNL     1      43.489 -14.981   5.766  1.00  0.00     0.034 A 
HETATM   10  C   UNL     1      42.929 -14.085   4.846  1.00  0.00     0.032 A 
ENDROOT
BRANCH   1  11
HETATM   11  N   UNL     1      42.057 -13.597   2.588  1.00  0.00    -0.326 N 
HETATM   12  C   UNL     1      40.706 -13.384   2.340  1.00  0.00     0.240 C 
HETATM   13  O   UNL     1      39.783 -13.980   2.897  1.00  0.00    -0.272 OA
HETATM   14  H   UNL     1      42.712 -13.167   1.943  1.00  0.00     0.169 HD
BRANCH  12  15
HETATM   15  C   UNL     1      40.402 -12.302   1.276  1.00  0.00     0.172 C 
HETATM   16  C   UNL     1      40.345 -12.813  -0.166  1.00  0.00    -0.029 A 
HETATM   17  C   UNL     1      40.883 -12.109  -1.266  1.00  0.00    -0.050 A 
HETATM   18  C   UNL     1      39.655 -14.019  -0.423  1.00  0.00     0.009 A 
HETATM   19  C   UNL     1      40.807 -12.671  -2.554  1.00  0.00     0.007 A 
HETATM   20  C   UNL     1      41.590 -10.778  -1.134  1.00  0.00     0.049 C 
HETATM   21  C   UNL     1      40.163 -13.885  -2.773  1.00  0.00     0.001 A 
HETATM   22  C   UNL     1      39.577 -14.554  -1.708  1.00  0.00     0.001 A 
HETATM   23  C   UNL     1      41.208  -9.975   0.098  1.00  0.00     0.080 C 
HETATM   24  S   UNL     1      41.590 -10.939   1.573  1.00  0.00    -0.149 SA
ENDBRANCH  12  15
ENDBRANCH   1  11
BRANCH   8  25
HETATM   25  C   UNL     1      43.537 -19.058   2.930  1.00  0.00     0.270 C 
HETATM   26  N   UNL     1      43.840 -20.354   3.248  1.00  0.00    -0.365 N 
HETATM   27  H   UNL     1      44.136 -20.564   4.194  1.00  0.00     0.159 HD
HETATM   28  H   UNL     1      43.710 -21.082   2.564  1.00  0.00     0.159 HD
HETATM   29  O   UNL     1      43.138 -18.750   1.811  1.00  0.00    -0.266 OA
ENDBRANCH   8  25
TORSDOF 3
ENDMDL
