MODEL 1
REMARK VINA RESULT:      -8.2      0.000      0.000
REMARK  2 active torsions:
REMARK  status: ('A' for Active; 'I' for Inactive)
REMARK    1  A    between atoms: C_4  and  N_5 
REMARK       I    between atoms: N_5  and  C_6 
REMARK    2  A    between atoms: C_6  and  C_7 
ROOT
HETATM    1  C   UNL     1      42.326 -14.830   6.712  1.00  0.00     0.099 C 
HETATM    2  C   UNL     1      43.010 -15.700   5.942  1.00  0.00     0.079 C 
HETATM    3  S   UNL     1      43.149 -15.628   4.227  1.00  0.00    -0.082 SA
HETATM    4  C   UNL     1      43.330 -17.342   3.812  1.00  0.00     0.032 A 
HETATM    5  C   UNL     1      43.789 -18.288   4.730  1.00  0.00     0.052 A 
HETATM    6  N   UNL     1      44.040 -17.956   6.064  1.00  0.00    -0.321 N 
HETATM    7  C   UNL     1      43.064 -17.743   2.496  1.00  0.00     0.021 A 
HETATM    8  C   UNL     1      43.263 -19.068   2.101  1.00  0.00     0.002 A 
HETATM    9  C   UNL     1      43.745 -20.000   3.017  1.00  0.00     0.002 A 
HETATM   10  C   UNL     1      44.013 -19.610   4.329  1.00  0.00     0.031 A 
HETATM   11  C   UNL     1      43.713 -16.792   6.696  1.00  0.00     0.263 C 
HETATM   12  O   UNL     1      43.969 -16.683   7.897  1.00  0.00    -0.267 OA
HETATM   13  H   UNL     1      44.444 -18.653   6.676  1.00  0.00     0.169 HD
ENDROOT
BRANCH   1  14
HETATM   14  C   UNL     1      41.584 -13.627   6.260  1.00  0.00     0.247 C 
HETATM   15  N   UNL     1      42.134 -12.384   6.394  1.00  0.00    -0.324 N 
HETATM   16  H   UNL     1      41.409 -11.679   6.309  1.00  0.00     0.169 HD
HETATM   17  O   UNL     1      40.426 -13.686   5.850  1.00  0.00    -0.268 OA
BRANCH  15  18
HETATM   18  C   UNL     1      43.429 -11.892   6.627  1.00  0.00     0.035 A 
HETATM   19  C   UNL     1      44.452 -11.858   5.678  1.00  0.00     0.029 A 
HETATM   20  C   UNL     1      45.707 -11.339   6.012  1.00  0.00     0.002 A 
HETATM   21  C   UNL     1      45.943 -10.824   7.284  1.00  0.00     0.000 A 
HETATM   22  C   UNL     1      44.915 -10.809   8.223  1.00  0.00     0.002 A 
HETATM   23  C   UNL     1      43.664 -11.330   7.889  1.00  0.00     0.029 A 
ENDBRANCH  15  18
ENDBRANCH   1  14
TORSDOF 2
ENDMDL
MODEL 2
REMARK VINA RESULT:      -7.8      1.994      6.599
REMARK  2 active torsions:
REMARK  status: ('A' for Active; 'I' for Inactive)
REMARK    1  A    between atoms: C_4  and  N_5 
REMARK       I    between atoms: N_5  and  C_6 
REMARK    2  A    between atoms: C_6  and  C_7 
ROOT
HETATM    1  C   UNL     1      40.704 -15.461   3.961  1.00  0.00     0.099 C 
HETATM    2  C   UNL     1      41.234 -14.350   4.510  1.00  0.00     0.079 C 
HETATM    3  S   UNL     1      42.192 -13.181   3.684  1.00  0.00    -0.082 SA
HETATM    4  C   UNL     1      43.227 -12.580   4.991  1.00  0.00     0.032 A 
HETATM    5  C   UNL     1      42.868 -12.686   6.336  1.00  0.00     0.052 A 
HETATM    6  N   UNL     1      41.713 -13.364   6.737  1.00  0.00    -0.321 N 
HETATM    7  C   UNL     1      44.414 -11.917   4.653  1.00  0.00     0.021 A 
HETATM    8  C   UNL     1      45.226 -11.360   5.644  1.00  0.00     0.002 A 
HETATM    9  C   UNL     1      44.848 -11.449   6.981  1.00  0.00     0.002 A 
HETATM   10  C   UNL     1      43.668 -12.107   7.328  1.00  0.00     0.031 A 
HETATM   11  C   UNL     1      40.910 -14.148   5.963  1.00  0.00     0.263 C 
HETATM   12  O   UNL     1      39.951 -14.712   6.493  1.00  0.00    -0.267 OA
HETATM   13  H   UNL     1      41.452 -13.351   7.715  1.00  0.00     0.169 HD
ENDROOT
BRANCH   1  14
HETATM   14  C   UNL     1      40.804 -15.895   2.546  1.00  0.00     0.247 C 
HETATM   15  N   UNL     1      41.812 -16.727   2.147  1.00  0.00    -0.324 N 
HETATM   16  H   UNL     1      41.901 -16.694   1.137  1.00  0.00     0.169 HD
HETATM   17  O   UNL     1      40.063 -15.454   1.670  1.00  0.00    -0.268 OA
BRANCH  15  18
HETATM   18  C   UNL     1      42.720 -17.572   2.806  1.00  0.00     0.035 A 
HETATM   19  C   UNL     1      43.416 -17.241   3.969  1.00  0.00     0.029 A 
HETATM   20  C   UNL     1      44.295 -18.161   4.552  1.00  0.00     0.002 A 
HETATM   21  C   UNL     1      44.464 -19.426   3.994  1.00  0.00     0.000 A 
HETATM   22  C   UNL     1      43.738 -19.783   2.862  1.00  0.00     0.002 A 
HETATM   23  C   UNL     1      42.863 -18.863   2.281  1.00  0.00     0.029 A 
ENDBRANCH  15  18
ENDBRANCH   1  14
TORSDOF 2
ENDMDL
MODEL 3
REMARK VINA RESULT:      -7.6      2.295      3.025
REMARK  2 active torsions:
REMARK  status: ('A' for Active; 'I' for Inactive)
REMARK    1  A    between atoms: C_4  and  N_5 
REMARK       I    between atoms: N_5  and  C_6 
REMARK    2  A    between atoms: C_6  and  C_7 
ROOT
HETATM    1  C   UNL     1      40.258 -13.422   4.431  1.00  0.00     0.099 C 
HETATM    2  C   UNL     1      40.664 -14.683   4.185  1.00  0.00     0.079 C 
HETATM    3  S   UNL     1      41.165 -15.825   5.373  1.00  0.00    -0.082 SA
HETATM    4  C   UNL     1      42.322 -16.809   4.458  1.00  0.00     0.032 A 
HETATM    5  C   UNL     1      42.296 -16.886   3.065  1.00  0.00     0.052 A 
HETATM    6  N   UNL     1      41.417 -16.114   2.301  1.00  0.00    -0.321 N 
HETATM    7  C   UNL     1      43.249 -17.583   5.167  1.00  0.00     0.021 A 
HETATM    8  C   UNL     1      44.132 -18.430   4.493  1.00  0.00     0.002 A 
HETATM    9  C   UNL     1      44.084 -18.521   3.105  1.00  0.00     0.002 A 
HETATM   10  C   UNL     1      43.164 -17.754   2.390  1.00  0.00     0.031 A 
HETATM   11  C   UNL     1      40.635 -15.085   2.739  1.00  0.00     0.263 C 
HETATM   12  O   UNL     1      39.948 -14.477   1.915  1.00  0.00    -0.267 OA
HETATM   13  H   UNL     1      41.380 -16.258   1.300  1.00  0.00     0.169 HD
ENDROOT
BRANCH   1  14
HETATM   14  C   UNL     1      40.128 -12.765   5.755  1.00  0.00     0.247 C 
HETATM   15  N   UNL     1      41.237 -12.326   6.421  1.00  0.00    -0.324 N 
HETATM   16  H   UNL     1      41.009 -12.171   7.398  1.00  0.00     0.169 HD
HETATM   17  O   UNL     1      39.052 -12.682   6.344  1.00  0.00    -0.268 OA
BRANCH  15  18
HETATM   18  C   UNL     1      42.570 -12.065   6.064  1.00  0.00     0.035 A 
HETATM   19  C   UNL     1      42.990 -11.649   4.800  1.00  0.00     0.029 A 
HETATM   20  C   UNL     1      44.346 -11.409   4.549  1.00  0.00     0.002 A 
HETATM   21  C   UNL     1      45.288 -11.554   5.566  1.00  0.00     0.000 A 
HETATM   22  C   UNL     1      44.873 -11.921   6.842  1.00  0.00     0.002 A 
HETATM   23  C   UNL     1      43.520 -12.163   7.089  1.00  0.00     0.029 A 
ENDBRANCH  15  18
ENDBRANCH   1  14
TORSDOF 2
ENDMDL
MODEL 4
REMARK VINA RESULT:      -7.5      2.915      3.795
REMARK  2 active torsions:
REMARK  status: ('A' for Active; 'I' for Inactive)
REMARK    1  A    between atoms: C_4  and  N_5 
REMARK       I    between atoms: N_5  and  C_6 
REMARK    2  A    between atoms: C_6  and  C_7 
ROOT
HETATM    1  C   UNL     1      42.004 -11.056   5.050  1.00  0.00     0.099 C 
HETATM    2  C   UNL     1      41.892 -12.144   4.262  1.00  0.00     0.079 C 
HETATM    3  S   UNL     1      41.108 -13.617   4.690  1.00  0.00    -0.082 SA
HETATM    4  C   UNL     1      42.022 -14.799   3.736  1.00  0.00     0.032 A 
HETATM    5  C   UNL     1      42.740 -14.440   2.594  1.00  0.00     0.052 A 
HETATM    6  N   UNL     1      42.861 -13.108   2.189  1.00  0.00    -0.321 N 
HETATM    7  C   UNL     1      41.965 -16.148   4.110  1.00  0.00     0.021 A 
HETATM    8  C   UNL     1      42.608 -17.126   3.348  1.00  0.00     0.002 A 
HETATM    9  C   UNL     1      43.301 -16.763   2.196  1.00  0.00     0.002 A 
HETATM   10  C   UNL     1      43.363 -15.423   1.816  1.00  0.00     0.031 A 
HETATM   11  C   UNL     1      42.498 -11.999   2.896  1.00  0.00     0.263 C 
HETATM   12  O   UNL     1      42.720 -10.890   2.405  1.00  0.00    -0.267 OA
HETATM   13  H   UNL     1      43.326 -12.901   1.314  1.00  0.00     0.169 HD
ENDROOT
BRANCH   1  14
HETATM   14  C   UNL     1      41.460 -10.883   6.420  1.00  0.00     0.247 C 
HETATM   15  N   UNL     1      42.303 -10.730   7.484  1.00  0.00    -0.324 N 
HETATM   16  H   UNL     1      41.798 -10.909   8.346  1.00  0.00     0.169 HD
HETATM   17  O   UNL     1      40.259 -10.971   6.665  1.00  0.00    -0.268 OA
BRANCH  15  18
HETATM   18  C   UNL     1      43.661 -10.406   7.636  1.00  0.00     0.035 A 
HETATM   19  C   UNL     1      44.723 -11.209   7.218  1.00  0.00     0.029 A 
HETATM   20  C   UNL     1      46.044 -10.789   7.410  1.00  0.00     0.002 A 
HETATM   21  C   UNL     1      46.313  -9.554   7.994  1.00  0.00     0.000 A 
HETATM   22  C   UNL     1      45.261  -8.725   8.370  1.00  0.00     0.002 A 
HETATM   23  C   UNL     1      43.944  -9.146   8.180  1.00  0.00     0.029 A 
ENDBRANCH  15  18
ENDBRANCH   1  14
TORSDOF 2
ENDMDL
MODEL 5
REMARK VINA RESULT:      -7.3      3.114      6.696
REMARK  2 active torsions:
REMARK  status: ('A' for Active; 'I' for Inactive)
REMARK    1  A    between atoms: C_4  and  N_5 
REMARK       I    between atoms: N_5  and  C_6 
REMARK    2  A    between atoms: C_6  and  C_7 
ROOT
HETATM    1  C   UNL     1      39.581 -12.900   3.522  1.00  0.00     0.099 C 
HETATM    2  C   UNL     1      40.508 -12.269   4.270  1.00  0.00     0.079 C 
HETATM    3  S   UNL     1      41.863 -11.396   3.663  1.00  0.00    -0.082 SA
HETATM    4  C   UNL     1      43.040 -11.610   4.971  1.00  0.00     0.032 A 
HETATM    5  C   UNL     1      42.656 -11.914   6.277  1.00  0.00     0.052 A 
HETATM    6  N   UNL     1      41.323 -12.166   6.613  1.00  0.00    -0.321 N 
HETATM    7  C   UNL     1      44.397 -11.400   4.690  1.00  0.00     0.021 A 
HETATM    8  C   UNL     1      45.355 -11.485   5.703  1.00  0.00     0.002 A 
HETATM    9  C   UNL     1      44.961 -11.764   7.009  1.00  0.00     0.002 A 
HETATM   10  C   UNL     1      43.613 -11.974   7.298  1.00  0.00     0.031 A 
HETATM   11  C   UNL     1      40.279 -12.343   5.752  1.00  0.00     0.263 C 
HETATM   12  O   UNL     1      39.169 -12.605   6.220  1.00  0.00    -0.267 OA
HETATM   13  H   UNL     1      41.079 -12.308   7.585  1.00  0.00     0.169 HD
ENDROOT
BRANCH   1  14
HETATM   14  C   UNL     1      39.511 -12.953   2.040  1.00  0.00     0.247 C 
HETATM   15  N   UNL     1      40.379 -13.737   1.335  1.00  0.00    -0.324 N 
HETATM   16  H   UNL     1      40.387 -13.447   0.362  1.00  0.00     0.169 HD
HETATM   17  O   UNL     1      38.755 -12.231   1.393  1.00  0.00    -0.268 OA
BRANCH  15  18
HETATM   18  C   UNL     1      41.236 -14.804   1.653  1.00  0.00     0.035 A 
HETATM   19  C   UNL     1      40.814 -16.078   2.033  1.00  0.00     0.029 A 
HETATM   20  C   UNL     1      41.752 -17.076   2.323  1.00  0.00     0.002 A 
HETATM   21  C   UNL     1      43.116 -16.816   2.208  1.00  0.00     0.000 A 
HETATM   22  C   UNL     1      43.546 -15.562   1.783  1.00  0.00     0.002 A 
HETATM   23  C   UNL     1      42.608 -14.568   1.497  1.00  0.00     0.029 A 
ENDBRANCH  15  18
ENDBRANCH   1  14
TORSDOF 2
ENDMDL
MODEL 6
REMARK VINA RESULT:      -7.2      2.697      6.394
REMARK  2 active torsions:
REMARK  status: ('A' for Active; 'I' for Inactive)
REMARK    1  A    between atoms: C_4  and  N_5 
REMARK       I    between atoms: N_5  and  C_6 
REMARK    2  A    between atoms: C_6  and  C_7 
ROOT
HETATM    1  C   UNL     1      43.554 -14.276   6.524  1.00  0.00     0.099 C 
HETATM    2  C   UNL     1      42.755 -13.343   5.970  1.00  0.00     0.079 C 
HETATM    3  S   UNL     1      41.034 -13.399   5.916  1.00  0.00    -0.082 SA
HETATM    4  C   UNL     1      40.694 -12.503   4.425  1.00  0.00     0.032 A 
HETATM    5  C   UNL     1      41.599 -11.590   3.881  1.00  0.00     0.052 A 
HETATM    6  N   UNL     1      42.872 -11.402   4.426  1.00  0.00    -0.321 N 
HETATM    7  C   UNL     1      39.446 -12.672   3.813  1.00  0.00     0.021 A 
HETATM    8  C   UNL     1      39.103 -11.933   2.678  1.00  0.00     0.002 A 
HETATM    9  C   UNL     1      40.001 -11.007   2.156  1.00  0.00     0.002 A 
HETATM   10  C   UNL     1      41.247 -10.831   2.759  1.00  0.00     0.031 A 
HETATM   11  C   UNL     1      43.475 -12.162   5.386  1.00  0.00     0.263 C 
HETATM   12  O   UNL     1      44.627 -11.880   5.721  1.00  0.00    -0.267 OA
HETATM   13  H   UNL     1      43.467 -10.676   4.047  1.00  0.00     0.169 HD
ENDROOT
BRANCH   1  14
HETATM   14  C   UNL     1      43.132 -15.516   7.222  1.00  0.00     0.247 C 
HETATM   15  N   UNL     1      42.728 -16.608   6.507  1.00  0.00    -0.324 N 
HETATM   16  H   UNL     1      42.218 -17.242   7.114  1.00  0.00     0.169 HD
HETATM   17  O   UNL     1      43.033 -15.579   8.445  1.00  0.00    -0.268 OA
BRANCH  15  18
HETATM   18  C   UNL     1      42.847 -17.018   5.169  1.00  0.00     0.035 A 
HETATM   19  C   UNL     1      42.050 -16.558   4.120  1.00  0.00     0.029 A 
HETATM   20  C   UNL     1      42.257 -17.026   2.818  1.00  0.00     0.002 A 
HETATM   21  C   UNL     1      43.278 -17.934   2.549  1.00  0.00     0.000 A 
HETATM   22  C   UNL     1      44.110 -18.361   3.579  1.00  0.00     0.002 A 
HETATM   23  C   UNL     1      43.901 -17.895   4.878  1.00  0.00     0.029 A 
ENDBRANCH  15  18
ENDBRANCH   1  14
TORSDOF 2
ENDMDL
MODEL 7
REMARK VINA RESULT:      -7.2      3.123      4.430
REMARK  2 active torsions:
REMARK  status: ('A' for Active; 'I' for Inactive)
REMARK    1  A    between atoms: C_4  and  N_5 
REMARK       I    between atoms: N_5  and  C_6 
REMARK    2  A    between atoms: C_6  and  C_7 
ROOT
HETATM    1  C   UNL     1      43.086 -12.448   2.956  1.00  0.00     0.099 C 
HETATM    2  C   UNL     1      42.798 -13.754   3.127  1.00  0.00     0.079 C 
HETATM    3  S   UNL     1      43.049 -14.656   4.572  1.00  0.00    -0.082 SA
HETATM    4  C   UNL     1      43.333 -16.285   3.932  1.00  0.00     0.032 A 
HETATM    5  C   UNL     1      42.883 -16.679   2.671  1.00  0.00     0.052 A 
HETATM    6  N   UNL     1      42.265 -15.781   1.796  1.00  0.00    -0.321 N 
HETATM    7  C   UNL     1      43.975 -17.223   4.751  1.00  0.00     0.021 A 
HETATM    8  C   UNL     1      44.156 -18.539   4.320  1.00  0.00     0.002 A 
HETATM    9  C   UNL     1      43.681 -18.931   3.071  1.00  0.00     0.002 A 
HETATM   10  C   UNL     1      43.041 -18.004   2.249  1.00  0.00     0.031 A 
HETATM   11  C   UNL     1      42.184 -14.426   1.932  1.00  0.00     0.263 C 
HETATM   12  O   UNL     1      41.640 -13.777   1.037  1.00  0.00    -0.267 OA
HETATM   13  H   UNL     1      41.886 -16.128   0.924  1.00  0.00     0.169 HD
ENDROOT
BRANCH   1  14
HETATM   14  C   UNL     1      43.644 -11.515   3.966  1.00  0.00     0.247 C 
HETATM   15  N   UNL     1      42.812 -10.760   4.743  1.00  0.00    -0.324 N 
HETATM   16  H   UNL     1      43.335  -9.996   5.159  1.00  0.00     0.169 HD
HETATM   17  O   UNL     1      44.851 -11.309   4.073  1.00  0.00    -0.268 OA
BRANCH  15  18
HETATM   18  C   UNL     1      41.446 -10.803   5.067  1.00  0.00     0.035 A 
HETATM   19  C   UNL     1      40.873 -11.674   5.995  1.00  0.00     0.029 A 
HETATM   20  C   UNL     1      39.498 -11.630   6.250  1.00  0.00     0.002 A 
HETATM   21  C   UNL     1      38.690 -10.698   5.603  1.00  0.00     0.000 A 
HETATM   22  C   UNL     1      39.259  -9.793   4.712  1.00  0.00     0.002 A 
HETATM   23  C   UNL     1      40.631  -9.840   4.457  1.00  0.00     0.029 A 
ENDBRANCH  15  18
ENDBRANCH   1  14
TORSDOF 2
ENDMDL
MODEL 8
REMARK VINA RESULT:      -7.2      4.307      6.695
REMARK  2 active torsions:
REMARK  status: ('A' for Active; 'I' for Inactive)
REMARK    1  A    between atoms: C_4  and  N_5 
REMARK       I    between atoms: N_5  and  C_6 
REMARK    2  A    between atoms: C_6  and  C_7 
ROOT
HETATM    1  C   UNL     1      41.200 -13.006   4.605  1.00  0.00     0.099 C 
HETATM    2  C   UNL     1      40.833 -12.518   3.404  1.00  0.00     0.079 C 
HETATM    3  S   UNL     1      39.458 -13.020   2.495  1.00  0.00    -0.082 SA
HETATM    4  C   UNL     1      40.006 -12.735   0.833  1.00  0.00     0.032 A 
HETATM    5  C   UNL     1      41.028 -11.834   0.529  1.00  0.00     0.052 A 
HETATM    6  N   UNL     1      41.749 -11.175   1.528  1.00  0.00    -0.321 N 
HETATM    7  C   UNL     1      39.341 -13.391  -0.212  1.00  0.00     0.021 A 
HETATM    8  C   UNL     1      39.687 -13.143  -1.542  1.00  0.00     0.002 A 
HETATM    9  C   UNL     1      40.691 -12.225  -1.838  1.00  0.00     0.002 A 
HETATM   10  C   UNL     1      41.358 -11.566  -0.805  1.00  0.00     0.031 A 
HETATM   11  C   UNL     1      41.717 -11.430   2.867  1.00  0.00     0.263 C 
HETATM   12  O   UNL     1      42.458 -10.779   3.607  1.00  0.00    -0.267 OA
HETATM   13  H   UNL     1      42.429 -10.474   1.261  1.00  0.00     0.169 HD
ENDROOT
BRANCH   1  14
HETATM   14  C   UNL     1      40.497 -14.039   5.405  1.00  0.00     0.247 C 
HETATM   15  N   UNL     1      40.605 -15.360   5.075  1.00  0.00    -0.324 N 
HETATM   16  H   UNL     1      39.861 -15.885   5.525  1.00  0.00     0.169 HD
HETATM   17  O   UNL     1      39.722 -13.750   6.315  1.00  0.00    -0.268 OA
BRANCH  15  18
HETATM   18  C   UNL     1      41.476 -16.115   4.273  1.00  0.00     0.035 A 
HETATM   19  C   UNL     1      41.299 -16.352   2.909  1.00  0.00     0.029 A 
HETATM   20  C   UNL     1      42.233 -17.113   2.197  1.00  0.00     0.002 A 
HETATM   21  C   UNL     1      43.364 -17.619   2.835  1.00  0.00     0.000 A 
HETATM   22  C   UNL     1      43.574 -17.348   4.184  1.00  0.00     0.002 A 
HETATM   23  C   UNL     1      42.640 -16.590   4.892  1.00  0.00     0.029 A 
ENDBRANCH  15  18
ENDBRANCH   1  14
TORSDOF 2
ENDMDL
MODEL 9
REMARK VINA RESULT:      -7.1      2.137      7.185
REMARK  2 active torsions:
REMARK  status: ('A' for Active; 'I' for Inactive)
REMARK    1  A    between atoms: C_4  and  N_5 
REMARK       I    between atoms: N_5  and  C_6 
REMARK    2  A    between atoms: C_6  and  C_7 
ROOT
HETATM    1  C   UNL     1      41.563 -14.418   6.429  1.00  0.00     0.099 C 
HETATM    2  C   UNL     1      42.208 -13.235   6.393  1.00  0.00     0.079 C 
HETATM    3  S   UNL     1      43.917 -13.023   6.399  1.00  0.00    -0.082 SA
HETATM    4  C   UNL     1      44.079 -11.451   7.203  1.00  0.00     0.032 A 
HETATM    5  C   UNL     1      43.040 -10.521   7.238  1.00  0.00     0.052 A 
HETATM    6  N   UNL     1      41.773 -10.813   6.725  1.00  0.00    -0.321 N 
HETATM    7  C   UNL     1      45.317 -11.112   7.765  1.00  0.00     0.021 A 
HETATM    8  C   UNL     1      45.516  -9.857   8.344  1.00  0.00     0.002 A 
HETATM    9  C   UNL     1      44.482  -8.925   8.353  1.00  0.00     0.002 A 
HETATM   10  C   UNL     1      43.246  -9.253   7.796  1.00  0.00     0.031 A 
HETATM   11  C   UNL     1      41.313 -12.031   6.317  1.00  0.00     0.263 C 
HETATM   12  O   UNL     1      40.146 -12.120   5.931  1.00  0.00    -0.267 OA
HETATM   13  H   UNL     1      41.072 -10.083   6.702  1.00  0.00     0.169 HD
ENDROOT
BRANCH   1  14
HETATM   14  C   UNL     1      42.174 -15.770   6.451  1.00  0.00     0.247 C 
HETATM   15  N   UNL     1      42.239 -16.517   5.309  1.00  0.00    -0.324 N 
HETATM   16  H   UNL     1      42.413 -17.489   5.547  1.00  0.00     0.169 HD
HETATM   17  O   UNL     1      42.545 -16.306   7.493  1.00  0.00    -0.268 OA
BRANCH  15  18
HETATM   18  C   UNL     1      42.110 -16.247   3.937  1.00  0.00     0.035 A 
HETATM   19  C   UNL     1      40.897 -16.159   3.253  1.00  0.00     0.029 A 
HETATM   20  C   UNL     1      40.878 -15.876   1.883  1.00  0.00     0.002 A 
HETATM   21  C   UNL     1      42.066 -15.651   1.192  1.00  0.00     0.000 A 
HETATM   22  C   UNL     1      43.278 -15.688   1.875  1.00  0.00     0.002 A 
HETATM   23  C   UNL     1      43.295 -15.973   3.241  1.00  0.00     0.029 A 
ENDBRANCH  15  18
ENDBRANCH   1  14
TORSDOF 2
ENDMDL
MODEL 10
REMARK VINA RESULT:      -7.0     14.806     16.864
REMARK  2 active torsions:
REMARK  status: ('A' for Active; 'I' for Inactive)
REMARK    1  A    between atoms: C_4  and  N_5 
REMARK       I    between atoms: N_5  and  C_6 
REMARK    2  A    between atoms: C_6  and  C_7 
ROOT
HETATM    1  C   UNL     1      47.909 -28.960  -0.158  1.00  0.00     0.099 C 
HETATM    2  C   UNL     1      46.948 -29.457   0.646  1.00  0.00     0.079 C 
HETATM    3  S   UNL     1      46.212 -31.006   0.490  1.00  0.00    -0.082 SA
HETATM    4  C   UNL     1      44.596 -30.702   1.153  1.00  0.00     0.032 A 
HETATM    5  C   UNL     1      44.336 -29.647   2.029  1.00  0.00     0.052 A 
HETATM    6  N   UNL     1      45.316 -28.706   2.359  1.00  0.00    -0.321 N 
HETATM    7  C   UNL     1      43.563 -31.593   0.835  1.00  0.00     0.021 A 
HETATM    8  C   UNL     1      42.292 -31.438   1.391  1.00  0.00     0.002 A 
HETATM    9  C   UNL     1      42.047 -30.398   2.283  1.00  0.00     0.002 A 
HETATM   10  C   UNL     1      43.069 -29.505   2.607  1.00  0.00     0.031 A 
HETATM   11  C   UNL     1      46.537 -28.553   1.772  1.00  0.00     0.263 C 
HETATM   12  O   UNL     1      47.265 -27.635   2.159  1.00  0.00    -0.267 OA
HETATM   13  H   UNL     1      45.106 -28.003   3.057  1.00  0.00     0.169 HD
ENDROOT
BRANCH   1  14
HETATM   14  C   UNL     1      48.551 -29.639  -1.311  1.00  0.00     0.247 C 
HETATM   15  N   UNL     1      47.804 -30.032  -2.385  1.00  0.00    -0.324 N 
HETATM   16  H   UNL     1      48.325 -30.711  -2.931  1.00  0.00     0.169 HD
HETATM   17  O   UNL     1      49.738 -29.961  -1.305  1.00  0.00    -0.268 OA
BRANCH  15  18
HETATM   18  C   UNL     1      46.522 -29.725  -2.868  1.00  0.00     0.035 A 
HETATM   19  C   UNL     1      46.018 -28.433  -3.024  1.00  0.00     0.029 A 
HETATM   20  C   UNL     1      44.726 -28.234  -3.523  1.00  0.00     0.002 A 
HETATM   21  C   UNL     1      43.938 -29.321  -3.895  1.00  0.00     0.000 A 
HETATM   22  C   UNL     1      44.449 -30.611  -3.788  1.00  0.00     0.002 A 
HETATM   23  C   UNL     1      45.738 -30.807  -3.288  1.00  0.00     0.029 A 
ENDBRANCH  15  18
ENDBRANCH   1  14
TORSDOF 2
ENDMDL
